MODEL 1
REMARK VINA RESULT:     -11.0      0.000      0.000
REMARK  Name = 44259421
REMARK  6 active torsions:
REMARK  status: ('A' for Active; 'I' for Inactive)
REMARK    1  A    between atoms: O_3  and  C_24
REMARK    2  A    between atoms: O_3  and  C_30
REMARK    3  A    between atoms: O_7  and  C_27
REMARK    4  A    between atoms: O_7  and  C_31
REMARK    5  A    between atoms: C_21  and  C_28
REMARK    6  A    between atoms: C_32  and  C_33
REMARK                            x       y       z     vdW  Elec       q    Type
REMARK                         _______ _______ _______ _____ _____    ______ ____
ROOT
ATOM      1  O   UNL     1     111.791 129.544 135.809  0.00  0.00    +0.000 OA
ATOM      2  O   UNL     1     112.314 130.851 137.846  0.00  0.00    +0.000 OA
ATOM      3  O   UNL     1     113.701 130.951 137.460  0.00  0.00    +0.000 OA
ATOM      4  O   UNL     1     114.574 129.705 134.966  0.00  0.00    +0.000 OA
ATOM      5  C   UNL     1     111.369 130.156 137.031  0.00  0.00    +0.000 A 
ATOM      6  C   UNL     1     111.194 129.720 136.351  0.00  0.00    +0.000 A 
ATOM      7  C   UNL     1     112.140 130.415 137.167  0.00  0.00    +0.000 A 
ATOM      8  C   UNL     1     112.736 130.239 136.624  0.00  0.00    +0.000 A 
ATOM      9  C   UNL     1     112.562 129.804 135.946  0.00  0.00    +0.000 A 
ATOM     10  C   UNL     1     113.535 130.516 136.778  0.00  0.00    +0.000 A 
ATOM     11  C   UNL     1     113.173 129.615 135.374  0.00  0.00    +0.000 A 
ATOM     12  C   UNL     1     114.161 130.336 136.217  0.00  0.00    +0.000 A 
ATOM     13  C   UNL     1     113.979 129.882 135.510  0.00  0.00    +0.000 A 
ENDROOT
BRANCH   6  17
ATOM     14  O   UNL     1     108.109 128.680 135.810  0.00  0.00    +0.000 OA
ATOM     15  O   UNL     1     108.684 130.008 135.017  0.00  0.00    +0.000 OA
ATOM     16  C   UNL     1     109.365 128.536 136.477  0.00  0.00    +0.000 A 
ATOM     17  C   UNL     1     110.423 129.460 136.216  0.00  0.00    +0.000 A 
ATOM     18  C   UNL     1     110.136 128.796 136.612  0.00  0.00    +0.000 A 
ATOM     19  C   UNL     1     108.881 128.940 135.945  0.00  0.00    +0.000 A 
ATOM     20  C   UNL     1     109.939 129.864 135.684  0.00  0.00    +0.000 A 
ATOM     21  C   UNL     1     109.168 129.604 135.549  0.00  0.00    +0.000 A 
BRANCH  16  22
ATOM     22  O   UNL     1     109.078 127.871 136.874  0.00  0.00    +0.000 OA
BRANCH  22  31
ATOM     23  O   UNL     1     109.780 126.845 136.172  0.00  0.00    +0.000 OA
ATOM     24  O   UNL     1     110.310 125.737 138.320  0.00  0.00    +0.000 OA
ATOM     25  O   UNL     1     110.835 125.079 136.902  0.00  0.00    +0.000 OA
ATOM     26  O   UNL     1     109.431 127.133 138.306  0.00  0.00    +0.000 OA
ATOM     27  C   UNL     1     110.133 126.106 137.604  0.00  0.00    +0.000 C 
ATOM     28  C   UNL     1     110.396 125.777 136.895  0.00  0.00    +0.000 C 
ATOM     29  C   UNL     1     109.693 126.805 137.597  0.00  0.00    +0.000 C 
ATOM     30  C   UNL     1     110.219 126.146 136.179  0.00  0.00    +0.000 C 
ATOM     31  C   UNL     1     109.517 127.173 136.881  0.00  0.00    +0.000 C 
ATOM     32  C   UNL     1     110.482 125.817 135.469  0.00  0.00    +0.000 C 
ENDBRANCH  22  31
ENDBRANCH  16  22
ENDBRANCH   6  17
BRANCH   5  33
ATOM     33  O   UNL     1     110.772 130.331 137.573  0.00  0.00    +0.000 OA
BRANCH  33  42
ATOM     34  O   UNL     1     110.667 131.706 137.197  0.00  0.00    +0.000 OA
ATOM     35  O   UNL     1     110.025 132.291 139.514  0.00  0.00    +0.000 OA
ATOM     36  O   UNL     1     110.135 133.470 138.366  0.00  0.00    +0.000 OA
ATOM     37  O   UNL     1     110.344 130.721 139.118  0.00  0.00    +0.000 OA
ATOM     38  C   UNL     1     110.239 132.096 138.742  0.00  0.00    +0.000 C 
ATOM     39  C   UNL     1     110.294 132.685 138.167  0.00  0.00    +0.000 C 
ATOM     40  C   UNL     1     110.399 131.311 138.543  0.00  0.00    +0.000 C 
ATOM     41  C   UNL     1     110.508 132.490 137.394  0.00  0.00    +0.000 C 
ATOM     42  C   UNL     1     110.613 131.115 137.771  0.00  0.00    +0.000 C 
BRANCH  41  44
ATOM     43  O   UNL     1     110.048 133.077 136.175  0.00  0.00    +0.000 OA
ATOM     44  C   UNL     1     110.563 133.079 136.821  0.00  0.00    +0.000 C 
ENDBRANCH  41  44
ENDBRANCH  33  42
ENDBRANCH   5  33
TORSDOF 6
ENDMDL
MODEL 2
REMARK VINA RESULT:     -10.3      2.190      5.369
REMARK  Name = 44259421
REMARK  6 active torsions:
REMARK  status: ('A' for Active; 'I' for Inactive)
REMARK    1  A    between atoms: O_3  and  C_24
REMARK    2  A    between atoms: O_3  and  C_30
REMARK    3  A    between atoms: O_7  and  C_27
REMARK    4  A    between atoms: O_7  and  C_31
REMARK    5  A    between atoms: C_21  and  C_28
REMARK    6  A    between atoms: C_32  and  C_33
REMARK                            x       y       z     vdW  Elec       q    Type
REMARK                         _______ _______ _______ _____ _____    ______ ____
ROOT
ATOM      1  O   UNL     1     112.170 128.324 138.308  0.00  0.00    +0.000 OA
ATOM      2  O   UNL     1     111.581 125.943 138.641  0.00  0.00    +0.000 OA
ATOM      3  O   UNL     1     111.739 126.074 140.069  0.00  0.00    +0.000 OA
ATOM      4  O   UNL     1     112.508 128.663 141.180  0.00  0.00    +0.000 OA
ATOM      5  C   UNL     1     111.793 127.054 137.769  0.00  0.00    +0.000 A 
ATOM      6  C   UNL     1     111.990 127.849 137.658  0.00  0.00    +0.000 A 
ATOM      7  C   UNL     1     111.777 126.737 138.530  0.00  0.00    +0.000 A 
ATOM      8  C   UNL     1     111.957 127.212 139.180  0.00  0.00    +0.000 A 
ATOM      9  C   UNL     1     112.153 128.005 139.069  0.00  0.00    +0.000 A 
ATOM     10  C   UNL     1     111.936 126.869 139.967  0.00  0.00    +0.000 A 
ATOM     11  C   UNL     1     112.342 128.511 139.737  0.00  0.00    +0.000 A 
ATOM     12  C   UNL     1     112.123 127.359 140.648  0.00  0.00    +0.000 A 
ATOM     13  C   UNL     1     112.327 128.186 140.532  0.00  0.00    +0.000 A 
ENDROOT
BRANCH   6  17
ATOM     14  O   UNL     1     112.052 129.119 134.613  0.00  0.00    +0.000 OA
ATOM     15  O   UNL     1     113.464 128.828 135.414  0.00  0.00    +0.000 OA
ATOM     16  C   UNL     1     111.315 128.629 135.735  0.00  0.00    +0.000 A 
ATOM     17  C   UNL     1     112.006 128.166 136.897  0.00  0.00    +0.000 A 
ATOM     18  C   UNL     1     111.299 128.311 136.496  0.00  0.00    +0.000 A 
ATOM     19  C   UNL     1     112.037 128.801 135.374  0.00  0.00    +0.000 A 
ATOM     20  C   UNL     1     112.728 128.338 136.536  0.00  0.00    +0.000 A 
ATOM     21  C   UNL     1     112.743 128.656 135.775  0.00  0.00    +0.000 A 
BRANCH  16  22
ATOM     22  O   UNL     1     110.608 128.774 135.334  0.00  0.00    +0.000 OA
BRANCH  22  31
ATOM     23  O   UNL     1     110.243 129.976 136.013  0.00  0.00    +0.000 OA
ATOM     24  O   UNL     1     107.876 129.251 136.024  0.00  0.00    +0.000 OA
ATOM     25  O   UNL     1     108.299 130.695 136.701  0.00  0.00    +0.000 OA
ATOM     26  O   UNL     1     109.031 128.291 135.340  0.00  0.00    +0.000 OA
ATOM     27  C   UNL     1     108.665 129.492 136.020  0.00  0.00    +0.000 C 
ATOM     28  C   UNL     1     108.877 130.215 136.359  0.00  0.00    +0.000 C 
ATOM     29  C   UNL     1     109.242 129.012 135.679  0.00  0.00    +0.000 C 
ATOM     30  C   UNL     1     109.665 130.456 136.355  0.00  0.00    +0.000 C 
ATOM     31  C   UNL     1     110.031 129.254 135.675  0.00  0.00    +0.000 C 
ATOM     32  C   UNL     1     109.877 131.179 136.694  0.00  0.00    +0.000 C 
ENDBRANCH  22  31
ENDBRANCH  16  22
ENDBRANCH   6  17
BRANCH   5  33
ATOM     33  O   UNL     1     111.613 126.579 137.119  0.00  0.00    +0.000 OA
BRANCH  33  42
ATOM     34  O   UNL     1     112.857 125.875 137.145  0.00  0.00    +0.000 OA
ATOM     35  O   UNL     1     111.741 123.871 136.214  0.00  0.00    +0.000 OA
ATOM     36  O   UNL     1     113.355 123.835 136.550  0.00  0.00    +0.000 OA
ATOM     37  O   UNL     1     110.870 125.243 136.498  0.00  0.00    +0.000 OA
ATOM     38  C   UNL     1     112.113 124.539 136.524  0.00  0.00    +0.000 C 
ATOM     39  C   UNL     1     112.920 124.522 136.692  0.00  0.00    +0.000 C 
ATOM     40  C   UNL     1     111.677 125.226 136.666  0.00  0.00    +0.000 C 
ATOM     41  C   UNL     1     113.292 125.189 137.002  0.00  0.00    +0.000 C 
ATOM     42  C   UNL     1     112.049 125.894 136.977  0.00  0.00    +0.000 C 
BRANCH  41  44
ATOM     43  O   UNL     1     114.618 125.664 136.760  0.00  0.00    +0.000 OA
ATOM     44  C   UNL     1     114.099 125.171 137.170  0.00  0.00    +0.000 C 
ENDBRANCH  41  44
ENDBRANCH  33  42
ENDBRANCH   5  33
TORSDOF 6
ENDMDL
MODEL 3
REMARK VINA RESULT:     -10.3      2.046      3.211
REMARK  Name = 44259421
REMARK  6 active torsions:
REMARK  status: ('A' for Active; 'I' for Inactive)
REMARK    1  A    between atoms: O_3  and  C_24
REMARK    2  A    between atoms: O_3  and  C_30
REMARK    3  A    between atoms: O_7  and  C_27
REMARK    4  A    between atoms: O_7  and  C_31
REMARK    5  A    between atoms: C_21  and  C_28
REMARK    6  A    between atoms: C_32  and  C_33
REMARK                            x       y       z     vdW  Elec       q    Type
REMARK                         _______ _______ _______ _____ _____    ______ ____
ROOT
ATOM      1  O   UNL     1     113.301 128.119 136.811  0.00  0.00    +0.000 OA
ATOM      2  O   UNL     1     112.787 130.391 137.649  0.00  0.00    +0.000 OA
ATOM      3  O   UNL     1     113.600 130.987 136.617  0.00  0.00    +0.000 OA
ATOM      4  O   UNL     1     114.957 129.250 134.700  0.00  0.00    +0.000 OA
ATOM      5  C   UNL     1     112.638 128.973 137.747  0.00  0.00    +0.000 A 
ATOM      6  C   UNL     1     112.810 128.215 137.467  0.00  0.00    +0.000 A 
ATOM      7  C   UNL     1     112.959 129.633 137.370  0.00  0.00    +0.000 A 
ATOM      8  C   UNL     1     113.450 129.537 136.714  0.00  0.00    +0.000 A 
ATOM      9  C   UNL     1     113.620 128.780 136.435  0.00  0.00    +0.000 A 
ATOM     10  C   UNL     1     113.777 130.233 136.330  0.00  0.00    +0.000 A 
ATOM     11  C   UNL     1     114.130 128.665 135.753  0.00  0.00    +0.000 A 
ATOM     12  C   UNL     1     114.288 130.138 135.647  0.00  0.00    +0.000 A 
ATOM     13  C   UNL     1     114.467 129.349 135.356  0.00  0.00    +0.000 A 
ENDROOT
BRANCH   6  17
ATOM     14  O   UNL     1     111.526 125.575 138.975  0.00  0.00    +0.000 OA
ATOM     15  O   UNL     1     113.130 125.925 139.146  0.00  0.00    +0.000 OA
ATOM     16  C   UNL     1     111.367 126.720 138.136  0.00  0.00    +0.000 A 
ATOM     17  C   UNL     1     112.490 127.555 137.844  0.00  0.00    +0.000 A 
ATOM     18  C   UNL     1     111.687 127.380 137.759  0.00  0.00    +0.000 A 
ATOM     19  C   UNL     1     111.848 126.235 138.598  0.00  0.00    +0.000 A 
ATOM     20  C   UNL     1     112.970 127.070 138.307  0.00  0.00    +0.000 A 
ATOM     21  C   UNL     1     112.649 126.410 138.684  0.00  0.00    +0.000 A 
BRANCH  16  22
ATOM     22  O   UNL     1     110.565 126.545 138.050  0.00  0.00    +0.000 OA
BRANCH  22  31
ATOM     23  O   UNL     1     110.597 125.995 136.732  0.00  0.00    +0.000 OA
ATOM     24  O   UNL     1     108.527 127.226 136.165  0.00  0.00    +0.000 OA
ATOM     25  O   UNL     1     109.250 126.265 135.036  0.00  0.00    +0.000 OA
ATOM     26  O   UNL     1     109.184 127.367 137.672  0.00  0.00    +0.000 OA
ATOM     27  C   UNL     1     109.217 126.816 136.355  0.00  0.00    +0.000 C 
ATOM     28  C   UNL     1     109.579 126.335 135.789  0.00  0.00    +0.000 C 
ATOM     29  C   UNL     1     109.545 126.886 137.108  0.00  0.00    +0.000 C 
ATOM     30  C   UNL     1     110.269 125.925 135.979  0.00  0.00    +0.000 C 
ATOM     31  C   UNL     1     110.236 126.475 137.296  0.00  0.00    +0.000 C 
ATOM     32  C   UNL     1     110.630 125.444 135.414  0.00  0.00    +0.000 C 
ENDBRANCH  22  31
ENDBRANCH  16  22
ENDBRANCH   6  17
BRANCH   5  33
ATOM     33  O   UNL     1     112.147 129.070 138.403  0.00  0.00    +0.000 OA
BRANCH  33  42
ATOM     34  O   UNL     1     113.207 129.382 139.309  0.00  0.00    +0.000 OA
ATOM     35  O   UNL     1     111.682 130.856 140.585  0.00  0.00    +0.000 OA
ATOM     36  O   UNL     1     113.249 130.676 141.066  0.00  0.00    +0.000 OA
ATOM     37  O   UNL     1     111.130 130.052 139.253  0.00  0.00    +0.000 OA
ATOM     38  C   UNL     1     112.190 130.364 140.160  0.00  0.00    +0.000 C 
ATOM     39  C   UNL     1     112.974 130.275 140.400  0.00  0.00    +0.000 C 
ATOM     40  C   UNL     1     111.914 129.962 139.493  0.00  0.00    +0.000 C 
ATOM     41  C   UNL     1     113.483 129.783 139.975  0.00  0.00    +0.000 C 
ATOM     42  C   UNL     1     112.423 129.471 139.068  0.00  0.00    +0.000 C 
BRANCH  41  44
ATOM     43  O   UNL     1     114.527 128.970 140.512  0.00  0.00    +0.000 OA
ATOM     44  C   UNL     1     114.266 129.694 140.215  0.00  0.00    +0.000 C 
ENDBRANCH  41  44
ENDBRANCH  33  42
ENDBRANCH   5  33
TORSDOF 6
ENDMDL
MODEL 4
REMARK VINA RESULT:     -10.3      1.770      2.624
REMARK  Name = 44259421
REMARK  6 active torsions:
REMARK  status: ('A' for Active; 'I' for Inactive)
REMARK    1  A    between atoms: O_3  and  C_24
REMARK    2  A    between atoms: O_3  and  C_30
REMARK    3  A    between atoms: O_7  and  C_27
REMARK    4  A    between atoms: O_7  and  C_31
REMARK    5  A    between atoms: C_21  and  C_28
REMARK    6  A    between atoms: C_32  and  C_33
REMARK                            x       y       z     vdW  Elec       q    Type
REMARK                         _______ _______ _______ _____ _____    ______ ____
ROOT
ATOM      1  O   UNL     1     112.342 128.708 136.342  0.00  0.00    +0.000 OA
ATOM      2  O   UNL     1     113.284 130.403 137.882  0.00  0.00    +0.000 OA
ATOM      3  O   UNL     1     114.454 130.550 137.050  0.00  0.00    +0.000 OA
ATOM      4  O   UNL     1     114.675 128.952 134.615  0.00  0.00    +0.000 OA
ATOM      5  C   UNL     1     112.239 129.493 137.533  0.00  0.00    +0.000 A 
ATOM      6  C   UNL     1     111.925 128.927 137.019  0.00  0.00    +0.000 A 
ATOM      7  C   UNL     1     112.970 129.838 137.368  0.00  0.00    +0.000 A 
ATOM      8  C   UNL     1     113.387 129.618 136.691  0.00  0.00    +0.000 A 
ATOM      9  C   UNL     1     113.073 129.054 136.178  0.00  0.00    +0.000 A 
ATOM     10  C   UNL     1     114.147 129.986 136.531  0.00  0.00    +0.000 A 
ATOM     11  C   UNL     1     113.497 128.817 135.470  0.00  0.00    +0.000 A 
ATOM     12  C   UNL     1     114.586 129.761 135.828  0.00  0.00    +0.000 A 
ATOM     13  C   UNL     1     114.260 129.173 135.293  0.00  0.00    +0.000 A 
ENDROOT
BRANCH   6  17
ATOM     14  O   UNL     1     109.002 127.545 137.678  0.00  0.00    +0.000 OA
ATOM     15  O   UNL     1     109.073 129.088 137.097  0.00  0.00    +0.000 OA
ATOM     16  C   UNL     1     110.428 127.465 137.639  0.00  0.00    +0.000 A 
ATOM     17  C   UNL     1     111.194 128.582 137.184  0.00  0.00    +0.000 A 
ATOM     18  C   UNL     1     111.159 127.810 137.474  0.00  0.00    +0.000 A 
ATOM     19  C   UNL     1     109.732 127.891 137.513  0.00  0.00    +0.000 A 
ATOM     20  C   UNL     1     110.499 129.008 137.058  0.00  0.00    +0.000 A 
ATOM     21  C   UNL     1     109.768 128.662 137.223  0.00  0.00    +0.000 A 
BRANCH  16  22
ATOM     22  O   UNL     1     110.393 126.693 137.930  0.00  0.00    +0.000 OA
BRANCH  22  31
ATOM     23  O   UNL     1     110.547 126.038 136.670  0.00  0.00    +0.000 OA
ATOM     24  O   UNL     1     111.883 124.261 137.758  0.00  0.00    +0.000 OA
ATOM     25  O   UNL     1     111.592 124.198 136.135  0.00  0.00    +0.000 OA
ATOM     26  O   UNL     1     111.283 125.509 138.655  0.00  0.00    +0.000 OA
ATOM     27  C   UNL     1     111.438 124.853 137.396  0.00  0.00    +0.000 C 
ATOM     28  C   UNL     1     111.292 124.822 136.584  0.00  0.00    +0.000 C 
ATOM     29  C   UNL     1     111.138 125.477 137.844  0.00  0.00    +0.000 C 
ATOM     30  C   UNL     1     110.847 125.414 136.221  0.00  0.00    +0.000 C 
ATOM     31  C   UNL     1     110.693 126.069 137.481  0.00  0.00    +0.000 C 
ATOM     32  C   UNL     1     110.702 125.382 135.409  0.00  0.00    +0.000 C 
ENDBRANCH  22  31
ENDBRANCH  16  22
ENDBRANCH   6  17
BRANCH   5  33
ATOM     33  O   UNL     1     111.822 129.712 138.210  0.00  0.00    +0.000 OA
BRANCH  33  42
ATOM     34  O   UNL     1     112.667 128.999 139.115  0.00  0.00    +0.000 OA
ATOM     35  O   UNL     1     112.241 130.705 140.857  0.00  0.00    +0.000 OA
ATOM     36  O   UNL     1     113.228 129.424 141.180  0.00  0.00    +0.000 OA
ATOM     37  O   UNL     1     111.538 130.849 139.371  0.00  0.00    +0.000 OA
ATOM     38  C   UNL     1     112.383 130.136 140.276  0.00  0.00    +0.000 C 
ATOM     39  C   UNL     1     112.877 129.495 140.437  0.00  0.00    +0.000 C 
ATOM     40  C   UNL     1     112.031 130.208 139.532  0.00  0.00    +0.000 C 
ATOM     41  C   UNL     1     113.019 128.927 139.857  0.00  0.00    +0.000 C 
ATOM     42  C   UNL     1     112.173 129.640 138.952  0.00  0.00    +0.000 C 
BRANCH  41  44
ATOM     43  O   UNL     1     113.214 127.518 139.992  0.00  0.00    +0.000 OA
ATOM     44  C   UNL     1     113.512 128.287 140.019  0.00  0.00    +0.000 C 
ENDBRANCH  41  44
ENDBRANCH  33  42
ENDBRANCH   5  33
TORSDOF 6
ENDMDL
MODEL 5
REMARK VINA RESULT:     -10.2      1.239      4.466
REMARK  Name = 44259421
REMARK  6 active torsions:
REMARK  status: ('A' for Active; 'I' for Inactive)
REMARK    1  A    between atoms: O_3  and  C_24
REMARK    2  A    between atoms: O_3  and  C_30
REMARK    3  A    between atoms: O_7  and  C_27
REMARK    4  A    between atoms: O_7  and  C_31
REMARK    5  A    between atoms: C_21  and  C_28
REMARK    6  A    between atoms: C_32  and  C_33
REMARK                            x       y       z     vdW  Elec       q    Type
REMARK                         _______ _______ _______ _____ _____    ______ ____
ROOT
ATOM      1  O   UNL     1     111.775 129.278 135.817  0.00  0.00    +0.000 OA
ATOM      2  O   UNL     1     112.753 127.525 137.267  0.00  0.00    +0.000 OA
ATOM      3  O   UNL     1     114.060 127.739 136.692  0.00  0.00    +0.000 OA
ATOM      4  O   UNL     1     114.382 129.764 134.612  0.00  0.00    +0.000 OA
ATOM      5  C   UNL     1     111.623 128.285 136.835  0.00  0.00    +0.000 A 
ATOM      6  C   UNL     1     111.297 128.870 136.351  0.00  0.00    +0.000 A 
ATOM      7  C   UNL     1     112.427 128.109 136.783  0.00  0.00    +0.000 A 
ATOM      8  C   UNL     1     112.906 128.517 136.249  0.00  0.00    +0.000 A 
ATOM      9  C   UNL     1     112.580 129.101 135.766  0.00  0.00    +0.000 A 
ATOM     10  C   UNL     1     113.742 128.324 136.205  0.00  0.00    +0.000 A 
ATOM     11  C   UNL     1     113.067 129.533 135.206  0.00  0.00    +0.000 A 
ATOM     12  C   UNL     1     114.245 128.746 135.651  0.00  0.00    +0.000 A 
ATOM     13  C   UNL     1     113.906 129.354 135.147  0.00  0.00    +0.000 A 
ENDROOT
BRANCH   6  17
ATOM     14  O   UNL     1     108.080 129.574 136.560  0.00  0.00    +0.000 OA
ATOM     15  O   UNL     1     108.646 128.666 135.304  0.00  0.00    +0.000 OA
ATOM     16  C   UNL     1     109.406 129.676 137.083  0.00  0.00    +0.000 A 
ATOM     17  C   UNL     1     110.493 129.045 136.403  0.00  0.00    +0.000 A 
ATOM     18  C   UNL     1     110.210 129.500 137.032  0.00  0.00    +0.000 A 
ATOM     19  C   UNL     1     108.884 129.398 136.507  0.00  0.00    +0.000 A 
ATOM     20  C   UNL     1     109.971 128.768 135.827  0.00  0.00    +0.000 A 
ATOM     21  C   UNL     1     109.167 128.944 135.880  0.00  0.00    +0.000 A 
BRANCH  16  22
ATOM     22  O   UNL     1     109.123 130.130 137.712  0.00  0.00    +0.000 OA
BRANCH  22  31
ATOM     23  O   UNL     1     109.500 131.416 137.219  0.00  0.00    +0.000 OA
ATOM     24  O   UNL     1     110.195 132.086 139.498  0.00  0.00    +0.000 OA
ATOM     25  O   UNL     1     110.341 133.150 138.245  0.00  0.00    +0.000 OA
ATOM     26  O   UNL     1     109.586 130.576 139.232  0.00  0.00    +0.000 OA
ATOM     27  C   UNL     1     109.963 131.863 138.739  0.00  0.00    +0.000 C 
ATOM     28  C   UNL     1     110.036 132.395 138.112  0.00  0.00    +0.000 C 
ATOM     29  C   UNL     1     109.659 131.107 138.606  0.00  0.00    +0.000 C 
ATOM     30  C   UNL     1     109.804 132.171 137.353  0.00  0.00    +0.000 C 
ATOM     31  C   UNL     1     109.427 130.885 137.845  0.00  0.00    +0.000 C 
ATOM     32  C   UNL     1     109.877 132.704 136.726  0.00  0.00    +0.000 C 
ENDBRANCH  22  31
ENDBRANCH  16  22
ENDBRANCH   6  17
BRANCH   5  33
ATOM     33  O   UNL     1     111.145 127.877 137.369  0.00  0.00    +0.000 OA
BRANCH  33  42
ATOM     34  O   UNL     1     111.123 126.653 136.633  0.00  0.00    +0.000 OA
ATOM     35  O   UNL     1     111.039 125.379 138.753  0.00  0.00    +0.000 OA
ATOM     36  O   UNL     1     111.045 124.580 137.310  0.00  0.00    +0.000 OA
ATOM     37  O   UNL     1     111.089 127.028 138.783  0.00  0.00    +0.000 OA
ATOM     38  C   UNL     1     111.067 125.804 138.046  0.00  0.00    +0.000 C 
ATOM     39  C   UNL     1     111.070 125.405 137.325  0.00  0.00    +0.000 C 
ATOM     40  C   UNL     1     111.092 126.629 138.061  0.00  0.00    +0.000 C 
ATOM     41  C   UNL     1     111.098 125.829 136.618  0.00  0.00    +0.000 C 
ATOM     42  C   UNL     1     111.120 127.054 137.354  0.00  0.00    +0.000 C 
BRANCH  41  44
ATOM     43  O   UNL     1     110.505 125.570 135.344  0.00  0.00    +0.000 OA
ATOM     44  C   UNL     1     111.101 125.429 135.897  0.00  0.00    +0.000 C 
ENDBRANCH  41  44
ENDBRANCH  33  42
ENDBRANCH   5  33
TORSDOF 6
ENDMDL
MODEL 6
REMARK VINA RESULT:     -10.2      1.493      4.545
REMARK  Name = 44259421
REMARK  6 active torsions:
REMARK  status: ('A' for Active; 'I' for Inactive)
REMARK    1  A    between atoms: O_3  and  C_24
REMARK    2  A    between atoms: O_3  and  C_30
REMARK    3  A    between atoms: O_7  and  C_27
REMARK    4  A    between atoms: O_7  and  C_31
REMARK    5  A    between atoms: C_21  and  C_28
REMARK    6  A    between atoms: C_32  and  C_33
REMARK                            x       y       z     vdW  Elec       q    Type
REMARK                         _______ _______ _______ _____ _____    ______ ____
ROOT
ATOM      1  O   UNL     1     112.175 129.541 136.943  0.00  0.00    +0.000 OA
ATOM      2  O   UNL     1     113.015 127.262 136.460  0.00  0.00    +0.000 OA
ATOM      3  O   UNL     1     114.151 127.800 135.751  0.00  0.00    +0.000 OA
ATOM      4  O   UNL     1     114.441 130.698 135.526  0.00  0.00    +0.000 OA
ATOM      5  C   UNL     1     112.038 128.122 137.050  0.00  0.00    +0.000 A 
ATOM      6  C   UNL     1     111.758 128.881 137.211  0.00  0.00    +0.000 A 
ATOM      7  C   UNL     1     112.735 128.022 136.621  0.00  0.00    +0.000 A 
ATOM      8  C   UNL     1     113.153 128.681 136.353  0.00  0.00    +0.000 A 
ATOM      9  C   UNL     1     112.873 129.440 136.514  0.00  0.00    +0.000 A 
ATOM     10  C   UNL     1     113.878 128.563 135.907  0.00  0.00    +0.000 A 
ATOM     11  C   UNL     1     113.298 130.134 136.240  0.00  0.00    +0.000 A 
ATOM     12  C   UNL     1     114.317 129.246 135.625  0.00  0.00    +0.000 A 
ATOM     13  C   UNL     1     114.026 130.037 135.793  0.00  0.00    +0.000 A 
ENDROOT
BRANCH   6  17
ATOM     14  O   UNL     1     108.966 129.280 138.925  0.00  0.00    +0.000 OA
ATOM     15  O   UNL     1     110.353 128.834 139.699  0.00  0.00    +0.000 OA
ATOM     16  C   UNL     1     109.669 129.304 137.681  0.00  0.00    +0.000 A 
ATOM     17  C   UNL     1     111.060 128.981 137.640  0.00  0.00    +0.000 A 
ATOM     18  C   UNL     1     110.366 129.204 137.252  0.00  0.00    +0.000 A 
ATOM     19  C   UNL     1     109.664 129.180 138.497  0.00  0.00    +0.000 A 
ATOM     20  C   UNL     1     111.056 128.858 138.456  0.00  0.00    +0.000 A 
ATOM     21  C   UNL     1     110.357 128.958 138.884  0.00  0.00    +0.000 A 
BRANCH  16  22
ATOM     22  O   UNL     1     108.975 129.527 137.293  0.00  0.00    +0.000 OA
BRANCH  22  31
ATOM     23  O   UNL     1     109.249 130.925 137.197  0.00  0.00    +0.000 OA
ATOM     24  O   UNL     1     108.274 130.960 134.922  0.00  0.00    +0.000 OA
ATOM     25  O   UNL     1     108.873 132.347 135.583  0.00  0.00    +0.000 OA
ATOM     26  O   UNL     1     108.325 129.549 135.777  0.00  0.00    +0.000 OA
ATOM     27  C   UNL     1     108.599 130.948 135.680  0.00  0.00    +0.000 C 
ATOM     28  C   UNL     1     108.899 131.642 136.011  0.00  0.00    +0.000 C 
ATOM     29  C   UNL     1     108.624 130.243 136.108  0.00  0.00    +0.000 C 
ATOM     30  C   UNL     1     109.223 131.630 136.769  0.00  0.00    +0.000 C 
ATOM     31  C   UNL     1     108.949 130.232 136.866  0.00  0.00    +0.000 C 
ATOM     32  C   UNL     1     109.523 132.325 137.100  0.00  0.00    +0.000 C 
ENDBRANCH  22  31
ENDBRANCH  16  22
ENDBRANCH   6  17
BRANCH   5  33
ATOM     33  O   UNL     1     111.620 127.463 137.318  0.00  0.00    +0.000 OA
BRANCH  33  42
ATOM     34  O   UNL     1     111.113 127.115 136.029  0.00  0.00    +0.000 OA
ATOM     35  O   UNL     1     111.091 124.728 136.680  0.00  0.00    +0.000 OA
ATOM     36  O   UNL     1     110.591 125.176 135.174  0.00  0.00    +0.000 OA
ATOM     37  O   UNL     1     111.606 125.871 137.753  0.00  0.00    +0.000 OA
ATOM     38  C   UNL     1     111.098 125.523 136.463  0.00  0.00    +0.000 C 
ATOM     39  C   UNL     1     110.848 125.748 135.710  0.00  0.00    +0.000 C 
ATOM     40  C   UNL     1     111.356 126.096 137.000  0.00  0.00    +0.000 C 
ATOM     41  C   UNL     1     110.855 126.544 135.493  0.00  0.00    +0.000 C 
ATOM     42  C   UNL     1     111.363 126.892 136.782  0.00  0.00    +0.000 C 
BRANCH  41  44
ATOM     43  O   UNL     1     109.947 127.257 134.651  0.00  0.00    +0.000 OA
ATOM     44  C   UNL     1     110.605 126.768 134.740  0.00  0.00    +0.000 C 
ENDBRANCH  41  44
ENDBRANCH  33  42
ENDBRANCH   5  33
TORSDOF 6
ENDMDL
MODEL 7
REMARK VINA RESULT:     -10.1      3.236      5.851
REMARK  Name = 44259421
REMARK  6 active torsions:
REMARK  status: ('A' for Active; 'I' for Inactive)
REMARK    1  A    between atoms: O_3  and  C_24
REMARK    2  A    between atoms: O_3  and  C_30
REMARK    3  A    between atoms: O_7  and  C_27
REMARK    4  A    between atoms: O_7  and  C_31
REMARK    5  A    between atoms: C_21  and  C_28
REMARK    6  A    between atoms: C_32  and  C_33
REMARK                            x       y       z     vdW  Elec       q    Type
REMARK                         _______ _______ _______ _____ _____    ______ ____
ROOT
ATOM      1  O   UNL     1     112.402 128.343 138.570  0.00  0.00    +0.000 OA
ATOM      2  O   UNL     1     113.208 127.051 136.617  0.00  0.00    +0.000 OA
ATOM      3  O   UNL     1     112.605 127.996 135.708  0.00  0.00    +0.000 OA
ATOM      4  O   UNL     1     111.161 130.290 136.796  0.00  0.00    +0.000 OA
ATOM      5  C   UNL     1     113.108 127.222 138.032  0.00  0.00    +0.000 A 
ATOM      6  C   UNL     1     112.840 127.652 138.683  0.00  0.00    +0.000 A 
ATOM      7  C   UNL     1     112.939 127.482 137.268  0.00  0.00    +0.000 A 
ATOM      8  C   UNL     1     112.502 128.173 137.154  0.00  0.00    +0.000 A 
ATOM      9  C   UNL     1     112.234 128.602 137.805  0.00  0.00    +0.000 A 
ATOM     10  C   UNL     1     112.333 128.433 136.353  0.00  0.00    +0.000 A 
ATOM     11  C   UNL     1     111.778 129.323 137.700  0.00  0.00    +0.000 A 
ATOM     12  C   UNL     1     111.878 129.151 136.229  0.00  0.00    +0.000 A 
ATOM     13  C   UNL     1     111.599 129.600 136.906  0.00  0.00    +0.000 A 
ENDROOT
BRANCH   6  17
ATOM     14  O   UNL     1     113.513 126.609 141.741  0.00  0.00    +0.000 OA
ATOM     15  O   UNL     1     114.689 127.334 140.839  0.00  0.00    +0.000 OA
ATOM     16  C   UNL     1     112.589 126.768 140.663  0.00  0.00    +0.000 A 
ATOM     17  C   UNL     1     113.009 127.392 139.448  0.00  0.00    +0.000 A 
ATOM     18  C   UNL     1     112.420 127.028 139.899  0.00  0.00    +0.000 A 
ATOM     19  C   UNL     1     113.346 126.870 140.976  0.00  0.00    +0.000 A 
ATOM     20  C   UNL     1     113.765 127.494 139.761  0.00  0.00    +0.000 A 
ATOM     21  C   UNL     1     113.933 127.232 140.525  0.00  0.00    +0.000 A 
BRANCH  16  22
ATOM     22  O   UNL     1     112.001 126.405 141.114  0.00  0.00    +0.000 OA
BRANCH  22  31
ATOM     23  O   UNL     1     111.334 127.582 141.572  0.00  0.00    +0.000 OA
ATOM     24  O   UNL     1     109.146 126.480 141.223  0.00  0.00    +0.000 OA
ATOM     25  O   UNL     1     109.209 128.025 141.798  0.00  0.00    +0.000 OA
ATOM     26  O   UNL     1     110.542 125.669 140.881  0.00  0.00    +0.000 OA
ATOM     27  C   UNL     1     109.876 126.847 141.339  0.00  0.00    +0.000 C 
ATOM     28  C   UNL     1     109.907 127.620 141.627  0.00  0.00    +0.000 C 
ATOM     29  C   UNL     1     110.574 126.442 141.168  0.00  0.00    +0.000 C 
ATOM     30  C   UNL     1     110.636 127.987 141.743  0.00  0.00    +0.000 C 
ATOM     31  C   UNL     1     111.303 126.810 141.285  0.00  0.00    +0.000 C 
ATOM     32  C   UNL     1     110.667 128.760 142.031  0.00  0.00    +0.000 C 
ENDBRANCH  22  31
ENDBRANCH  16  22
ENDBRANCH   6  17
BRANCH   5  33
ATOM     33  O   UNL     1     113.545 126.531 138.146  0.00  0.00    +0.000 OA
BRANCH  33  42
ATOM     34  O   UNL     1     112.480 125.649 137.787  0.00  0.00    +0.000 OA
ATOM     35  O   UNL     1     114.122 124.030 136.889  0.00  0.00    +0.000 OA
ATOM     36  O   UNL     1     112.510 123.688 136.830  0.00  0.00    +0.000 OA
ATOM     37  O   UNL     1     114.640 125.452 137.547  0.00  0.00    +0.000 OA
ATOM     38  C   UNL     1     113.575 124.570 137.189  0.00  0.00    +0.000 C 
ATOM     39  C   UNL     1     112.768 124.399 137.159  0.00  0.00    +0.000 C 
ATOM     40  C   UNL     1     113.834 125.281 137.518  0.00  0.00    +0.000 C 
ATOM     41  C   UNL     1     112.221 124.939 137.459  0.00  0.00    +0.000 C 
ATOM     42  C   UNL     1     113.286 125.821 137.817  0.00  0.00    +0.000 C 
BRANCH  41  44
ATOM     43  O   UNL     1     110.994 124.637 138.127  0.00  0.00    +0.000 OA
ATOM     44  C   UNL     1     111.415 124.767 137.429  0.00  0.00    +0.000 C 
ENDBRANCH  41  44
ENDBRANCH  33  42
ENDBRANCH   5  33
TORSDOF 6
ENDMDL
MODEL 8
REMARK VINA RESULT:     -10.1      1.585      2.677
REMARK  Name = 44259421
REMARK  6 active torsions:
REMARK  status: ('A' for Active; 'I' for Inactive)
REMARK    1  A    between atoms: O_3  and  C_24
REMARK    2  A    between atoms: O_3  and  C_30
REMARK    3  A    between atoms: O_7  and  C_27
REMARK    4  A    between atoms: O_7  and  C_31
REMARK    5  A    between atoms: C_21  and  C_28
REMARK    6  A    between atoms: C_32  and  C_33
REMARK                            x       y       z     vdW  Elec       q    Type
REMARK                         _______ _______ _______ _____ _____    ______ ____
ROOT
ATOM      1  O   UNL     1     113.069 128.059 136.917  0.00  0.00    +0.000 OA
ATOM      2  O   UNL     1     113.263 130.269 138.016  0.00  0.00    +0.000 OA
ATOM      3  O   UNL     1     113.998 130.796 136.892  0.00  0.00    +0.000 OA
ATOM      4  O   UNL     1     114.547 129.053 134.613  0.00  0.00    +0.000 OA
ATOM      5  C   UNL     1     112.802 128.916 138.030  0.00  0.00    +0.000 A 
ATOM      6  C   UNL     1     112.738 128.179 137.663  0.00  0.00    +0.000 A 
ATOM      7  C   UNL     1     113.198 129.532 137.649  0.00  0.00    +0.000 A 
ATOM      8  C   UNL     1     113.529 129.412 136.903  0.00  0.00    +0.000 A 
ATOM      9  C   UNL     1     113.464 128.676 136.537  0.00  0.00    +0.000 A 
ATOM     10  C   UNL     1     113.938 130.062 136.518  0.00  0.00    +0.000 A 
ATOM     11  C   UNL     1     113.804 128.538 135.761  0.00  0.00    +0.000 A 
ATOM     12  C   UNL     1     114.285 129.943 135.741  0.00  0.00    +0.000 A 
ATOM     13  C   UNL     1     114.218 129.176 135.359  0.00  0.00    +0.000 A 
ENDROOT
BRANCH   6  17
ATOM     14  O   UNL     1     111.153 125.716 139.183  0.00  0.00    +0.000 OA
ATOM     15  O   UNL     1     112.682 126.125 139.650  0.00  0.00    +0.000 OA
ATOM     16  C   UNL     1     111.182 126.743 138.190  0.00  0.00    +0.000 A 
ATOM     17  C   UNL     1     112.342 127.563 138.043  0.00  0.00    +0.000 A 
ATOM     18  C   UNL     1     111.577 127.359 137.810  0.00  0.00    +0.000 A 
ATOM     19  C   UNL     1     111.550 126.332 138.803  0.00  0.00    +0.000 A 
ATOM     20  C   UNL     1     112.711 127.152 138.657  0.00  0.00    +0.000 A 
ATOM     21  C   UNL     1     112.314 126.537 139.036  0.00  0.00    +0.000 A 
BRANCH  16  22
ATOM     22  O   UNL     1     110.417 126.538 137.957  0.00  0.00    +0.000 OA
BRANCH  22  31
ATOM     23  O   UNL     1     110.738 125.800 136.776  0.00  0.00    +0.000 OA
ATOM     24  O   UNL     1     108.850 126.876 135.590  0.00  0.00    +0.000 OA
ATOM     25  O   UNL     1     109.801 125.779 134.805  0.00  0.00    +0.000 OA
ATOM     26  O   UNL     1     109.158 127.255 137.166  0.00  0.00    +0.000 OA
ATOM     27  C   UNL     1     109.479 126.518 135.986  0.00  0.00    +0.000 C 
ATOM     28  C   UNL     1     109.955 125.969 135.593  0.00  0.00    +0.000 C 
ATOM     29  C   UNL     1     109.633 126.707 136.774  0.00  0.00    +0.000 C 
ATOM     30  C   UNL     1     110.584 125.611 135.988  0.00  0.00    +0.000 C 
ATOM     31  C   UNL     1     110.263 126.348 137.169  0.00  0.00    +0.000 C 
ATOM     32  C   UNL     1     111.059 125.062 135.595  0.00  0.00    +0.000 C 
ENDBRANCH  22  31
ENDBRANCH  16  22
ENDBRANCH   6  17
BRANCH   5  33
ATOM     33  O   UNL     1     112.472 129.036 138.776  0.00  0.00    +0.000 OA
BRANCH  33  42
ATOM     34  O   UNL     1     111.384 129.827 138.292  0.00  0.00    +0.000 OA
ATOM     35  O   UNL     1     111.338 131.072 140.431  0.00  0.00    +0.000 OA
ATOM     36  O   UNL     1     110.267 131.447 139.234  0.00  0.00    +0.000 OA
ATOM     37  O   UNL     1     112.441 129.866 140.202  0.00  0.00    +0.000 OA
ATOM     38  C   UNL     1     111.353 130.657 139.718  0.00  0.00    +0.000 C 
ATOM     39  C   UNL     1     110.818 130.844 139.119  0.00  0.00    +0.000 C 
ATOM     40  C   UNL     1     111.905 130.054 139.603  0.00  0.00    +0.000 C 
ATOM     41  C   UNL     1     110.833 130.429 138.406  0.00  0.00    +0.000 C 
ATOM     42  C   UNL     1     111.921 129.639 138.890  0.00  0.00    +0.000 C 
BRANCH  41  44
ATOM     43  O   UNL     1     109.697 130.087 137.610  0.00  0.00    +0.000 OA
ATOM     44  C   UNL     1     110.297 130.617 137.809  0.00  0.00    +0.000 C 
ENDBRANCH  41  44
ENDBRANCH  33  42
ENDBRANCH   5  33
TORSDOF 6
ENDMDL
MODEL 9
REMARK VINA RESULT:     -10.0      2.026      3.286
REMARK  Name = 44259421
REMARK  6 active torsions:
REMARK  status: ('A' for Active; 'I' for Inactive)
REMARK    1  A    between atoms: O_3  and  C_24
REMARK    2  A    between atoms: O_3  and  C_30
REMARK    3  A    between atoms: O_7  and  C_27
REMARK    4  A    between atoms: O_7  and  C_31
REMARK    5  A    between atoms: C_21  and  C_28
REMARK    6  A    between atoms: C_32  and  C_33
REMARK                            x       y       z     vdW  Elec       q    Type
REMARK                         _______ _______ _______ _____ _____    ______ ____
ROOT
ATOM      1  O   UNL     1     113.467 128.348 136.805  0.00  0.00    +0.000 OA
ATOM      2  O   UNL     1     111.408 129.240 135.758  0.00  0.00    +0.000 OA
ATOM      3  O   UNL     1     112.168 129.778 134.656  0.00  0.00    +0.000 OA
ATOM      4  O   UNL     1     115.064 129.405 134.612  0.00  0.00    +0.000 OA
ATOM      5  C   UNL     1     112.049 128.533 136.822  0.00  0.00    +0.000 A 
ATOM      6  C   UNL     1     112.736 128.235 137.171  0.00  0.00    +0.000 A 
ATOM      7  C   UNL     1     112.095 128.942 136.107  0.00  0.00    +0.000 A 
ATOM      8  C   UNL     1     112.826 129.055 135.742  0.00  0.00    +0.000 A 
ATOM      9  C   UNL     1     113.511 128.758 136.090  0.00  0.00    +0.000 A 
ATOM     10  C   UNL     1     112.859 129.484 134.997  0.00  0.00    +0.000 A 
ATOM     11  C   UNL     1     114.278 128.868 135.720  0.00  0.00    +0.000 A 
ATOM     12  C   UNL     1     113.618 129.604 134.612  0.00  0.00    +0.000 A 
ATOM     13  C   UNL     1     114.332 129.294 134.975  0.00  0.00    +0.000 A 
ENDROOT
BRANCH   6  17
ATOM     14  O   UNL     1     112.552 126.594 140.028  0.00  0.00    +0.000 OA
ATOM     15  O   UNL     1     113.069 128.161 140.008  0.00  0.00    +0.000 OA
ATOM     16  C   UNL     1     112.385 126.632 138.609  0.00  0.00    +0.000 A 
ATOM     17  C   UNL     1     112.690 127.826 137.885  0.00  0.00    +0.000 A 
ATOM     18  C   UNL     1     112.431 127.042 137.895  0.00  0.00    +0.000 A 
ATOM     19  C   UNL     1     112.598 127.005 139.314  0.00  0.00    +0.000 A 
ATOM     20  C   UNL     1     112.902 128.199 138.590  0.00  0.00    +0.000 A 
ATOM     21  C   UNL     1     112.856 127.788 139.304  0.00  0.00    +0.000 A 
BRANCH  16  22
ATOM     22  O   UNL     1     112.127 125.848 138.619  0.00  0.00    +0.000 OA
BRANCH  22  31
ATOM     23  O   UNL     1     113.228 125.232 137.949  0.00  0.00    +0.000 OA
ATOM     24  O   UNL     1     111.653 123.860 136.621  0.00  0.00    +0.000 OA
ATOM     25  O   UNL     1     113.280 123.702 136.393  0.00  0.00    +0.000 OA
ATOM     26  O   UNL     1     111.077 124.933 137.733  0.00  0.00    +0.000 OA
ATOM     27  C   UNL     1     112.177 124.318 137.064  0.00  0.00    +0.000 C 
ATOM     28  C   UNL     1     112.991 124.238 136.950  0.00  0.00    +0.000 C 
ATOM     29  C   UNL     1     111.889 124.854 137.620  0.00  0.00    +0.000 C 
ATOM     30  C   UNL     1     113.516 124.695 137.393  0.00  0.00    +0.000 C 
ATOM     31  C   UNL     1     112.415 125.311 138.062  0.00  0.00    +0.000 C 
ATOM     32  C   UNL     1     114.330 124.616 137.279  0.00  0.00    +0.000 C 
ENDBRANCH  22  31
ENDBRANCH  16  22
ENDBRANCH   6  17
BRANCH   5  33
ATOM     33  O   UNL     1     111.318 128.420 137.187  0.00  0.00    +0.000 OA
BRANCH  33  42
ATOM     34  O   UNL     1     111.211 129.775 137.630  0.00  0.00    +0.000 OA
ATOM     35  O   UNL     1     108.744 129.617 137.517  0.00  0.00    +0.000 OA
ATOM     36  O   UNL     1     109.460 131.024 137.997  0.00  0.00    +0.000 OA
ATOM     37  O   UNL     1     109.673 128.315 137.112  0.00  0.00    +0.000 OA
ATOM     38  C   UNL     1     109.567 129.670 137.555  0.00  0.00    +0.000 C 
ATOM     39  C   UNL     1     109.925 130.373 137.794  0.00  0.00    +0.000 C 
ATOM     40  C   UNL     1     110.032 129.018 137.352  0.00  0.00    +0.000 C 
ATOM     41  C   UNL     1     110.747 130.425 137.832  0.00  0.00    +0.000 C 
ATOM     42  C   UNL     1     110.854 129.071 137.390  0.00  0.00    +0.000 C 
BRANCH  41  44
ATOM     43  O   UNL     1     111.576 131.143 138.749  0.00  0.00    +0.000 OA
ATOM     44  C   UNL     1     111.105 131.128 138.072  0.00  0.00    +0.000 C 
ENDBRANCH  41  44
ENDBRANCH  33  42
ENDBRANCH   5  33
TORSDOF 6
ENDMDL
MODEL 10
REMARK VINA RESULT:     -10.0      2.078      4.126
REMARK  Name = 44259421
REMARK  6 active torsions:
REMARK  status: ('A' for Active; 'I' for Inactive)
REMARK    1  A    between atoms: O_3  and  C_24
REMARK    2  A    between atoms: O_3  and  C_30
REMARK    3  A    between atoms: O_7  and  C_27
REMARK    4  A    between atoms: O_7  and  C_31
REMARK    5  A    between atoms: C_21  and  C_28
REMARK    6  A    between atoms: C_32  and  C_33
REMARK                            x       y       z     vdW  Elec       q    Type
REMARK                         _______ _______ _______ _____ _____    ______ ____
ROOT
ATOM      1  O   UNL     1     110.778 127.989 137.070  0.00  0.00    +0.000 OA
ATOM      2  O   UNL     1     111.857 129.299 135.267  0.00  0.00    +0.000 OA
ATOM      3  O   UNL     1     110.587 129.498 134.612  0.00  0.00    +0.000 OA
ATOM      4  O   UNL     1     108.180 128.350 135.804  0.00  0.00    +0.000 OA
ATOM      5  C   UNL     1     111.953 128.553 136.482  0.00  0.00    +0.000 A 
ATOM      6  C   UNL     1     111.593 128.116 137.083  0.00  0.00    +0.000 A 
ATOM      7  C   UNL     1     111.497 128.862 135.868  0.00  0.00    +0.000 A 
ATOM      8  C   UNL     1     110.682 128.735 135.854  0.00  0.00    +0.000 A 
ATOM      9  C   UNL     1     110.323 128.299 136.455  0.00  0.00    +0.000 A 
ATOM     10  C   UNL     1     110.219 129.062 135.209  0.00  0.00    +0.000 A 
ATOM     11  C   UNL     1     109.475 128.159 136.453  0.00  0.00    +0.000 A 
ATOM     12  C   UNL     1     109.370 128.933 135.190  0.00  0.00    +0.000 A 
ATOM     13  C   UNL     1     108.995 128.479 135.815  0.00  0.00    +0.000 A 
ENDROOT
BRANCH   6  17
ATOM     14  O   UNL     1     113.419 126.878 139.538  0.00  0.00    +0.000 OA
ATOM     15  O   UNL     1     112.407 128.150 139.823  0.00  0.00    +0.000 OA
ATOM     16  C   UNL     1     113.011 126.862 138.168  0.00  0.00    +0.000 A 
ATOM     17  C   UNL     1     112.049 127.807 137.697  0.00  0.00    +0.000 A 
ATOM     18  C   UNL     1     112.555 127.171 137.554  0.00  0.00    +0.000 A 
ATOM     19  C   UNL     1     112.962 127.188 138.924  0.00  0.00    +0.000 A 
ATOM     20  C   UNL     1     112.000 128.134 138.453  0.00  0.00    +0.000 A 
ATOM     21  C   UNL     1     112.456 127.824 139.066  0.00  0.00    +0.000 A 
BRANCH  16  22
ATOM     22  O   UNL     1     113.518 126.225 138.026  0.00  0.00    +0.000 OA
BRANCH  22  31
ATOM     23  O   UNL     1     112.520 125.225 137.812  0.00  0.00    +0.000 OA
ATOM     24  O   UNL     1     113.874 124.266 135.976  0.00  0.00    +0.000 OA
ATOM     25  O   UNL     1     112.425 123.585 136.375  0.00  0.00    +0.000 OA
ATOM     26  O   UNL     1     114.421 125.586 136.802  0.00  0.00    +0.000 OA
ATOM     27  C   UNL     1     113.423 124.586 136.588  0.00  0.00    +0.000 C 
ATOM     28  C   UNL     1     112.698 124.245 136.788  0.00  0.00    +0.000 C 
ATOM     29  C   UNL     1     113.696 125.246 137.001  0.00  0.00    +0.000 C 
ATOM     30  C   UNL     1     112.247 124.565 137.399  0.00  0.00    +0.000 C 
ATOM     31  C   UNL     1     113.244 125.565 137.613  0.00  0.00    +0.000 C 
ATOM     32  C   UNL     1     111.522 124.225 137.599  0.00  0.00    +0.000 C 
ENDBRANCH  22  31
ENDBRANCH  16  22
ENDBRANCH   6  17
BRANCH   5  33
ATOM     33  O   UNL     1     112.768 128.680 136.496  0.00  0.00    +0.000 OA
BRANCH  33  42
ATOM     34  O   UNL     1     112.646 130.045 136.902  0.00  0.00    +0.000 OA
ATOM     35  O   UNL     1     114.796 130.567 135.792  0.00  0.00    +0.000 OA
ATOM     36  O   UNL     1     113.957 131.757 136.568  0.00  0.00    +0.000 OA
ATOM     37  O   UNL     1     114.201 129.029 135.755  0.00  0.00    +0.000 OA
ATOM     38  C   UNL     1     114.079 130.393 136.162  0.00  0.00    +0.000 C 
ATOM     39  C   UNL     1     113.659 130.988 136.550  0.00  0.00    +0.000 C 
ATOM     40  C   UNL     1     113.781 129.623 136.144  0.00  0.00    +0.000 C 
ATOM     41  C   UNL     1     112.943 130.814 136.920  0.00  0.00    +0.000 C 
ATOM     42  C   UNL     1     113.065 129.449 136.514  0.00  0.00    +0.000 C 
BRANCH  41  44
ATOM     43  O   UNL     1     112.361 131.341 138.114  0.00  0.00    +0.000 OA
ATOM     44  C   UNL     1     112.524 131.408 137.308  0.00  0.00    +0.000 C 
ENDBRANCH  41  44
ENDBRANCH  33  42
ENDBRANCH   5  33
TORSDOF 6
ENDMDL
