MODEL 1
REMARK VINA RESULT:      -9.6      0.000      0.000
REMARK  Name = 131833620
REMARK  4 active torsions:
REMARK  status: ('A' for Active; 'I' for Inactive)
REMARK    1  A    between atoms: S_1  and  O_3
REMARK    2  A    between atoms: O_3  and  C_14
REMARK    3  A    between atoms: C_15  and  C_19
REMARK    4  A    between atoms: C_26  and  C_28
REMARK                            x       y       z     vdW  Elec       q    Type
REMARK                         _______ _______ _______ _____ _____    ______ ____
ROOT
ATOM      1  O   UNL     1     112.383 127.323 136.007  0.00  0.00    +0.000 OA
ATOM      2  O   UNL     1     111.433 124.619 136.307  0.00  0.00    +0.000 OA
ATOM      3  O   UNL     1     109.894 126.488 134.786  0.00  0.00    +0.000 OA
ATOM      4  O   UNL     1     110.336 127.850 134.613  0.00  0.00    +0.000 OA
ATOM      5  C   UNL     1     111.893 125.963 136.150  0.00  0.00    +0.000 A 
ATOM      6  C   UNL     1     111.789 126.722 135.845  0.00  0.00    +0.000 A 
ATOM      7  C   UNL     1     111.329 125.378 136.001  0.00  0.00    +0.000 A 
ATOM      8  C   UNL     1     111.123 126.897 135.390  0.00  0.00    +0.000 A 
ATOM      9  C   UNL     1     110.663 125.553 135.546  0.00  0.00    +0.000 A 
ATOM     10  C   UNL     1     110.561 126.313 135.241  0.00  0.00    +0.000 A 
ATOM     11  C   UNL     1     111.005 127.685 135.066  0.00  0.00    +0.000 A 
ATOM     12  C   UNL     1     112.281 128.115 135.692  0.00  0.00    +0.000 A 
ATOM     13  C   UNL     1     111.588 128.297 135.218  0.00  0.00    +0.000 A 
ENDROOT
BRANCH   5  18
ATOM     14  O   UNL     1     113.265 125.577 136.237  0.00  0.00    +0.000 OA
ATOM     15  O   UNL     1     113.140 125.687 138.706  0.00  0.00    +0.000 OA
ATOM     16  O   UNL     1     114.556 125.263 137.969  0.00  0.00    +0.000 OA
ATOM     17  C   UNL     1     112.516 125.825 137.428  0.00  0.00    +0.000 C 
ATOM     18  C   UNL     1     112.557 125.788 136.605  0.00  0.00    +0.000 C 
ATOM     19  C   UNL     1     113.182 125.650 137.883  0.00  0.00    +0.000 C 
ATOM     20  C   UNL     1     113.889 125.438 137.514  0.00  0.00    +0.000 C 
ATOM     21  C   UNL     1     113.931 125.402 136.691  0.00  0.00    +0.000 C 
BRANCH  17  22
ATOM     22  O   UNL     1     111.809 126.036 137.796  0.00  0.00    +0.000 OA
BRANCH  22  23
ATOM     23  S   UNL     1     111.748 126.008 138.618  0.00  0.00    +0.000 S 
ATOM     24  O   UNL     1     111.688 125.980 139.441  0.00  0.00    +0.000 OA
ATOM     25  O   UNL     1     111.966 126.802 138.662  0.00  0.00    +0.000 OA
ATOM     26  O   UNL     1     111.530 125.213 138.576  0.00  0.00    +0.000 OA
ENDBRANCH  22  23
ENDBRANCH  17  22
ENDBRANCH   5  18
BRANCH  12  28
ATOM     27  O   UNL     1     114.539 130.445 136.294  0.00  0.00    +0.000 OA
ATOM     28  C   UNL     1     112.845 128.697 135.842  0.00  0.00    +0.000 A 
ATOM     29  C   UNL     1     112.757 129.200 136.490  0.00  0.00    +0.000 A 
ATOM     30  C   UNL     1     113.498 128.777 135.345  0.00  0.00    +0.000 A 
ATOM     31  C   UNL     1     113.322 129.783 136.641  0.00  0.00    +0.000 A 
ATOM     32  C   UNL     1     114.064 129.360 135.495  0.00  0.00    +0.000 A 
ATOM     33  C   UNL     1     113.975 129.863 136.143  0.00  0.00    +0.000 A 
ENDBRANCH  12  28
TORSDOF 4
ENDMDL
MODEL 2
REMARK VINA RESULT:      -9.6      1.289      2.715
REMARK  Name = 131833620
REMARK  4 active torsions:
REMARK  status: ('A' for Active; 'I' for Inactive)
REMARK    1  A    between atoms: S_1  and  O_3
REMARK    2  A    between atoms: O_3  and  C_14
REMARK    3  A    between atoms: C_15  and  C_19
REMARK    4  A    between atoms: C_26  and  C_28
REMARK                            x       y       z     vdW  Elec       q    Type
REMARK                         _______ _______ _______ _____ _____    ______ ____
ROOT
ATOM      1  O   UNL     1     112.537 126.671 136.680  0.00  0.00    +0.000 OA
ATOM      2  O   UNL     1     111.383 124.062 137.082  0.00  0.00    +0.000 OA
ATOM      3  O   UNL     1     114.201 124.303 136.666  0.00  0.00    +0.000 OA
ATOM      4  O   UNL     1     114.816 125.591 136.461  0.00  0.00    +0.000 OA
ATOM      5  C   UNL     1     111.968 125.350 136.882  0.00  0.00    +0.000 A 
ATOM      6  C   UNL     1     112.632 125.819 136.746  0.00  0.00    +0.000 A 
ATOM      7  C   UNL     1     112.047 124.531 136.946  0.00  0.00    +0.000 A 
ATOM      8  C   UNL     1     113.376 125.470 136.674  0.00  0.00    +0.000 A 
ATOM      9  C   UNL     1     112.792 124.182 136.874  0.00  0.00    +0.000 A 
ATOM     10  C   UNL     1     113.456 124.652 136.738  0.00  0.00    +0.000 A 
ATOM     11  C   UNL     1     114.076 125.949 136.532  0.00  0.00    +0.000 A 
ATOM     12  C   UNL     1     113.225 127.165 136.539  0.00  0.00    +0.000 A 
ATOM     13  C   UNL     1     114.000 126.802 136.464  0.00  0.00    +0.000 A 
ENDROOT
BRANCH   5  18
ATOM     14  O   UNL     1     110.786 125.880 136.278  0.00  0.00    +0.000 OA
ATOM     15  O   UNL     1     109.867 126.384 138.520  0.00  0.00    +0.000 OA
ATOM     16  O   UNL     1     108.991 126.746 137.169  0.00  0.00    +0.000 OA
ATOM     17  C   UNL     1     110.918 125.867 137.701  0.00  0.00    +0.000 C 
ATOM     18  C   UNL     1     111.224 125.699 136.953  0.00  0.00    +0.000 C 
ATOM     19  C   UNL     1     110.173 126.216 137.773  0.00  0.00    +0.000 C 
ATOM     20  C   UNL     1     109.736 126.397 137.097  0.00  0.00    +0.000 C 
ATOM     21  C   UNL     1     110.042 126.229 136.350  0.00  0.00    +0.000 C 
BRANCH  17  22
ATOM     22  O   UNL     1     111.356 125.686 138.376  0.00  0.00    +0.000 OA
BRANCH  22  23
ATOM     23  S   UNL     1     111.036 125.825 139.124  0.00  0.00    +0.000 S 
ATOM     24  O   UNL     1     110.716 125.965 139.872  0.00  0.00    +0.000 OA
ATOM     25  O   UNL     1     110.685 125.079 139.114  0.00  0.00    +0.000 OA
ATOM     26  O   UNL     1     111.386 126.573 139.135  0.00  0.00    +0.000 OA
ENDBRANCH  22  23
ENDBRANCH  17  22
ENDBRANCH   5  18
BRANCH  12  28
ATOM     27  O   UNL     1     112.895 130.439 136.284  0.00  0.00    +0.000 OA
ATOM     28  C   UNL     1     113.142 127.984 136.475  0.00  0.00    +0.000 A 
ATOM     29  C   UNL     1     112.987 128.327 135.742  0.00  0.00    +0.000 A 
ATOM     30  C   UNL     1     113.216 128.459 137.145  0.00  0.00    +0.000 A 
ATOM     31  C   UNL     1     112.904 129.146 135.678  0.00  0.00    +0.000 A 
ATOM     32  C   UNL     1     113.133 129.278 137.082  0.00  0.00    +0.000 A 
ATOM     33  C   UNL     1     112.978 129.621 136.348  0.00  0.00    +0.000 A 
ENDBRANCH  12  28
TORSDOF 4
ENDMDL
MODEL 3
REMARK VINA RESULT:      -9.5      1.374      3.389
REMARK  Name = 131833620
REMARK  4 active torsions:
REMARK  status: ('A' for Active; 'I' for Inactive)
REMARK    1  A    between atoms: S_1  and  O_3
REMARK    2  A    between atoms: O_3  and  C_14
REMARK    3  A    between atoms: C_15  and  C_19
REMARK    4  A    between atoms: C_26  and  C_28
REMARK                            x       y       z     vdW  Elec       q    Type
REMARK                         _______ _______ _______ _____ _____    ______ ____
ROOT
ATOM      1  O   UNL     1     111.775 126.090 136.631  0.00  0.00    +0.000 OA
ATOM      2  O   UNL     1     114.539 125.826 137.400  0.00  0.00    +0.000 OA
ATOM      3  O   UNL     1     113.106 123.522 136.498  0.00  0.00    +0.000 OA
ATOM      4  O   UNL     1     111.722 123.613 136.104  0.00  0.00    +0.000 OA
ATOM      5  C   UNL     1     113.168 125.943 137.016  0.00  0.00    +0.000 A 
ATOM      6  C   UNL     1     112.472 125.598 136.737  0.00  0.00    +0.000 A 
ATOM      7  C   UNL     1     113.844 125.481 137.122  0.00  0.00    +0.000 A 
ATOM      8  C   UNL     1     112.452 124.791 136.565  0.00  0.00    +0.000 A 
ATOM      9  C   UNL     1     113.823 124.674 136.949  0.00  0.00    +0.000 A 
ATOM     10  C   UNL     1     113.127 124.330 136.671  0.00  0.00    +0.000 A 
ATOM     11  C   UNL     1     111.733 124.421 136.274  0.00  0.00    +0.000 A 
ATOM     12  C   UNL     1     111.048 125.736 136.341  0.00  0.00    +0.000 A 
ATOM     13  C   UNL     1     111.026 124.897 136.162  0.00  0.00    +0.000 A 
ENDROOT
BRANCH   5  18
ATOM     14  O   UNL     1     113.309 127.297 136.584  0.00  0.00    +0.000 OA
ATOM     15  O   UNL     1     113.009 128.072 138.914  0.00  0.00    +0.000 OA
ATOM     16  O   UNL     1     113.251 129.169 137.705  0.00  0.00    +0.000 OA
ATOM     17  C   UNL     1     113.088 127.007 137.966  0.00  0.00    +0.000 C 
ATOM     18  C   UNL     1     113.189 126.749 137.188  0.00  0.00    +0.000 C 
ATOM     19  C   UNL     1     113.109 127.814 138.138  0.00  0.00    +0.000 C 
ATOM     20  C   UNL     1     113.230 128.362 137.533  0.00  0.00    +0.000 C 
ATOM     21  C   UNL     1     113.330 128.104 136.756  0.00  0.00    +0.000 C 
BRANCH  17  22
ATOM     22  O   UNL     1     112.968 126.459 138.570  0.00  0.00    +0.000 OA
BRANCH  22  23
ATOM     23  S   UNL     1     112.903 126.715 139.351  0.00  0.00    +0.000 S 
ATOM     24  O   UNL     1     112.838 126.972 140.133  0.00  0.00    +0.000 OA
ATOM     25  O   UNL     1     112.083 126.760 139.268  0.00  0.00    +0.000 OA
ATOM     26  O   UNL     1     113.723 126.671 139.435  0.00  0.00    +0.000 OA
ENDBRANCH  22  23
ENDBRANCH  17  22
ENDBRANCH   5  18
BRANCH  12  28
ATOM     27  O   UNL     1     108.352 127.594 135.920  0.00  0.00    +0.000 OA
ATOM     28  C   UNL     1     110.374 126.201 136.236  0.00  0.00    +0.000 A 
ATOM     29  C   UNL     1     109.863 126.336 136.869  0.00  0.00    +0.000 A 
ATOM     30  C   UNL     1     110.211 126.530 135.497  0.00  0.00    +0.000 A 
ATOM     31  C   UNL     1     109.189 126.800 136.764  0.00  0.00    +0.000 A 
ATOM     32  C   UNL     1     109.537 126.995 135.391  0.00  0.00    +0.000 A 
ATOM     33  C   UNL     1     109.026 127.130 136.025  0.00  0.00    +0.000 A 
ENDBRANCH  12  28
TORSDOF 4
ENDMDL
MODEL 4
REMARK VINA RESULT:      -9.5      1.334      3.424
REMARK  Name = 131833620
REMARK  4 active torsions:
REMARK  status: ('A' for Active; 'I' for Inactive)
REMARK    1  A    between atoms: S_1  and  O_3
REMARK    2  A    between atoms: O_3  and  C_14
REMARK    3  A    between atoms: C_15  and  C_19
REMARK    4  A    between atoms: C_26  and  C_28
REMARK                            x       y       z     vdW  Elec       q    Type
REMARK                         _______ _______ _______ _____ _____    ______ ____
ROOT
ATOM      1  O   UNL     1     112.171 126.729 136.061  0.00  0.00    +0.000 OA
ATOM      2  O   UNL     1     110.536 128.608 134.612  0.00  0.00    +0.000 OA
ATOM      3  O   UNL     1     109.758 125.859 134.719  0.00  0.00    +0.000 OA
ATOM      4  O   UNL     1     110.550 124.888 135.434  0.00  0.00    +0.000 OA
ATOM      5  C   UNL     1     111.338 127.666 135.327  0.00  0.00    +0.000 A 
ATOM      6  C   UNL     1     111.475 126.894 135.583  0.00  0.00    +0.000 A 
ATOM      7  C   UNL     1     110.673 127.836 134.868  0.00  0.00    +0.000 A 
ATOM      8  C   UNL     1     110.949 126.291 135.380  0.00  0.00    +0.000 A 
ATOM      9  C   UNL     1     110.147 127.234 134.665  0.00  0.00    +0.000 A 
ATOM     10  C   UNL     1     110.285 126.462 134.922  0.00  0.00    +0.000 A 
ATOM     11  C   UNL     1     111.082 125.483 135.641  0.00  0.00    +0.000 A 
ATOM     12  C   UNL     1     112.319 125.927 136.331  0.00  0.00    +0.000 A 
ATOM     13  C   UNL     1     111.771 125.300 136.120  0.00  0.00    +0.000 A 
ENDROOT
BRANCH   5  18
ATOM     14  O   UNL     1     112.549 128.384 135.085  0.00  0.00    +0.000 OA
ATOM     15  O   UNL     1     112.073 129.840 137.028  0.00  0.00    +0.000 OA
ATOM     16  O   UNL     1     113.444 130.074 136.138  0.00  0.00    +0.000 OA
ATOM     17  C   UNL     1     111.705 128.753 136.178  0.00  0.00    +0.000 C 
ATOM     18  C   UNL     1     111.864 128.267 135.530  0.00  0.00    +0.000 C 
ATOM     19  C   UNL     1     112.232 129.355 136.381  0.00  0.00    +0.000 C 
ATOM     20  C   UNL     1     112.917 129.471 135.935  0.00  0.00    +0.000 C 
ATOM     21  C   UNL     1     113.075 128.986 135.288  0.00  0.00    +0.000 C 
BRANCH  17  22
ATOM     22  O   UNL     1     111.021 128.636 136.623  0.00  0.00    +0.000 OA
BRANCH  22  23
ATOM     23  S   UNL     1     110.846 129.143 137.250  0.00  0.00    +0.000 S 
ATOM     24  O   UNL     1     110.671 129.650 137.878  0.00  0.00    +0.000 OA
ATOM     25  O   UNL     1     111.234 128.633 137.770  0.00  0.00    +0.000 OA
ATOM     26  O   UNL     1     110.457 129.653 136.731  0.00  0.00    +0.000 OA
ENDBRANCH  22  23
ENDBRANCH  17  22
ENDBRANCH   5  18
BRANCH  12  28
ATOM     27  O   UNL     1     114.980 125.258 138.166  0.00  0.00    +0.000 OA
ATOM     28  C   UNL     1     112.984 125.760 136.790  0.00  0.00    +0.000 A 
ATOM     29  C   UNL     1     112.947 125.826 137.611  0.00  0.00    +0.000 A 
ATOM     30  C   UNL     1     113.688 125.526 136.427  0.00  0.00    +0.000 A 
ATOM     31  C   UNL     1     113.612 125.658 138.069  0.00  0.00    +0.000 A 
ATOM     32  C   UNL     1     114.353 125.359 136.885  0.00  0.00    +0.000 A 
ATOM     33  C   UNL     1     114.315 125.425 137.707  0.00  0.00    +0.000 A 
ENDBRANCH  12  28
TORSDOF 4
ENDMDL
MODEL 5
REMARK VINA RESULT:      -9.4     11.336     13.218
REMARK  Name = 131833620
REMARK  4 active torsions:
REMARK  status: ('A' for Active; 'I' for Inactive)
REMARK    1  A    between atoms: S_1  and  O_3
REMARK    2  A    between atoms: O_3  and  C_14
REMARK    3  A    between atoms: C_15  and  C_19
REMARK    4  A    between atoms: C_26  and  C_28
REMARK                            x       y       z     vdW  Elec       q    Type
REMARK                         _______ _______ _______ _____ _____    ______ ____
ROOT
ATOM      1  O   UNL     1     105.007 124.834 147.165  0.00  0.00    +0.000 OA
ATOM      2  O   UNL     1     107.776 125.356 146.564  0.00  0.00    +0.000 OA
ATOM      3  O   UNL     1     106.997 124.839 149.266  0.00  0.00    +0.000 OA
ATOM      4  O   UNL     1     105.622 124.573 149.607  0.00  0.00    +0.000 OA
ATOM      5  C   UNL     1     106.406 125.096 146.875  0.00  0.00    +0.000 A 
ATOM      6  C   UNL     1     105.820 124.923 147.430  0.00  0.00    +0.000 A 
ATOM      7  C   UNL     1     107.190 125.183 147.118  0.00  0.00    +0.000 A 
ATOM      8  C   UNL     1     106.017 124.837 148.226  0.00  0.00    +0.000 A 
ATOM      9  C   UNL     1     107.387 125.098 147.915  0.00  0.00    +0.000 A 
ATOM     10  C   UNL     1     106.800 124.925 148.468  0.00  0.00    +0.000 A 
ATOM     11  C   UNL     1     105.415 124.657 148.813  0.00  0.00    +0.000 A 
ATOM     12  C   UNL     1     104.392 124.654 147.737  0.00  0.00    +0.000 A 
ATOM     13  C   UNL     1     104.597 124.565 148.566  0.00  0.00    +0.000 A 
ENDROOT
BRANCH   5  18
ATOM     14  O   UNL     1     106.137 124.516 145.598  0.00  0.00    +0.000 OA
ATOM     15  O   UNL     1     105.761 126.771 144.653  0.00  0.00    +0.000 OA
ATOM     16  O   UNL     1     105.617 125.439 143.689  0.00  0.00    +0.000 OA
ATOM     17  C   UNL     1     106.083 125.934 145.764  0.00  0.00    +0.000 C 
ATOM     18  C   UNL     1     106.209 125.182 146.080  0.00  0.00    +0.000 C 
ATOM     19  C   UNL     1     105.886 126.020 144.967  0.00  0.00    +0.000 C 
ATOM     20  C   UNL     1     105.814 125.353 144.487  0.00  0.00    +0.000 C 
ATOM     21  C   UNL     1     105.939 124.601 144.802  0.00  0.00    +0.000 C 
BRANCH  17  22
ATOM     22  O   UNL     1     106.155 126.600 146.246  0.00  0.00    +0.000 OA
BRANCH  22  23
ATOM     23  S   UNL     1     106.075 127.354 145.920  0.00  0.00    +0.000 S 
ATOM     24  O   UNL     1     105.994 128.108 145.594  0.00  0.00    +0.000 OA
ATOM     25  O   UNL     1     105.272 127.349 146.108  0.00  0.00    +0.000 OA
ATOM     26  O   UNL     1     106.878 127.359 145.731  0.00  0.00    +0.000 OA
ENDBRANCH  22  23
ENDBRANCH  17  22
ENDBRANCH   5  18
BRANCH  12  28
ATOM     27  O   UNL     1     101.260 124.308 146.755  0.00  0.00    +0.000 OA
ATOM     28  C   UNL     1     103.609 124.568 147.491  0.00  0.00    +0.000 A 
ATOM     29  C   UNL     1     103.363 123.865 147.137  0.00  0.00    +0.000 A 
ATOM     30  C   UNL     1     103.072 125.184 147.601  0.00  0.00    +0.000 A 
ATOM     31  C   UNL     1     102.580 123.778 146.891  0.00  0.00    +0.000 A 
ATOM     32  C   UNL     1     102.288 125.098 147.355  0.00  0.00    +0.000 A 
ATOM     33  C   UNL     1     102.042 124.395 147.001  0.00  0.00    +0.000 A 
ENDBRANCH  12  28
TORSDOF 4
ENDMDL
MODEL 6
REMARK VINA RESULT:      -9.3      2.309      3.798
REMARK  Name = 131833620
REMARK  4 active torsions:
REMARK  status: ('A' for Active; 'I' for Inactive)
REMARK    1  A    between atoms: S_1  and  O_3
REMARK    2  A    between atoms: O_3  and  C_14
REMARK    3  A    between atoms: C_15  and  C_19
REMARK    4  A    between atoms: C_26  and  C_28
REMARK                            x       y       z     vdW  Elec       q    Type
REMARK                         _______ _______ _______ _____ _____    ______ ____
ROOT
ATOM      1  O   UNL     1     112.673 126.080 138.521  0.00  0.00    +0.000 OA
ATOM      2  O   UNL     1     111.179 124.385 136.733  0.00  0.00    +0.000 OA
ATOM      3  O   UNL     1     114.036 124.277 136.713  0.00  0.00    +0.000 OA
ATOM      4  O   UNL     1     114.819 125.109 137.592  0.00  0.00    +0.000 OA
ATOM      5  C   UNL     1     111.932 125.220 137.615  0.00  0.00    +0.000 A 
ATOM      6  C   UNL     1     112.659 125.480 137.905  0.00  0.00    +0.000 A 
ATOM      7  C   UNL     1     111.906 124.645 137.023  0.00  0.00    +0.000 A 
ATOM      8  C   UNL     1     113.360 125.166 137.605  0.00  0.00    +0.000 A 
ATOM      9  C   UNL     1     112.607 124.331 136.723  0.00  0.00    +0.000 A 
ATOM     10  C   UNL     1     113.334 124.592 137.014  0.00  0.00    +0.000 A 
ATOM     11  C   UNL     1     114.123 125.430 137.899  0.00  0.00    +0.000 A 
ATOM     12  C   UNL     1     113.426 126.355 138.828  0.00  0.00    +0.000 A 
ATOM     13  C   UNL     1     114.156 126.028 138.515  0.00  0.00    +0.000 A 
ENDROOT
BRANCH   5  18
ATOM     14  O   UNL     1     110.917 125.243 138.620  0.00  0.00    +0.000 OA
ATOM     15  O   UNL     1     109.756 127.061 137.407  0.00  0.00    +0.000 OA
ATOM     16  O   UNL     1     109.127 126.477 138.818  0.00  0.00    +0.000 OA
ATOM     17  C   UNL     1     110.844 126.141 137.511  0.00  0.00    +0.000 C 
ATOM     18  C   UNL     1     111.231 125.534 137.915  0.00  0.00    +0.000 C 
ATOM     19  C   UNL     1     110.143 126.455 137.812  0.00  0.00    +0.000 C 
ATOM     20  C   UNL     1     109.829 126.163 138.517  0.00  0.00    +0.000 C 
ATOM     21  C   UNL     1     110.216 125.557 138.921  0.00  0.00    +0.000 C 
BRANCH  17  22
ATOM     22  O   UNL     1     111.158 126.432 136.806  0.00  0.00    +0.000 OA
BRANCH  22  23
ATOM     23  S   UNL     1     110.761 127.026 136.393  0.00  0.00    +0.000 S 
ATOM     24  O   UNL     1     110.365 127.621 135.980  0.00  0.00    +0.000 OA
ATOM     25  O   UNL     1     111.200 127.598 136.795  0.00  0.00    +0.000 OA
ATOM     26  O   UNL     1     110.322 126.455 135.991  0.00  0.00    +0.000 OA
ENDBRANCH  22  23
ENDBRANCH  17  22
ENDBRANCH   5  18
BRANCH  12  28
ATOM     27  O   UNL     1     113.518 128.654 141.194  0.00  0.00    +0.000 OA
ATOM     28  C   UNL     1     113.449 126.930 139.419  0.00  0.00    +0.000 A 
ATOM     29  C   UNL     1     113.425 127.729 139.219  0.00  0.00    +0.000 A 
ATOM     30  C   UNL     1     113.496 126.705 140.212  0.00  0.00    +0.000 A 
ATOM     31  C   UNL     1     113.448 128.304 139.811  0.00  0.00    +0.000 A 
ATOM     32  C   UNL     1     113.519 127.279 140.804  0.00  0.00    +0.000 A 
ATOM     33  C   UNL     1     113.495 128.079 140.603  0.00  0.00    +0.000 A 
ENDBRANCH  12  28
TORSDOF 4
ENDMDL
MODEL 7
REMARK VINA RESULT:      -9.3      2.061      4.195
REMARK  Name = 131833620
REMARK  4 active torsions:
REMARK  status: ('A' for Active; 'I' for Inactive)
REMARK    1  A    between atoms: S_1  and  O_3
REMARK    2  A    between atoms: O_3  and  C_14
REMARK    3  A    between atoms: C_15  and  C_19
REMARK    4  A    between atoms: C_26  and  C_28
REMARK                            x       y       z     vdW  Elec       q    Type
REMARK                         _______ _______ _______ _____ _____    ______ ____
ROOT
ATOM      1  O   UNL     1     110.397 127.975 135.703  0.00  0.00    +0.000 OA
ATOM      2  O   UNL     1     110.570 130.840 135.454  0.00  0.00    +0.000 OA
ATOM      3  O   UNL     1     108.005 129.604 135.712  0.00  0.00    +0.000 OA
ATOM      4  O   UNL     1     107.877 128.173 135.839  0.00  0.00    +0.000 OA
ATOM      5  C   UNL     1     110.471 129.420 135.578  0.00  0.00    +0.000 A 
ATOM      6  C   UNL     1     110.010 128.741 135.662  0.00  0.00    +0.000 A 
ATOM      7  C   UNL     1     110.109 130.161 135.538  0.00  0.00    +0.000 A 
ATOM      8  C   UNL     1     109.188 128.803 135.707  0.00  0.00    +0.000 A 
ATOM      9  C   UNL     1     109.288 130.223 135.583  0.00  0.00    +0.000 A 
ATOM     10  C   UNL     1     108.828 129.543 135.667  0.00  0.00    +0.000 A 
ATOM     11  C   UNL     1     108.698 128.102 135.795  0.00  0.00    +0.000 A 
ATOM     12  C   UNL     1     109.923 127.264 135.791  0.00  0.00    +0.000 A 
ATOM     13  C   UNL     1     109.068 127.328 135.837  0.00  0.00    +0.000 A 
ENDROOT
BRANCH   5  18
ATOM     14  O   UNL     1     111.654 129.182 134.814  0.00  0.00    +0.000 OA
ATOM     15  O   UNL     1     113.032 129.528 136.839  0.00  0.00    +0.000 OA
ATOM     16  O   UNL     1     113.757 129.174 135.399  0.00  0.00    +0.000 OA
ATOM     17  C   UNL     1     111.751 129.474 136.209  0.00  0.00    +0.000 C 
ATOM     18  C   UNL     1     111.291 129.359 135.533  0.00  0.00    +0.000 C 
ATOM     19  C   UNL     1     112.573 129.413 136.164  0.00  0.00    +0.000 C 
ATOM     20  C   UNL     1     112.934 129.236 135.444  0.00  0.00    +0.000 C 
ATOM     21  C   UNL     1     112.475 129.120 134.769  0.00  0.00    +0.000 C 
BRANCH  17  22
ATOM     22  O   UNL     1     111.389 129.651 136.929  0.00  0.00    +0.000 OA
BRANCH  22  23
ATOM     23  S   UNL     1     111.850 129.797 137.597  0.00  0.00    +0.000 S 
ATOM     24  O   UNL     1     112.312 129.944 138.265  0.00  0.00    +0.000 OA
ATOM     25  O   UNL     1     111.896 130.594 137.391  0.00  0.00    +0.000 OA
ATOM     26  O   UNL     1     111.805 128.999 137.803  0.00  0.00    +0.000 OA
ENDBRANCH  22  23
ENDBRANCH  17  22
ENDBRANCH   5  18
BRANCH  12  28
ATOM     27  O   UNL     1     111.378 124.306 135.950  0.00  0.00    +0.000 OA
ATOM     28  C   UNL     1     110.287 126.525 135.830  0.00  0.00    +0.000 A 
ATOM     29  C   UNL     1     110.411 126.088 135.142  0.00  0.00    +0.000 A 
ATOM     30  C   UNL     1     110.527 126.222 136.559  0.00  0.00    +0.000 A 
ATOM     31  C   UNL     1     110.774 125.348 135.182  0.00  0.00    +0.000 A 
ATOM     32  C   UNL     1     110.891 125.482 136.600  0.00  0.00    +0.000 A 
ATOM     33  C   UNL     1     111.015 125.045 135.911  0.00  0.00    +0.000 A 
ENDBRANCH  12  28
TORSDOF 4
ENDMDL
MODEL 8
REMARK VINA RESULT:      -9.2      2.079      3.195
REMARK  Name = 131833620
REMARK  4 active torsions:
REMARK  status: ('A' for Active; 'I' for Inactive)
REMARK    1  A    between atoms: S_1  and  O_3
REMARK    2  A    between atoms: O_3  and  C_14
REMARK    3  A    between atoms: C_15  and  C_19
REMARK    4  A    between atoms: C_26  and  C_28
REMARK                            x       y       z     vdW  Elec       q    Type
REMARK                         _______ _______ _______ _____ _____    ______ ____
ROOT
ATOM      1  O   UNL     1     111.583 126.135 137.044  0.00  0.00    +0.000 OA
ATOM      2  O   UNL     1     109.254 127.710 137.669  0.00  0.00    +0.000 OA
ATOM      3  O   UNL     1     109.272 126.107 135.302  0.00  0.00    +0.000 OA
ATOM      4  O   UNL     1     110.419 125.305 134.955  0.00  0.00    +0.000 OA
ATOM      5  C   UNL     1     110.403 126.924 137.348  0.00  0.00    +0.000 A 
ATOM      6  C   UNL     1     110.788 126.395 136.846  0.00  0.00    +0.000 A 
ATOM      7  C   UNL     1     109.639 127.181 137.168  0.00  0.00    +0.000 A 
ATOM      8  C   UNL     1     110.411 126.123 136.164  0.00  0.00    +0.000 A 
ATOM      9  C   UNL     1     109.262 126.909 136.486  0.00  0.00    +0.000 A 
ATOM     10  C   UNL     1     109.649 126.380 135.985  0.00  0.00    +0.000 A 
ATOM     11  C   UNL     1     110.804 125.572 135.634  0.00  0.00    +0.000 A 
ATOM     12  C   UNL     1     111.990 125.584 136.526  0.00  0.00    +0.000 A 
ATOM     13  C   UNL     1     111.598 125.301 135.816  0.00  0.00    +0.000 A 
ENDROOT
BRANCH   5  18
ATOM     14  O   UNL     1     111.299 127.835 137.986  0.00  0.00    +0.000 OA
ATOM     15  O   UNL     1     110.871 126.734 140.160  0.00  0.00    +0.000 OA
ATOM     16  O   UNL     1     111.910 128.013 140.074  0.00  0.00    +0.000 OA
ATOM     17  C   UNL     1     110.636 126.829 138.754  0.00  0.00    +0.000 C 
ATOM     18  C   UNL     1     110.779 127.196 138.029  0.00  0.00    +0.000 C 
ATOM     19  C   UNL     1     111.013 127.101 139.436  0.00  0.00    +0.000 C 
ATOM     20  C   UNL     1     111.533 127.740 139.392  0.00  0.00    +0.000 C 
ATOM     21  C   UNL     1     111.676 128.107 138.667  0.00  0.00    +0.000 C 
BRANCH  17  22
ATOM     22  O   UNL     1     110.117 126.189 138.797  0.00  0.00    +0.000 OA
BRANCH  22  23
ATOM     23  S   UNL     1     109.957 125.837 139.525  0.00  0.00    +0.000 S 
ATOM     24  O   UNL     1     109.796 125.485 140.255  0.00  0.00    +0.000 OA
ATOM     25  O   UNL     1     109.335 126.366 139.644  0.00  0.00    +0.000 OA
ATOM     26  O   UNL     1     110.578 125.307 139.407  0.00  0.00    +0.000 OA
ENDBRANCH  22  23
ENDBRANCH  17  22
ENDBRANCH   5  18
BRANCH  12  28
ATOM     27  O   UNL     1     115.043 124.564 137.255  0.00  0.00    +0.000 OA
ATOM     28  C   UNL     1     112.753 125.329 136.708  0.00  0.00    +0.000 A 
ATOM     29  C   UNL     1     112.868 124.599 137.075  0.00  0.00    +0.000 A 
ATOM     30  C   UNL     1     113.402 125.803 136.523  0.00  0.00    +0.000 A 
ATOM     31  C   UNL     1     113.631 124.344 137.257  0.00  0.00    +0.000 A 
ATOM     32  C   UNL     1     114.166 125.549 136.705  0.00  0.00    +0.000 A 
ATOM     33  C   UNL     1     114.280 124.819 137.072  0.00  0.00    +0.000 A 
ENDBRANCH  12  28
TORSDOF 4
ENDMDL
MODEL 9
REMARK VINA RESULT:      -9.2      1.767      3.862
REMARK  Name = 131833620
REMARK  4 active torsions:
REMARK  status: ('A' for Active; 'I' for Inactive)
REMARK    1  A    between atoms: S_1  and  O_3
REMARK    2  A    between atoms: O_3  and  C_14
REMARK    3  A    between atoms: C_15  and  C_19
REMARK    4  A    between atoms: C_26  and  C_28
REMARK                            x       y       z     vdW  Elec       q    Type
REMARK                         _______ _______ _______ _____ _____    ______ ____
ROOT
ATOM      1  O   UNL     1     112.239 126.224 137.219  0.00  0.00    +0.000 OA
ATOM      2  O   UNL     1     113.773 126.969 139.541  0.00  0.00    +0.000 OA
ATOM      3  O   UNL     1     114.780 124.956 137.778  0.00  0.00    +0.000 OA
ATOM      4  O   UNL     1     114.042 124.556 136.605  0.00  0.00    +0.000 OA
ATOM      5  C   UNL     1     113.022 126.590 138.386  0.00  0.00    +0.000 A 
ATOM      6  C   UNL     1     112.940 126.129 137.707  0.00  0.00    +0.000 A 
ATOM      7  C   UNL     1     113.691 126.507 138.862  0.00  0.00    +0.000 A 
ATOM      8  C   UNL     1     113.526 125.584 137.505  0.00  0.00    +0.000 A 
ATOM      9  C   UNL     1     114.277 125.962 138.660  0.00  0.00    +0.000 A 
ATOM     10  C   UNL     1     114.193 125.501 137.981  0.00  0.00    +0.000 A 
ATOM     11  C   UNL     1     113.451 125.098 136.800  0.00  0.00    +0.000 A 
ATOM     12  C   UNL     1     112.147 125.747 136.511  0.00  0.00    +0.000 A 
ATOM     13  C   UNL     1     112.757 125.180 136.300  0.00  0.00    +0.000 A 
ENDROOT
BRANCH   5  18
ATOM     14  O   UNL     1     112.431 127.883 138.241  0.00  0.00    +0.000 OA
ATOM     15  O   UNL     1     110.690 127.271 139.889  0.00  0.00    +0.000 OA
ATOM     16  O   UNL     1     110.679 128.768 139.196  0.00  0.00    +0.000 OA
ATOM     17  C   UNL     1     111.856 126.930 139.138  0.00  0.00    +0.000 C 
ATOM     18  C   UNL     1     112.437 127.134 138.588  0.00  0.00    +0.000 C 
ATOM     19  C   UNL     1     111.270 127.475 139.340  0.00  0.00    +0.000 C 
ATOM     20  C   UNL     1     111.265 128.223 138.993  0.00  0.00    +0.000 C 
ATOM     21  C   UNL     1     111.846 128.427 138.444  0.00  0.00    +0.000 C 
BRANCH  17  22
ATOM     22  O   UNL     1     111.861 126.182 139.484  0.00  0.00    +0.000 OA
BRANCH  22  23
ATOM     23  S   UNL     1     111.298 125.988 140.055  0.00  0.00    +0.000 S 
ATOM     24  O   UNL     1     110.733 125.794 140.625  0.00  0.00    +0.000 OA
ATOM     25  O   UNL     1     110.812 125.672 139.467  0.00  0.00    +0.000 OA
ATOM     26  O   UNL     1     111.782 126.304 140.643  0.00  0.00    +0.000 OA
ENDBRANCH  22  23
ENDBRANCH  17  22
ENDBRANCH   5  18
BRANCH  12  28
ATOM     27  O   UNL     1     109.469 126.087 134.612  0.00  0.00    +0.000 OA
ATOM     28  C   UNL     1     111.478 125.832 136.036  0.00  0.00    +0.000 A 
ATOM     29  C   UNL     1     111.449 126.426 135.465  0.00  0.00    +0.000 A 
ATOM     30  C   UNL     1     110.836 125.323 136.133  0.00  0.00    +0.000 A 
ATOM     31  C   UNL     1     110.780 126.511 134.990  0.00  0.00    +0.000 A 
ATOM     32  C   UNL     1     110.166 125.407 135.659  0.00  0.00    +0.000 A 
ATOM     33  C   UNL     1     110.138 126.002 135.087  0.00  0.00    +0.000 A 
ENDBRANCH  12  28
TORSDOF 4
ENDMDL
MODEL 10
REMARK VINA RESULT:      -9.2      2.099      4.114
REMARK  Name = 131833620
REMARK  4 active torsions:
REMARK  status: ('A' for Active; 'I' for Inactive)
REMARK    1  A    between atoms: S_1  and  O_3
REMARK    2  A    between atoms: O_3  and  C_14
REMARK    3  A    between atoms: C_15  and  C_19
REMARK    4  A    between atoms: C_26  and  C_28
REMARK                            x       y       z     vdW  Elec       q    Type
REMARK                         _______ _______ _______ _____ _____    ______ ____
ROOT
ATOM      1  O   UNL     1     112.781 126.863 137.931  0.00  0.00    +0.000 OA
ATOM      2  O   UNL     1     112.577 129.230 139.562  0.00  0.00    +0.000 OA
ATOM      3  O   UNL     1     113.515 129.454 136.870  0.00  0.00    +0.000 OA
ATOM      4  O   UNL     1     113.631 128.293 136.023  0.00  0.00    +0.000 OA
ATOM      5  C   UNL     1     112.683 128.064 138.742  0.00  0.00    +0.000 A 
ATOM      6  C   UNL     1     112.875 127.713 138.021  0.00  0.00    +0.000 A 
ATOM      7  C   UNL     1     112.769 128.879 138.840  0.00  0.00    +0.000 A 
ATOM      8  C   UNL     1     113.152 128.177 137.397  0.00  0.00    +0.000 A 
ATOM      9  C   UNL     1     113.046 129.343 138.216  0.00  0.00    +0.000 A 
ATOM     10  C   UNL     1     113.238 128.991 137.495  0.00  0.00    +0.000 A 
ATOM     11  C   UNL     1     113.355 127.822 136.641  0.00  0.00    +0.000 A 
ATOM     12  C   UNL     1     112.979 126.492 137.182  0.00  0.00    +0.000 A 
ATOM     13  C   UNL     1     113.267 126.974 136.533  0.00  0.00    +0.000 A 
ENDROOT
BRANCH   5  18
ATOM     14  O   UNL     1     111.608 127.395 139.404  0.00  0.00    +0.000 OA
ATOM     15  O   UNL     1     113.170 126.623 141.161  0.00  0.00    +0.000 OA
ATOM     16  O   UNL     1     111.574 126.211 141.237  0.00  0.00    +0.000 OA
ATOM     17  C   UNL     1     112.927 127.344 139.952  0.00  0.00    +0.000 C 
ATOM     18  C   UNL     1     112.406 127.601 139.365  0.00  0.00    +0.000 C 
ATOM     19  C   UNL     1     112.650 126.880 140.576  0.00  0.00    +0.000 C 
ATOM     20  C   UNL     1     111.851 126.675 140.613  0.00  0.00    +0.000 C 
ATOM     21  C   UNL     1     111.331 126.932 140.028  0.00  0.00    +0.000 C 
BRANCH  17  22
ATOM     22  O   UNL     1     113.725 127.550 139.914  0.00  0.00    +0.000 OA
BRANCH  22  23
ATOM     23  S   UNL     1     114.240 127.311 140.512  0.00  0.00    +0.000 S 
ATOM     24  O   UNL     1     114.757 127.072 141.110  0.00  0.00    +0.000 OA
ATOM     25  O   UNL     1     114.414 126.625 140.088  0.00  0.00    +0.000 OA
ATOM     26  O   UNL     1     114.067 127.997 140.936  0.00  0.00    +0.000 OA
ENDBRANCH  22  23
ENDBRANCH  17  22
ENDBRANCH   5  18
BRANCH  12  28
ATOM     27  O   UNL     1     112.631 123.232 136.802  0.00  0.00    +0.000 OA
ATOM     28  C   UNL     1     112.892 125.677 137.088  0.00  0.00    +0.000 A 
ATOM     29  C   UNL     1     113.532 125.175 137.221  0.00  0.00    +0.000 A 
ATOM     30  C   UNL     1     112.164 125.364 136.859  0.00  0.00    +0.000 A 
ATOM     31  C   UNL     1     113.445 124.360 137.126  0.00  0.00    +0.000 A 
ATOM     32  C   UNL     1     112.076 124.548 136.764  0.00  0.00    +0.000 A 
ATOM     33  C   UNL     1     112.717 124.047 136.897  0.00  0.00    +0.000 A 
ENDBRANCH  12  28
TORSDOF 4
ENDMDL
