MODEL 1
REMARK VINA RESULT:     -10.3      0.000      0.000
REMARK  Name = 42607968
REMARK  4 active torsions:
REMARK  status: ('A' for Active; 'I' for Inactive)
REMARK    1  A    between atoms: O_2  and  C_16
REMARK    2  A    between atoms: O_2  and  C_18
REMARK    3  A    between atoms: C_15  and  C_17
REMARK    4  A    between atoms: C_20  and  C_25
REMARK                            x       y       z     vdW  Elec       q    Type
REMARK                         _______ _______ _______ _____ _____    ______ ____
ROOT
ATOM      1  O   UNL     1     104.895 123.605 139.309  0.00  0.00    +0.000 OA
ATOM      2  O   UNL     1     104.835 125.951 140.094  0.00  0.00    +0.000 OA
ATOM      3  O   UNL     1     107.214 123.080 140.990  0.00  0.00    +0.000 OA
ATOM      4  C   UNL     1     106.011 124.944 140.683  0.00  0.00    +0.000 A 
ATOM      5  C   UNL     1     105.434 124.654 140.115  0.00  0.00    +0.000 A 
ATOM      6  C   UNL     1     104.316 124.120 139.026  0.00  0.00    +0.000 C 
ATOM      7  C   UNL     1     104.296 124.902 139.287  0.00  0.00    +0.000 C 
ATOM      8  C   UNL     1     105.454 123.871 139.854  0.00  0.00    +0.000 A 
ATOM      9  C   UNL     1     104.855 125.169 139.833  0.00  0.00    +0.000 C 
ATOM     10  C   UNL     1     106.616 124.412 140.981  0.00  0.00    +0.000 A 
ATOM     11  C   UNL     1     106.052 123.326 140.141  0.00  0.00    +0.000 A 
ATOM     12  C   UNL     1     106.637 123.598 140.709  0.00  0.00    +0.000 A 
ENDROOT
BRANCH   6  15
ATOM     13  O   UNL     1     101.607 123.496 138.362  0.00  0.00    +0.000 OA
ATOM     14  O   UNL     1     102.081 123.053 136.844  0.00  0.00    +0.000 OA
ATOM     15  C   UNL     1     103.757 123.853 138.481  0.00  0.00    +0.000 A 
ATOM     16  C   UNL     1     102.962 123.808 138.693  0.00  0.00    +0.000 A 
ATOM     17  C   UNL     1     103.994 123.632 137.722  0.00  0.00    +0.000 A 
ATOM     18  C   UNL     1     102.403 123.541 138.148  0.00  0.00    +0.000 A 
ATOM     19  C   UNL     1     103.435 123.366 137.177  0.00  0.00    +0.000 A 
ATOM     20  C   UNL     1     102.640 123.320 137.390  0.00  0.00    +0.000 A 
ENDBRANCH   6  15
BRANCH   4  21
ATOM     21  O   UNL     1     105.983 125.728 140.939  0.00  0.00    +0.000 OA
BRANCH  21  30
ATOM     22  O   UNL     1     105.788 125.617 142.350  0.00  0.00    +0.000 OA
ATOM     23  O   UNL     1     107.737 127.093 142.736  0.00  0.00    +0.000 OA
ATOM     24  O   UNL     1     106.892 126.490 144.018  0.00  0.00    +0.000 OA
ATOM     25  O   UNL     1     107.283 126.712 141.196  0.00  0.00    +0.000 OA
ATOM     26  C   UNL     1     107.087 126.601 142.608  0.00  0.00    +0.000 C 
ATOM     27  C   UNL     1     106.664 126.299 143.248  0.00  0.00    +0.000 C 
ATOM     28  C   UNL     1     106.860 126.410 141.837  0.00  0.00    +0.000 C 
ATOM     29  C   UNL     1     106.015 125.807 143.120  0.00  0.00    +0.000 C 
ATOM     30  C   UNL     1     106.210 125.918 141.709  0.00  0.00    +0.000 C 
BRANCH  29  32
ATOM     31  O   UNL     1     105.211 124.777 143.698  0.00  0.00    +0.000 OA
ATOM     32  C   UNL     1     105.593 125.506 143.761  0.00  0.00    +0.000 C 
ENDBRANCH  29  32
ENDBRANCH  21  30
ENDBRANCH   4  21
TORSDOF 4
ENDMDL
MODEL 2
REMARK VINA RESULT:      -9.7      7.695      9.465
REMARK  Name = 42607968
REMARK  4 active torsions:
REMARK  status: ('A' for Active; 'I' for Inactive)
REMARK    1  A    between atoms: O_2  and  C_16
REMARK    2  A    between atoms: O_2  and  C_18
REMARK    3  A    between atoms: C_15  and  C_17
REMARK    4  A    between atoms: C_20  and  C_25
REMARK                            x       y       z     vdW  Elec       q    Type
REMARK                         _______ _______ _______ _____ _____    ______ ____
ROOT
ATOM      1  O   UNL     1     113.365 127.720 136.739  0.00  0.00    +0.000 OA
ATOM      2  O   UNL     1     111.087 127.295 135.868  0.00  0.00    +0.000 OA
ATOM      3  O   UNL     1     112.981 130.587 136.399  0.00  0.00    +0.000 OA
ATOM      4  C   UNL     1     111.619 128.860 135.975  0.00  0.00    +0.000 A 
ATOM      5  C   UNL     1     112.128 128.210 136.218  0.00  0.00    +0.000 A 
ATOM      6  C   UNL     1     113.084 126.947 136.679  0.00  0.00    +0.000 C 
ATOM      7  C   UNL     1     112.325 126.805 136.388  0.00  0.00    +0.000 C 
ATOM      8  C   UNL     1     112.887 128.352 136.509  0.00  0.00    +0.000 A 
ATOM      9  C   UNL     1     111.846 127.437 136.158  0.00  0.00    +0.000 C 
ATOM     10  C   UNL     1     111.907 129.667 136.036  0.00  0.00    +0.000 A 
ATOM     11  C   UNL     1     113.190 129.153 136.576  0.00  0.00    +0.000 A 
ATOM     12  C   UNL     1     112.697 129.815 136.338  0.00  0.00    +0.000 A 
ENDROOT
BRANCH   6  15
ATOM     13  O   UNL     1     115.133 125.047 136.082  0.00  0.00    +0.000 OA
ATOM     14  O   UNL     1     114.994 124.419 137.601  0.00  0.00    +0.000 OA
ATOM     15  C   UNL     1     113.562 126.315 136.909  0.00  0.00    +0.000 A 
ATOM     16  C   UNL     1     114.108 125.997 136.381  0.00  0.00    +0.000 A 
ATOM     17  C   UNL     1     113.492 126.001 137.669  0.00  0.00    +0.000 A 
ATOM     18  C   UNL     1     114.586 125.365 136.611  0.00  0.00    +0.000 A 
ATOM     19  C   UNL     1     113.969 125.370 137.900  0.00  0.00    +0.000 A 
ATOM     20  C   UNL     1     114.517 125.051 137.371  0.00  0.00    +0.000 A 
ENDBRANCH   6  15
BRANCH   4  21
ATOM     21  O   UNL     1     110.862 128.708 135.686  0.00  0.00    +0.000 OA
BRANCH  21  30
ATOM     22  O   UNL     1     110.085 129.221 136.770  0.00  0.00    +0.000 OA
ATOM     23  O   UNL     1     108.566 130.328 135.160  0.00  0.00    +0.000 OA
ATOM     24  O   UNL     1     108.296 130.471 136.780  0.00  0.00    +0.000 OA
ATOM     25  O   UNL     1     109.850 129.447 134.612  0.00  0.00    +0.000 OA
ATOM     26  C   UNL     1     109.073 129.959 135.697  0.00  0.00    +0.000 C 
ATOM     27  C   UNL     1     108.938 130.030 136.507  0.00  0.00    +0.000 C 
ATOM     28  C   UNL     1     109.715 129.518 135.423  0.00  0.00    +0.000 C 
ATOM     29  C   UNL     1     109.444 129.661 137.044  0.00  0.00    +0.000 C 
ATOM     30  C   UNL     1     110.221 129.149 135.960  0.00  0.00    +0.000 C 
BRANCH  29  32
ATOM     31  O   UNL     1     109.312 129.062 138.335  0.00  0.00    +0.000 OA
ATOM     32  C   UNL     1     109.308 129.732 137.854  0.00  0.00    +0.000 C 
ENDBRANCH  29  32
ENDBRANCH  21  30
ENDBRANCH   4  21
TORSDOF 4
ENDMDL
MODEL 3
REMARK VINA RESULT:      -9.6      8.682      9.849
REMARK  Name = 42607968
REMARK  4 active torsions:
REMARK  status: ('A' for Active; 'I' for Inactive)
REMARK    1  A    between atoms: O_2  and  C_16
REMARK    2  A    between atoms: O_2  and  C_18
REMARK    3  A    between atoms: C_15  and  C_17
REMARK    4  A    between atoms: C_20  and  C_25
REMARK                            x       y       z     vdW  Elec       q    Type
REMARK                         _______ _______ _______ _____ _____    ______ ____
ROOT
ATOM      1  O   UNL     1     113.665 127.356 136.278  0.00  0.00    +0.000 OA
ATOM      2  O   UNL     1     112.235 128.467 137.966  0.00  0.00    +0.000 OA
ATOM      3  O   UNL     1     114.227 129.927 135.032  0.00  0.00    +0.000 OA
ATOM      4  C   UNL     1     112.969 129.397 136.808  0.00  0.00    +0.000 A 
ATOM      5  C   UNL     1     113.085 128.544 136.819  0.00  0.00    +0.000 A 
ATOM      6  C   UNL     1     113.292 126.909 136.862  0.00  0.00    +0.000 C 
ATOM      7  C   UNL     1     112.815 127.278 137.425  0.00  0.00    +0.000 C 
ATOM      8  C   UNL     1     113.562 128.175 136.257  0.00  0.00    +0.000 A 
ATOM      9  C   UNL     1     112.712 128.097 137.403  0.00  0.00    +0.000 C 
ATOM     10  C   UNL     1     113.356 129.868 136.202  0.00  0.00    +0.000 A 
ATOM     11  C   UNL     1     113.956 128.630 135.644  0.00  0.00    +0.000 A 
ATOM     12  C   UNL     1     113.852 129.482 135.617  0.00  0.00    +0.000 A 
ENDROOT
BRANCH   6  15
ATOM     13  O   UNL     1     114.868 124.629 137.561  0.00  0.00    +0.000 OA
ATOM     14  O   UNL     1     113.703 123.635 136.948  0.00  0.00    +0.000 OA
ATOM     15  C   UNL     1     113.395 126.090 136.884  0.00  0.00    +0.000 A 
ATOM     16  C   UNL     1     114.080 125.769 137.211  0.00  0.00    +0.000 A 
ATOM     17  C   UNL     1     112.812 125.593 136.577  0.00  0.00    +0.000 A 
ATOM     18  C   UNL     1     114.183 124.951 137.233  0.00  0.00    +0.000 A 
ATOM     19  C   UNL     1     112.915 124.775 136.599  0.00  0.00    +0.000 A 
ATOM     20  C   UNL     1     113.600 124.453 136.926  0.00  0.00    +0.000 A 
ENDBRANCH   6  15
BRANCH   4  21
ATOM     21  O   UNL     1     112.491 129.758 137.374  0.00  0.00    +0.000 OA
BRANCH  21  30
ATOM     22  O   UNL     1     111.365 130.109 136.567  0.00  0.00    +0.000 OA
ATOM     23  O   UNL     1     111.326 132.358 137.599  0.00  0.00    +0.000 OA
ATOM     24  O   UNL     1     110.214 131.959 136.448  0.00  0.00    +0.000 OA
ATOM     25  O   UNL     1     112.465 131.258 138.062  0.00  0.00    +0.000 OA
ATOM     26  C   UNL     1     111.339 131.609 137.255  0.00  0.00    +0.000 C 
ATOM     27  C   UNL     1     110.783 131.409 136.679  0.00  0.00    +0.000 C 
ATOM     28  C   UNL     1     111.909 131.058 137.487  0.00  0.00    +0.000 C 
ATOM     29  C   UNL     1     110.796 130.659 136.335  0.00  0.00    +0.000 C 
ATOM     30  C   UNL     1     111.922 130.308 137.143  0.00  0.00    +0.000 C 
BRANCH  29  32
ATOM     31  O   UNL     1     109.905 129.706 135.752  0.00  0.00    +0.000 OA
ATOM     32  C   UNL     1     110.241 130.460 135.760  0.00  0.00    +0.000 C 
ENDBRANCH  29  32
ENDBRANCH  21  30
ENDBRANCH   4  21
TORSDOF 4
ENDMDL
MODEL 4
REMARK VINA RESULT:      -9.6      4.305      7.031
REMARK  Name = 42607968
REMARK  4 active torsions:
REMARK  status: ('A' for Active; 'I' for Inactive)
REMARK    1  A    between atoms: O_2  and  C_16
REMARK    2  A    between atoms: O_2  and  C_18
REMARK    3  A    between atoms: C_15  and  C_17
REMARK    4  A    between atoms: C_20  and  C_25
REMARK                            x       y       z     vdW  Elec       q    Type
REMARK                         _______ _______ _______ _____ _____    ______ ____
ROOT
ATOM      1  O   UNL     1     106.519 124.891 146.129  0.00  0.00    +0.000 OA
ATOM      2  O   UNL     1     106.453 127.323 145.672  0.00  0.00    +0.000 OA
ATOM      3  O   UNL     1     105.406 124.345 143.493  0.00  0.00    +0.000 OA
ATOM      4  C   UNL     1     105.919 126.278 144.503  0.00  0.00    +0.000 A 
ATOM      5  C   UNL     1     106.213 125.978 145.253  0.00  0.00    +0.000 A 
ATOM      6  C   UNL     1     106.781 125.426 146.700  0.00  0.00    +0.000 C 
ATOM      7  C   UNL     1     106.759 126.236 146.548  0.00  0.00    +0.000 C 
ATOM      8  C   UNL     1     106.234 125.167 145.405  0.00  0.00    +0.000 A 
ATOM      9  C   UNL     1     106.475 126.512 145.823  0.00  0.00    +0.000 C 
ATOM     10  C   UNL     1     105.645 125.726 143.904  0.00  0.00    +0.000 A 
ATOM     11  C   UNL     1     105.964 124.601 144.818  0.00  0.00    +0.000 A 
ATOM     12  C   UNL     1     105.667 124.882 144.063  0.00  0.00    +0.000 A 
ENDROOT
BRANCH   6  15
ATOM     13  O   UNL     1     106.302 124.281 149.275  0.00  0.00    +0.000 OA
ATOM     14  O   UNL     1     107.920 124.323 149.594  0.00  0.00    +0.000 OA
ATOM     15  C   UNL     1     107.065 125.150 147.424  0.00  0.00    +0.000 A 
ATOM     16  C   UNL     1     106.542 124.853 147.987  0.00  0.00    +0.000 A 
ATOM     17  C   UNL     1     107.874 125.171 147.583  0.00  0.00    +0.000 A 
ATOM     18  C   UNL     1     106.826 124.578 148.711  0.00  0.00    +0.000 A 
ATOM     19  C   UNL     1     108.159 124.895 148.307  0.00  0.00    +0.000 A 
ATOM     20  C   UNL     1     107.635 124.599 148.871  0.00  0.00    +0.000 A 
ENDBRANCH   6  15
BRANCH   4  21
ATOM     21  O   UNL     1     105.901 127.090 144.359  0.00  0.00    +0.000 OA
BRANCH  21  30
ATOM     22  O   UNL     1     106.878 127.234 143.326  0.00  0.00    +0.000 OA
ATOM     23  O   UNL     1     105.271 128.561 141.991  0.00  0.00    +0.000 OA
ATOM     24  O   UNL     1     106.783 128.263 141.404  0.00  0.00    +0.000 OA
ATOM     25  O   UNL     1     104.830 127.975 143.469  0.00  0.00    +0.000 OA
ATOM     26  C   UNL     1     105.806 128.119 142.436  0.00  0.00    +0.000 C 
ATOM     27  C   UNL     1     106.563 127.969 142.143  0.00  0.00    +0.000 C 
ATOM     28  C   UNL     1     105.586 127.825 143.175  0.00  0.00    +0.000 C 
ATOM     29  C   UNL     1     107.099 127.527 142.588  0.00  0.00    +0.000 C 
ATOM     30  C   UNL     1     106.122 127.383 143.620  0.00  0.00    +0.000 C 
BRANCH  29  32
ATOM     31  O   UNL     1     108.513 127.469 142.782  0.00  0.00    +0.000 OA
ATOM     32  C   UNL     1     107.854 127.378 142.294  0.00  0.00    +0.000 C 
ENDBRANCH  29  32
ENDBRANCH  21  30
ENDBRANCH   4  21
TORSDOF 4
ENDMDL
MODEL 5
REMARK VINA RESULT:      -9.6      7.665     10.237
REMARK  Name = 42607968
REMARK  4 active torsions:
REMARK  status: ('A' for Active; 'I' for Inactive)
REMARK    1  A    between atoms: O_2  and  C_16
REMARK    2  A    between atoms: O_2  and  C_18
REMARK    3  A    between atoms: C_15  and  C_17
REMARK    4  A    between atoms: C_20  and  C_25
REMARK                            x       y       z     vdW  Elec       q    Type
REMARK                         _______ _______ _______ _____ _____    ______ ____
ROOT
ATOM      1  O   UNL     1     113.384 129.260 138.868  0.00  0.00    +0.000 OA
ATOM      2  O   UNL     1     113.026 126.990 139.789  0.00  0.00    +0.000 OA
ATOM      3  O   UNL     1     112.335 128.401 136.290  0.00  0.00    +0.000 OA
ATOM      4  C   UNL     1     112.617 127.283 138.211  0.00  0.00    +0.000 A 
ATOM      5  C   UNL     1     112.947 127.910 138.698  0.00  0.00    +0.000 A 
ATOM      6  C   UNL     1     113.582 129.096 139.652  0.00  0.00    +0.000 C 
ATOM      7  C   UNL     1     113.463 128.340 139.959  0.00  0.00    +0.000 C 
ATOM      8  C   UNL     1     113.066 128.666 138.390  0.00  0.00    +0.000 A 
ATOM      9  C   UNL     1     113.145 127.747 139.481  0.00  0.00    +0.000 C 
ATOM     10  C   UNL     1     112.408 127.447 137.394  0.00  0.00    +0.000 A 
ATOM     11  C   UNL     1     112.864 128.848 137.576  0.00  0.00    +0.000 A 
ATOM     12  C   UNL     1     112.533 128.234 137.074  0.00  0.00    +0.000 A 
ENDROOT
BRANCH   6  15
ATOM     13  O   UNL     1     113.265 131.053 141.711  0.00  0.00    +0.000 OA
ATOM     14  O   UNL     1     114.855 131.469 141.561  0.00  0.00    +0.000 OA
ATOM     15  C   UNL     1     113.900 129.690 140.129  0.00  0.00    +0.000 A 
ATOM     16  C   UNL     1     113.424 130.075 140.681  0.00  0.00    +0.000 A 
ATOM     17  C   UNL     1     114.695 129.898 140.054  0.00  0.00    +0.000 A 
ATOM     18  C   UNL     1     113.742 130.668 141.158  0.00  0.00    +0.000 A 
ATOM     19  C   UNL     1     115.013 130.490 140.531  0.00  0.00    +0.000 A 
ATOM     20  C   UNL     1     114.537 130.876 141.083  0.00  0.00    +0.000 A 
ENDBRANCH   6  15
BRANCH   4  21
ATOM     21  O   UNL     1     112.501 126.529 138.526  0.00  0.00    +0.000 OA
BRANCH  21  30
ATOM     22  O   UNL     1     113.463 125.743 137.821  0.00  0.00    +0.000 OA
ATOM     23  O   UNL     1     111.704 124.097 137.256  0.00  0.00    +0.000 OA
ATOM     24  O   UNL     1     113.252 123.860 136.739  0.00  0.00    +0.000 OA
ATOM     25  O   UNL     1     111.328 125.432 138.150  0.00  0.00    +0.000 OA
ATOM     26  C   UNL     1     112.290 124.645 137.444  0.00  0.00    +0.000 C 
ATOM     27  C   UNL     1     113.065 124.527 137.186  0.00  0.00    +0.000 C 
ATOM     28  C   UNL     1     112.102 125.314 137.892  0.00  0.00    +0.000 C 
ATOM     29  C   UNL     1     113.651 125.076 137.374  0.00  0.00    +0.000 C 
ATOM     30  C   UNL     1     112.689 125.862 138.080  0.00  0.00    +0.000 C 
BRANCH  29  32
ATOM     31  O   UNL     1     115.056 125.065 137.637  0.00  0.00    +0.000 OA
ATOM     32  C   UNL     1     114.425 124.957 137.116  0.00  0.00    +0.000 C 
ENDBRANCH  29  32
ENDBRANCH  21  30
ENDBRANCH   4  21
TORSDOF 4
ENDMDL
MODEL 6
REMARK VINA RESULT:      -9.4      5.981      7.972
REMARK  Name = 42607968
REMARK  4 active torsions:
REMARK  status: ('A' for Active; 'I' for Inactive)
REMARK    1  A    between atoms: O_2  and  C_16
REMARK    2  A    between atoms: O_2  and  C_18
REMARK    3  A    between atoms: C_15  and  C_17
REMARK    4  A    between atoms: C_20  and  C_25
REMARK                            x       y       z     vdW  Elec       q    Type
REMARK                         _______ _______ _______ _____ _____    ______ ____
ROOT
ATOM      1  O   UNL     1     113.431 126.542 139.047  0.00  0.00    +0.000 OA
ATOM      2  O   UNL     1     111.139 125.610 139.094  0.00  0.00    +0.000 OA
ATOM      3  O   UNL     1     112.985 127.823 141.625  0.00  0.00    +0.000 OA
ATOM      4  C   UNL     1     111.644 126.545 140.364  0.00  0.00    +0.000 A 
ATOM      5  C   UNL     1     112.171 126.389 139.703  0.00  0.00    +0.000 A 
ATOM      6  C   UNL     1     113.163 126.075 138.423  0.00  0.00    +0.000 C 
ATOM      7  C   UNL     1     112.399 125.764 138.438  0.00  0.00    +0.000 C 
ATOM      8  C   UNL     1     112.935 126.700 139.688  0.00  0.00    +0.000 A 
ATOM      9  C   UNL     1     111.903 125.921 139.079  0.00  0.00    +0.000 C 
ATOM     10  C   UNL     1     111.918 127.031 141.018  0.00  0.00    +0.000 A 
ATOM     11  C   UNL     1     113.225 127.188 140.332  0.00  0.00    +0.000 A 
ATOM     12  C   UNL     1     112.713 127.355 141.001  0.00  0.00    +0.000 A 
ENDROOT
BRANCH   6  15
ATOM     13  O   UNL     1     115.242 124.523 137.223  0.00  0.00    +0.000 OA
ATOM     14  O   UNL     1     115.146 125.448 135.860  0.00  0.00    +0.000 OA
ATOM     15  C   UNL     1     113.659 125.918 137.782  0.00  0.00    +0.000 A 
ATOM     16  C   UNL     1     114.202 125.299 137.823  0.00  0.00    +0.000 A 
ATOM     17  C   UNL     1     113.611 126.381 137.101  0.00  0.00    +0.000 A 
ATOM     18  C   UNL     1     114.698 125.142 137.182  0.00  0.00    +0.000 A 
ATOM     19  C   UNL     1     114.107 126.224 136.461  0.00  0.00    +0.000 A 
ATOM     20  C   UNL     1     114.650 125.605 136.501  0.00  0.00    +0.000 A 
ENDBRANCH   6  15
BRANCH   4  21
ATOM     21  O   UNL     1     110.882 126.230 140.371  0.00  0.00    +0.000 OA
BRANCH  21  30
ATOM     22  O   UNL     1     110.099 127.415 140.208  0.00  0.00    +0.000 OA
ATOM     23  O   UNL     1     108.615 126.688 142.051  0.00  0.00    +0.000 OA
ATOM     24  O   UNL     1     108.328 128.114 141.274  0.00  0.00    +0.000 OA
ATOM     25  O   UNL     1     109.893 125.746 141.600  0.00  0.00    +0.000 OA
ATOM     26  C   UNL     1     109.110 126.930 141.437  0.00  0.00    +0.000 C 
ATOM     27  C   UNL     1     108.966 127.643 141.048  0.00  0.00    +0.000 C 
ATOM     28  C   UNL     1     109.749 126.459 141.211  0.00  0.00    +0.000 C 
ATOM     29  C   UNL     1     109.461 127.885 140.433  0.00  0.00    +0.000 C 
ATOM     30  C   UNL     1     110.243 126.701 140.597  0.00  0.00    +0.000 C 
BRANCH  29  32
ATOM     31  O   UNL     1     109.331 128.630 139.221  0.00  0.00    +0.000 OA
ATOM     32  C   UNL     1     109.316 128.598 140.045  0.00  0.00    +0.000 C 
ENDBRANCH  29  32
ENDBRANCH  21  30
ENDBRANCH   4  21
TORSDOF 4
ENDMDL
MODEL 7
REMARK VINA RESULT:      -9.4      6.672      8.416
REMARK  Name = 42607968
REMARK  4 active torsions:
REMARK  status: ('A' for Active; 'I' for Inactive)
REMARK    1  A    between atoms: O_2  and  C_16
REMARK    2  A    between atoms: O_2  and  C_18
REMARK    3  A    between atoms: C_15  and  C_17
REMARK    4  A    between atoms: C_20  and  C_25
REMARK                            x       y       z     vdW  Elec       q    Type
REMARK                         _______ _______ _______ _____ _____    ______ ____
ROOT
ATOM      1  O   UNL     1     111.569 125.854 137.491  0.00  0.00    +0.000 OA
ATOM      2  O   UNL     1     111.325 127.646 135.801  0.00  0.00    +0.000 OA
ATOM      3  O   UNL     1     108.822 126.272 138.362  0.00  0.00    +0.000 OA
ATOM      4  C   UNL     1     110.032 127.285 136.772  0.00  0.00    +0.000 A 
ATOM      5  C   UNL     1     110.772 126.856 136.856  0.00  0.00    +0.000 A 
ATOM      6  C   UNL     1     112.202 126.046 136.999  0.00  0.00    +0.000 C 
ATOM      7  C   UNL     1     112.121 126.644 136.436  0.00  0.00    +0.000 C 
ATOM      8  C   UNL     1     110.853 126.259 137.420  0.00  0.00    +0.000 A 
ATOM      9  C   UNL     1     111.405 127.049 136.364  0.00  0.00    +0.000 C 
ATOM     10  C   UNL     1     109.369 127.089 137.282  0.00  0.00    +0.000 A 
ATOM     11  C   UNL     1     110.201 126.049 137.937  0.00  0.00    +0.000 A 
ATOM     12  C   UNL     1     109.454 126.467 137.868  0.00  0.00    +0.000 A 
ENDROOT
BRANCH   6  15
ATOM     13  O   UNL     1     114.685 125.624 138.351  0.00  0.00    +0.000 OA
ATOM     14  O   UNL     1     115.064 124.427 137.281  0.00  0.00    +0.000 OA
ATOM     15  C   UNL     1     112.918 125.642 137.070  0.00  0.00    +0.000 A 
ATOM     16  C   UNL     1     113.444 125.835 137.675  0.00  0.00    +0.000 A 
ATOM     17  C   UNL     1     113.108 125.043 136.535  0.00  0.00    +0.000 A 
ATOM     18  C   UNL     1     114.159 125.430 137.745  0.00  0.00    +0.000 A 
ATOM     19  C   UNL     1     113.823 124.638 136.605  0.00  0.00    +0.000 A 
ATOM     20  C   UNL     1     114.349 124.832 137.210  0.00  0.00    +0.000 A 
ENDBRANCH   6  15
BRANCH   4  21
ATOM     21  O   UNL     1     109.960 127.881 136.206  0.00  0.00    +0.000 OA
BRANCH  21  30
ATOM     22  O   UNL     1     109.860 129.041 137.035  0.00  0.00    +0.000 OA
ATOM     23  O   UNL     1     107.920 129.821 135.711  0.00  0.00    +0.000 OA
ATOM     24  O   UNL     1     108.467 130.720 136.981  0.00  0.00    +0.000 OA
ATOM     25  O   UNL     1     108.666 128.401 135.324  0.00  0.00    +0.000 OA
ATOM     26  C   UNL     1     108.567 129.561 136.152  0.00  0.00    +0.000 C 
ATOM     27  C   UNL     1     108.841 130.010 136.788  0.00  0.00    +0.000 C 
ATOM     28  C   UNL     1     108.940 128.850 135.959  0.00  0.00    +0.000 C 
ATOM     29  C   UNL     1     109.488 129.750 137.229  0.00  0.00    +0.000 C 
ATOM     30  C   UNL     1     109.587 128.590 136.400  0.00  0.00    +0.000 C 
BRANCH  29  32
ATOM     31  O   UNL     1     110.571 130.267 138.003  0.00  0.00    +0.000 OA
ATOM     32  C   UNL     1     109.761 130.200 137.863  0.00  0.00    +0.000 C 
ENDBRANCH  29  32
ENDBRANCH  21  30
ENDBRANCH   4  21
TORSDOF 4
ENDMDL
MODEL 8
REMARK VINA RESULT:      -9.4      8.410     10.318
REMARK  Name = 42607968
REMARK  4 active torsions:
REMARK  status: ('A' for Active; 'I' for Inactive)
REMARK    1  A    between atoms: O_2  and  C_16
REMARK    2  A    between atoms: O_2  and  C_18
REMARK    3  A    between atoms: C_15  and  C_17
REMARK    4  A    between atoms: C_20  and  C_25
REMARK                            x       y       z     vdW  Elec       q    Type
REMARK                         _______ _______ _______ _____ _____    ______ ____
ROOT
ATOM      1  O   UNL     1     112.955 128.801 135.308  0.00  0.00    +0.000 OA
ATOM      2  O   UNL     1     113.386 127.555 137.402  0.00  0.00    +0.000 OA
ATOM      3  O   UNL     1     110.532 127.249 134.858  0.00  0.00    +0.000 OA
ATOM      4  C   UNL     1     112.041 127.177 136.513  0.00  0.00    +0.000 A 
ATOM      5  C   UNL     1     112.577 127.795 136.249  0.00  0.00    +0.000 A 
ATOM      6  C   UNL     1     113.620 128.976 135.763  0.00  0.00    +0.000 C 
ATOM      7  C   UNL     1     113.764 128.561 136.462  0.00  0.00    +0.000 C 
ATOM      8  C   UNL     1     112.433 128.210 135.551  0.00  0.00    +0.000 A 
ATOM      9  C   UNL     1     113.242 127.970 136.704  0.00  0.00    +0.000 C 
ATOM     10  C   UNL     1     111.346 126.990 136.043  0.00  0.00    +0.000 A 
ATOM     11  C   UNL     1     111.744 128.036 135.068  0.00  0.00    +0.000 A 
ATOM     12  C   UNL     1     111.197 127.422 135.316  0.00  0.00    +0.000 A 
ENDROOT
BRANCH   6  15
ATOM     13  O   UNL     1     114.625 131.642 135.998  0.00  0.00    +0.000 OA
ATOM     14  O   UNL     1     115.710 131.339 134.791  0.00  0.00    +0.000 OA
ATOM     15  C   UNL     1     114.143 129.568 135.521  0.00  0.00    +0.000 A 
ATOM     16  C   UNL     1     114.123 130.309 135.880  0.00  0.00    +0.000 A 
ATOM     17  C   UNL     1     114.685 129.416 134.917  0.00  0.00    +0.000 A 
ATOM     18  C   UNL     1     114.645 130.899 135.637  0.00  0.00    +0.000 A 
ATOM     19  C   UNL     1     115.207 130.006 134.675  0.00  0.00    +0.000 A 
ATOM     20  C   UNL     1     115.188 130.748 135.034  0.00  0.00    +0.000 A 
ENDBRANCH   6  15
BRANCH   4  21
ATOM     21  O   UNL     1     112.192 126.766 137.213  0.00  0.00    +0.000 OA
BRANCH  21  30
ATOM     22  O   UNL     1     112.605 125.488 136.727  0.00  0.00    +0.000 OA
ATOM     23  O   UNL     1     111.024 124.386 138.280  0.00  0.00    +0.000 OA
ATOM     24  O   UNL     1     111.964 123.475 137.277  0.00  0.00    +0.000 OA
ATOM     25  O   UNL     1     111.138 126.032 138.248  0.00  0.00    +0.000 OA
ATOM     26  C   UNL     1     111.551 124.753 137.762  0.00  0.00    +0.000 C 
ATOM     27  C   UNL     1     112.022 124.298 137.260  0.00  0.00    +0.000 C 
ATOM     28  C   UNL     1     111.608 125.577 137.746  0.00  0.00    +0.000 C 
ATOM     29  C   UNL     1     112.549 124.665 136.743  0.00  0.00    +0.000 C 
ATOM     30  C   UNL     1     112.135 125.944 137.228  0.00  0.00    +0.000 C 
BRANCH  29  32
ATOM     31  O   UNL     1     113.807 124.416 136.113  0.00  0.00    +0.000 OA
ATOM     32  C   UNL     1     113.019 124.210 136.241  0.00  0.00    +0.000 C 
ENDBRANCH  29  32
ENDBRANCH  21  30
ENDBRANCH   4  21
TORSDOF 4
ENDMDL
MODEL 9
REMARK VINA RESULT:      -9.3      8.221      9.291
REMARK  Name = 42607968
REMARK  4 active torsions:
REMARK  status: ('A' for Active; 'I' for Inactive)
REMARK    1  A    between atoms: O_2  and  C_16
REMARK    2  A    between atoms: O_2  and  C_18
REMARK    3  A    between atoms: C_15  and  C_17
REMARK    4  A    between atoms: C_20  and  C_25
REMARK                            x       y       z     vdW  Elec       q    Type
REMARK                         _______ _______ _______ _____ _____    ______ ____
ROOT
ATOM      1  O   UNL     1     113.043 127.376 137.810  0.00  0.00    +0.000 OA
ATOM      2  O   UNL     1     113.233 127.508 140.274  0.00  0.00    +0.000 OA
ATOM      3  O   UNL     1     112.320 130.195 137.695  0.00  0.00    +0.000 OA
ATOM      4  C   UNL     1     112.813 128.872 139.434  0.00  0.00    +0.000 A 
ATOM      5  C   UNL     1     112.961 128.134 139.018  0.00  0.00    +0.000 A 
ATOM      6  C   UNL     1     113.251 126.707 138.244  0.00  0.00    +0.000 C 
ATOM      7  C   UNL     1     113.315 126.750 139.065  0.00  0.00    +0.000 C 
ATOM      8  C   UNL     1     112.897 128.091 138.197  0.00  0.00    +0.000 A 
ATOM      9  C   UNL     1     113.169 127.464 139.452  0.00  0.00    +0.000 C 
ATOM     10  C   UNL     1     112.595 129.573 138.987  0.00  0.00    +0.000 A 
ATOM     11  C   UNL     1     112.681 128.781 137.734  0.00  0.00    +0.000 A 
ATOM     12  C   UNL     1     112.529 129.527 138.132  0.00  0.00    +0.000 A 
ENDROOT
BRANCH   6  15
ATOM     13  O   UNL     1     112.283 124.307 137.030  0.00  0.00    +0.000 OA
ATOM     14  O   UNL     1     113.833 123.851 136.696  0.00  0.00    +0.000 OA
ATOM     15  C   UNL     1     113.396 125.992 137.856  0.00  0.00    +0.000 A 
ATOM     16  C   UNL     1     112.768 125.507 137.637  0.00  0.00    +0.000 A 
ATOM     17  C   UNL     1     114.171 125.765 137.690  0.00  0.00    +0.000 A 
ATOM     18  C   UNL     1     112.913 124.793 137.250  0.00  0.00    +0.000 A 
ATOM     19  C   UNL     1     114.317 125.051 137.303  0.00  0.00    +0.000 A 
ATOM     20  C   UNL     1     113.688 124.564 137.083  0.00  0.00    +0.000 A 
ENDBRANCH   6  15
BRANCH   4  21
ATOM     21  O   UNL     1     112.879 128.906 140.256  0.00  0.00    +0.000 OA
BRANCH  21  30
ATOM     22  O   UNL     1     113.994 129.787 140.409  0.00  0.00    +0.000 OA
ATOM     23  O   UNL     1     112.736 131.085 142.100  0.00  0.00    +0.000 OA
ATOM     24  O   UNL     1     114.270 131.532 141.690  0.00  0.00    +0.000 OA
ATOM     25  O   UNL     1     112.040 129.772 141.383  0.00  0.00    +0.000 OA
ATOM     26  C   UNL     1     113.156 130.652 141.536  0.00  0.00    +0.000 C 
ATOM     27  C   UNL     1     113.923 130.875 141.331  0.00  0.00    +0.000 C 
ATOM     28  C   UNL     1     112.807 129.995 141.177  0.00  0.00    +0.000 C 
ATOM     29  C   UNL     1     114.342 130.443 140.767  0.00  0.00    +0.000 C 
ATOM     30  C   UNL     1     113.226 129.562 140.614  0.00  0.00    +0.000 C 
BRANCH  29  32
ATOM     31  O   UNL     1     115.707 130.101 140.523  0.00  0.00    +0.000 OA
ATOM     32  C   UNL     1     115.108 130.666 140.562  0.00  0.00    +0.000 C 
ENDBRANCH  29  32
ENDBRANCH  21  30
ENDBRANCH   4  21
TORSDOF 4
ENDMDL
MODEL 10
REMARK VINA RESULT:      -9.3      7.944      9.271
REMARK  Name = 42607968
REMARK  4 active torsions:
REMARK  status: ('A' for Active; 'I' for Inactive)
REMARK    1  A    between atoms: O_2  and  C_16
REMARK    2  A    between atoms: O_2  and  C_18
REMARK    3  A    between atoms: C_15  and  C_17
REMARK    4  A    between atoms: C_20  and  C_25
REMARK                            x       y       z     vdW  Elec       q    Type
REMARK                         _______ _______ _______ _____ _____    ______ ____
ROOT
ATOM      1  O   UNL     1     110.063 131.249 136.296  0.00  0.00    +0.000 OA
ATOM      2  O   UNL     1     110.888 129.286 135.035  0.00  0.00    +0.000 OA
ATOM      3  O   UNL     1     112.418 131.166 138.007  0.00  0.00    +0.000 OA
ATOM      4  C   UNL     1     111.801 129.868 136.289  0.00  0.00    +0.000 A 
ATOM      5  C   UNL     1     111.055 130.243 136.083  0.00  0.00    +0.000 A 
ATOM      6  C   UNL     1     109.621 130.946 135.669  0.00  0.00    +0.000 C 
ATOM      7  C   UNL     1     109.896 130.292 135.248  0.00  0.00    +0.000 C 
ATOM      8  C   UNL     1     110.780 130.898 136.504  0.00  0.00    +0.000 A 
ATOM      9  C   UNL     1     110.614 129.941 135.456  0.00  0.00    +0.000 C 
ATOM     10  C   UNL     1     112.265 130.179 136.941  0.00  0.00    +0.000 A 
ATOM     11  C   UNL     1     111.231 131.222 137.159  0.00  0.00    +0.000 A 
ATOM     12  C   UNL     1     111.979 130.860 137.379  0.00  0.00    +0.000 A 
ENDROOT
BRANCH   6  15
ATOM     13  O   UNL     1     106.818 131.297 136.104  0.00  0.00    +0.000 OA
ATOM     14  O   UNL     1     106.754 132.353 134.838  0.00  0.00    +0.000 OA
ATOM     15  C   UNL     1     108.904 131.298 135.461  0.00  0.00    +0.000 A 
ATOM     16  C   UNL     1     108.220 131.122 135.886  0.00  0.00    +0.000 A 
ATOM     17  C   UNL     1     108.872 131.826 134.828  0.00  0.00    +0.000 A 
ATOM     18  C   UNL     1     107.503 131.473 135.678  0.00  0.00    +0.000 A 
ATOM     19  C   UNL     1     108.156 132.177 134.620  0.00  0.00    +0.000 A 
ATOM     20  C   UNL     1     107.471 132.001 135.045  0.00  0.00    +0.000 A 
ENDBRANCH   6  15
BRANCH   4  21
ATOM     21  O   UNL     1     112.068 129.214 135.863  0.00  0.00    +0.000 OA
BRANCH  21  30
ATOM     22  O   UNL     1     111.972 128.196 136.861  0.00  0.00    +0.000 OA
ATOM     23  O   UNL     1     114.227 127.381 136.248  0.00  0.00    +0.000 OA
ATOM     24  O   UNL     1     113.379 126.635 137.449  0.00  0.00    +0.000 OA
ATOM     25  O   UNL     1     113.572 128.671 135.454  0.00  0.00    +0.000 OA
ATOM     26  C   UNL     1     113.475 127.653 136.452  0.00  0.00    +0.000 C 
ATOM     27  C   UNL     1     113.051 127.280 137.053  0.00  0.00    +0.000 C 
ATOM     28  C   UNL     1     113.147 128.298 136.055  0.00  0.00    +0.000 C 
ATOM     29  C   UNL     1     112.299 127.551 137.257  0.00  0.00    +0.000 C 
ATOM     30  C   UNL     1     112.395 128.570 136.259  0.00  0.00    +0.000 C 
BRANCH  29  32
ATOM     31  O   UNL     1     111.070 127.026 137.763  0.00  0.00    +0.000 OA
ATOM     32  C   UNL     1     111.875 127.178 137.858  0.00  0.00    +0.000 C 
ENDBRANCH  29  32
ENDBRANCH  21  30
ENDBRANCH   4  21
TORSDOF 4
ENDMDL
