MODEL 1
REMARK VINA RESULT:      -9.8      0.000      0.000
REMARK  Name = 5748662
REMARK  4 active torsions:
REMARK  status: ('A' for Active; 'I' for Inactive)
REMARK    1  A    between atoms: O_2  and  C_15
REMARK    2  A    between atoms: O_2  and  C_17
REMARK    3  A    between atoms: O_9  and  C_26
REMARK    4  A    between atoms: C_18  and  C_22
REMARK                            x       y       z     vdW  Elec       q    Type
REMARK                         _______ _______ _______ _____ _____    ______ ____
ROOT
ATOM      1  O   UNL     1     103.718 125.728 147.357  0.00  0.00    +0.000 OA
ATOM      2  O   UNL     1     105.642 124.426 146.504  0.00  0.00    +0.000 OA
ATOM      3  O   UNL     1     104.776 123.333 146.135  0.00  0.00    +0.000 OA
ATOM      4  C   UNL     1     105.121 125.611 147.108  0.00  0.00    +0.000 A 
ATOM      5  C   UNL     1     104.479 126.045 147.392  0.00  0.00    +0.000 A 
ATOM      6  C   UNL     1     105.001 124.859 146.788  0.00  0.00    +0.000 A 
ATOM      7  C   UNL     1     104.240 124.543 146.752  0.00  0.00    +0.000 A 
ATOM      8  C   UNL     1     103.599 124.977 147.037  0.00  0.00    +0.000 A 
ATOM      9  C   UNL     1     104.128 123.760 146.417  0.00  0.00    +0.000 A 
ATOM     10  C   UNL     1     102.801 124.658 147.005  0.00  0.00    +0.000 A 
ATOM     11  C   UNL     1     103.339 123.424 146.377  0.00  0.00    +0.000 A 
ATOM     12  C   UNL     1     102.670 123.876 146.673  0.00  0.00    +0.000 A 
ENDROOT
BRANCH   5  14
ATOM     13  O   UNL     1     104.958 129.049 148.671  0.00  0.00    +0.000 OA
ATOM     14  C   UNL     1     104.599 126.796 147.712  0.00  0.00    +0.000 A 
ATOM     15  C   UNL     1     104.550 126.910 148.528  0.00  0.00    +0.000 A 
ATOM     16  C   UNL     1     104.767 127.433 147.216  0.00  0.00    +0.000 A 
ATOM     17  C   UNL     1     104.670 127.660 148.847  0.00  0.00    +0.000 A 
ATOM     18  C   UNL     1     104.887 128.185 147.536  0.00  0.00    +0.000 A 
ATOM     19  C   UNL     1     104.838 128.298 148.352  0.00  0.00    +0.000 A 
ENDBRANCH   5  14
BRANCH  12  20
ATOM     20  O   UNL     1     101.908 123.562 146.639  0.00  0.00    +0.000 OA
ATOM     21  C   UNL     1     101.514 123.515 145.917  0.00  0.00    +0.000 C 
ENDBRANCH  12  20
BRANCH   4  22
ATOM     22  O   UNL     1     105.882 125.928 147.144  0.00  0.00    +0.000 OA
BRANCH  22  31
ATOM     23  O   UNL     1     106.266 125.122 148.260  0.00  0.00    +0.000 OA
ATOM     24  O   UNL     1     108.629 125.244 147.534  0.00  0.00    +0.000 OA
ATOM     25  O   UNL     1     108.225 124.398 148.892  0.00  0.00    +0.000 OA
ATOM     26  O   UNL     1     107.457 126.009 146.660  0.00  0.00    +0.000 OA
ATOM     27  C   UNL     1     107.841 125.204 147.776  0.00  0.00    +0.000 C 
ATOM     28  C   UNL     1     107.639 124.781 148.454  0.00  0.00    +0.000 C 
ATOM     29  C   UNL     1     107.255 125.586 147.339  0.00  0.00    +0.000 C 
ATOM     30  C   UNL     1     106.851 124.740 148.696  0.00  0.00    +0.000 C 
ATOM     31  C   UNL     1     106.467 125.545 147.581  0.00  0.00    +0.000 C 
ATOM     32  C   UNL     1     106.650 124.316 149.375  0.00  0.00    +0.000 C 
ENDBRANCH  22  31
ENDBRANCH   4  22
TORSDOF 4
ENDMDL
MODEL 2
REMARK VINA RESULT:      -9.7      1.405      2.112
REMARK  Name = 5748662
REMARK  4 active torsions:
REMARK  status: ('A' for Active; 'I' for Inactive)
REMARK    1  A    between atoms: O_2  and  C_15
REMARK    2  A    between atoms: O_2  and  C_17
REMARK    3  A    between atoms: O_9  and  C_26
REMARK    4  A    between atoms: C_18  and  C_22
REMARK                            x       y       z     vdW  Elec       q    Type
REMARK                         _______ _______ _______ _____ _____    ______ ____
ROOT
ATOM      1  O   UNL     1     102.658 124.646 147.148  0.00  0.00    +0.000 OA
ATOM      2  O   UNL     1     104.754 123.656 146.283  0.00  0.00    +0.000 OA
ATOM      3  O   UNL     1     104.012 122.739 145.453  0.00  0.00    +0.000 OA
ATOM      4  C   UNL     1     104.086 124.600 147.122  0.00  0.00    +0.000 A 
ATOM      5  C   UNL     1     103.387 124.930 147.410  0.00  0.00    +0.000 A 
ATOM      6  C   UNL     1     104.055 123.986 146.571  0.00  0.00    +0.000 A 
ATOM      7  C   UNL     1     103.326 123.703 146.309  0.00  0.00    +0.000 A 
ATOM      8  C   UNL     1     102.628 124.033 146.598  0.00  0.00    +0.000 A 
ATOM      9  C   UNL     1     103.307 123.063 145.736  0.00  0.00    +0.000 A 
ATOM     10  C   UNL     1     101.861 123.746 146.333  0.00  0.00    +0.000 A 
ATOM     11  C   UNL     1     102.551 122.764 145.459  0.00  0.00    +0.000 A 
ATOM     12  C   UNL     1     101.823 123.107 145.760  0.00  0.00    +0.000 A 
ENDROOT
BRANCH   5  14
ATOM     13  O   UNL     1     103.509 127.385 149.612  0.00  0.00    +0.000 OA
ATOM     14  C   UNL     1     103.417 125.544 147.961  0.00  0.00    +0.000 A 
ATOM     15  C   UNL     1     103.615 125.385 148.746  0.00  0.00    +0.000 A 
ATOM     16  C   UNL     1     103.250 126.317 147.726  0.00  0.00    +0.000 A 
ATOM     17  C   UNL     1     103.646 125.998 149.296  0.00  0.00    +0.000 A 
ATOM     18  C   UNL     1     103.281 126.931 148.277  0.00  0.00    +0.000 A 
ATOM     19  C   UNL     1     103.479 126.772 149.062  0.00  0.00    +0.000 A 
ENDBRANCH   5  14
BRANCH  12  20
ATOM     20  O   UNL     1     101.093 122.826 145.500  0.00  0.00    +0.000 OA
ATOM     21  C   UNL     1     100.902 122.852 144.699  0.00  0.00    +0.000 C 
ENDBRANCH  12  20
BRANCH   4  22
ATOM     22  O   UNL     1     104.815 124.884 147.384  0.00  0.00    +0.000 OA
BRANCH  22  31
ATOM     23  O   UNL     1     105.094 125.612 146.186  0.00  0.00    +0.000 OA
ATOM     24  O   UNL     1     107.517 125.246 146.528  0.00  0.00    +0.000 OA
ATOM     25  O   UNL     1     106.988 126.096 145.216  0.00  0.00    +0.000 OA
ATOM     26  O   UNL     1     106.431 124.640 147.611  0.00  0.00    +0.000 OA
ATOM     27  C   UNL     1     106.709 125.368 146.414  0.00  0.00    +0.000 C 
ATOM     28  C   UNL     1     106.444 125.793 145.758  0.00  0.00    +0.000 C 
ATOM     29  C   UNL     1     106.166 125.065 146.955  0.00  0.00    +0.000 C 
ATOM     30  C   UNL     1     105.636 125.915 145.644  0.00  0.00    +0.000 C 
ATOM     31  C   UNL     1     105.358 125.187 146.841  0.00  0.00    +0.000 C 
ATOM     32  C   UNL     1     105.372 126.340 144.988  0.00  0.00    +0.000 C 
ENDBRANCH  22  31
ENDBRANCH   4  22
TORSDOF 4
ENDMDL
MODEL 3
REMARK VINA RESULT:      -9.4      1.607      2.922
REMARK  Name = 5748662
REMARK  4 active torsions:
REMARK  status: ('A' for Active; 'I' for Inactive)
REMARK    1  A    between atoms: O_2  and  C_15
REMARK    2  A    between atoms: O_2  and  C_17
REMARK    3  A    between atoms: O_9  and  C_26
REMARK    4  A    between atoms: C_18  and  C_22
REMARK                            x       y       z     vdW  Elec       q    Type
REMARK                         _______ _______ _______ _____ _____    ______ ____
ROOT
ATOM      1  O   UNL     1     104.060 124.591 148.248  0.00  0.00    +0.000 OA
ATOM      2  O   UNL     1     104.046 124.326 145.787  0.00  0.00    +0.000 OA
ATOM      3  O   UNL     1     102.614 124.149 145.786  0.00  0.00    +0.000 OA
ATOM      4  C   UNL     1     104.762 124.545 147.004  0.00  0.00    +0.000 A 
ATOM      5  C   UNL     1     104.766 124.633 147.824  0.00  0.00    +0.000 A 
ATOM      6  C   UNL     1     104.050 124.414 146.607  0.00  0.00    +0.000 A 
ATOM      7  C   UNL     1     103.343 124.372 147.031  0.00  0.00    +0.000 A 
ATOM      8  C   UNL     1     103.349 124.461 147.851  0.00  0.00    +0.000 A 
ATOM      9  C   UNL     1     102.609 124.236 146.607  0.00  0.00    +0.000 A 
ATOM     10  C   UNL     1     102.619 124.419 148.304  0.00  0.00    +0.000 A 
ATOM     11  C   UNL     1     101.870 124.191 147.042  0.00  0.00    +0.000 A 
ATOM     12  C   UNL     1     101.874 124.283 147.896  0.00  0.00    +0.000 A 
ENDROOT
BRANCH   5  14
ATOM     13  O   UNL     1     107.613 125.154 149.411  0.00  0.00    +0.000 OA
ATOM     14  C   UNL     1     105.478 124.763 148.221  0.00  0.00    +0.000 A 
ATOM     15  C   UNL     1     105.647 125.509 148.532  0.00  0.00    +0.000 A 
ATOM     16  C   UNL     1     106.021 124.148 148.307  0.00  0.00    +0.000 A 
ATOM     17  C   UNL     1     106.358 125.639 148.928  0.00  0.00    +0.000 A 
ATOM     18  C   UNL     1     106.733 124.278 148.704  0.00  0.00    +0.000 A 
ATOM     19  C   UNL     1     106.902 125.024 149.015  0.00  0.00    +0.000 A 
ENDBRANCH   5  14
BRANCH  12  20
ATOM     20  O   UNL     1     101.169 124.241 148.322  0.00  0.00    +0.000 OA
ATOM     21  C   UNL     1     100.915 123.520 148.629  0.00  0.00    +0.000 C 
ENDBRANCH  12  20
BRANCH   4  22
ATOM     22  O   UNL     1     105.469 124.587 146.581  0.00  0.00    +0.000 OA
BRANCH  22  31
ATOM     23  O   UNL     1     105.252 125.917 146.104  0.00  0.00    +0.000 OA
ATOM     24  O   UNL     1     106.483 125.373 144.027  0.00  0.00    +0.000 OA
ATOM     25  O   UNL     1     105.857 126.884 144.243  0.00  0.00    +0.000 OA
ATOM     26  O   UNL     1     106.290 124.224 145.196  0.00  0.00    +0.000 OA
ATOM     27  C   UNL     1     106.073 125.554 144.720  0.00  0.00    +0.000 C 
ATOM     28  C   UNL     1     105.759 126.309 144.828  0.00  0.00    +0.000 C 
ATOM     29  C   UNL     1     105.976 124.980 145.304  0.00  0.00    +0.000 C 
ATOM     30  C   UNL     1     105.349 126.491 145.520  0.00  0.00    +0.000 C 
ATOM     31  C   UNL     1     105.566 125.162 145.997  0.00  0.00    +0.000 C 
ATOM     32  C   UNL     1     105.036 127.246 145.628  0.00  0.00    +0.000 C 
ENDBRANCH  22  31
ENDBRANCH   4  22
TORSDOF 4
ENDMDL
MODEL 4
REMARK VINA RESULT:      -9.4     11.050     12.952
REMARK  Name = 5748662
REMARK  4 active torsions:
REMARK  status: ('A' for Active; 'I' for Inactive)
REMARK    1  A    between atoms: O_2  and  C_15
REMARK    2  A    between atoms: O_2  and  C_17
REMARK    3  A    between atoms: O_9  and  C_26
REMARK    4  A    between atoms: C_18  and  C_22
REMARK                            x       y       z     vdW  Elec       q    Type
REMARK                         _______ _______ _______ _____ _____    ______ ____
ROOT
ATOM      1  O   UNL     1     113.398 126.172 138.651  0.00  0.00    +0.000 OA
ATOM      2  O   UNL     1     111.027 125.671 138.151  0.00  0.00    +0.000 OA
ATOM      3  O   UNL     1     110.617 126.192 139.433  0.00  0.00    +0.000 OA
ATOM      4  C   UNL     1     112.402 125.661 137.763  0.00  0.00    +0.000 A 
ATOM      5  C   UNL     1     113.192 125.828 137.930  0.00  0.00    +0.000 A 
ATOM      6  C   UNL     1     111.817 125.838 138.318  0.00  0.00    +0.000 A 
ATOM      7  C   UNL     1     112.023 126.183 139.039  0.00  0.00    +0.000 A 
ATOM      8  C   UNL     1     112.814 126.349 139.205  0.00  0.00    +0.000 A 
ATOM      9  C   UNL     1     111.406 126.363 139.608  0.00  0.00    +0.000 A 
ATOM     10  C   UNL     1     113.041 126.708 139.953  0.00  0.00    +0.000 A 
ATOM     11  C   UNL     1     111.614 126.721 140.361  0.00  0.00    +0.000 A 
ATOM     12  C   UNL     1     112.437 126.895 140.534  0.00  0.00    +0.000 A 
ENDROOT
BRANCH   5  14
ATOM     13  O   UNL     1     115.530 125.119 135.711  0.00  0.00    +0.000 OA
ATOM     14  C   UNL     1     113.777 125.650 137.375  0.00  0.00    +0.000 A 
ATOM     15  C   UNL     1     114.042 124.874 137.289  0.00  0.00    +0.000 A 
ATOM     16  C   UNL     1     114.096 126.250 136.907  0.00  0.00    +0.000 A 
ATOM     17  C   UNL     1     114.626 124.697 136.734  0.00  0.00    +0.000 A 
ATOM     18  C   UNL     1     114.681 126.072 136.352  0.00  0.00    +0.000 A 
ATOM     19  C   UNL     1     114.946 125.296 136.266  0.00  0.00    +0.000 A 
ENDBRANCH   5  14
BRANCH  12  20
ATOM     20  O   UNL     1     112.646 127.240 141.254  0.00  0.00    +0.000 OA
ATOM     21  C   UNL     1     112.692 128.060 141.321  0.00  0.00    +0.000 C 
ENDBRANCH  12  20
BRANCH   4  22
ATOM     22  O   UNL     1     112.196 125.317 137.042  0.00  0.00    +0.000 OA
BRANCH  22  31
ATOM     23  O   UNL     1     111.677 126.533 136.500  0.00  0.00    +0.000 OA
ATOM     24  O   UNL     1     110.141 125.234 135.058  0.00  0.00    +0.000 OA
ATOM     25  O   UNL     1     110.134 126.883 134.996  0.00  0.00    +0.000 OA
ATOM     26  O   UNL     1     111.171 124.451 136.081  0.00  0.00    +0.000 OA
ATOM     27  C   UNL     1     110.653 125.667 135.539  0.00  0.00    +0.000 C 
ATOM     28  C   UNL     1     110.650 126.491 135.508  0.00  0.00    +0.000 C 
ATOM     29  C   UNL     1     111.168 125.276 136.050  0.00  0.00    +0.000 C 
ATOM     30  C   UNL     1     111.162 126.924 135.988  0.00  0.00    +0.000 C 
ATOM     31  C   UNL     1     111.680 125.709 136.531  0.00  0.00    +0.000 C 
ATOM     32  C   UNL     1     111.158 127.748 135.957  0.00  0.00    +0.000 C 
ENDBRANCH  22  31
ENDBRANCH   4  22
TORSDOF 4
ENDMDL
MODEL 5
REMARK VINA RESULT:      -9.3     12.393     14.304
REMARK  Name = 5748662
REMARK  4 active torsions:
REMARK  status: ('A' for Active; 'I' for Inactive)
REMARK    1  A    between atoms: O_2  and  C_15
REMARK    2  A    between atoms: O_2  and  C_17
REMARK    3  A    between atoms: O_9  and  C_26
REMARK    4  A    between atoms: C_18  and  C_22
REMARK                            x       y       z     vdW  Elec       q    Type
REMARK                         _______ _______ _______ _____ _____    ______ ____
ROOT
ATOM      1  O   UNL     1     114.117 127.531 136.128  0.00  0.00    +0.000 OA
ATOM      2  O   UNL     1     111.832 128.359 136.597  0.00  0.00    +0.000 OA
ATOM      3  O   UNL     1     112.120 129.611 135.941  0.00  0.00    +0.000 OA
ATOM      4  C   UNL     1     112.818 127.329 136.690  0.00  0.00    +0.000 A 
ATOM      5  C   UNL     1     113.580 127.054 136.534  0.00  0.00    +0.000 A 
ATOM      6  C   UNL     1     112.593 128.083 136.441  0.00  0.00    +0.000 A 
ATOM      7  C   UNL     1     113.130 128.561 136.035  0.00  0.00    +0.000 A 
ATOM      8  C   UNL     1     113.892 128.284 135.879  0.00  0.00    +0.000 A 
ATOM      9  C   UNL     1     112.884 129.343 135.781  0.00  0.00    +0.000 A 
ATOM     10  C   UNL     1     114.460 128.773 135.457  0.00  0.00    +0.000 A 
ATOM     11  C   UNL     1     113.438 129.846 135.358  0.00  0.00    +0.000 A 
ATOM     12  C   UNL     1     114.232 129.558 135.195  0.00  0.00    +0.000 A 
ENDROOT
BRANCH   5  14
ATOM     13  O   UNL     1     114.478 124.039 137.532  0.00  0.00    +0.000 OA
ATOM     14  C   UNL     1     113.805 126.299 136.783  0.00  0.00    +0.000 A 
ATOM     15  C   UNL     1     113.879 125.688 136.234  0.00  0.00    +0.000 A 
ATOM     16  C   UNL     1     113.954 126.157 137.582  0.00  0.00    +0.000 A 
ATOM     17  C   UNL     1     114.104 124.935 136.484  0.00  0.00    +0.000 A 
ATOM     18  C   UNL     1     114.179 125.403 137.832  0.00  0.00    +0.000 A 
ATOM     19  C   UNL     1     114.254 124.792 137.282  0.00  0.00    +0.000 A 
ENDBRANCH   5  14
BRANCH  12  20
ATOM     20  O   UNL     1     114.771 130.034 134.790  0.00  0.00    +0.000 OA
ATOM     21  C   UNL     1     115.232 130.579 135.202  0.00  0.00    +0.000 C 
ENDBRANCH  12  20
BRANCH   4  22
ATOM     22  O   UNL     1     112.281 126.852 137.096  0.00  0.00    +0.000 OA
BRANCH  22  31
ATOM     23  O   UNL     1     111.514 126.530 135.934  0.00  0.00    +0.000 OA
ATOM     24  O   UNL     1     109.484 126.319 137.333  0.00  0.00    +0.000 OA
ATOM     25  O   UNL     1     109.393 126.068 135.705  0.00  0.00    +0.000 OA
ATOM     26  O   UNL     1     110.928 126.711 138.029  0.00  0.00    +0.000 OA
ATOM     27  C   UNL     1     110.160 126.389 136.867  0.00  0.00    +0.000 C 
ATOM     28  C   UNL     1     110.116 126.264 136.053  0.00  0.00    +0.000 C 
ATOM     29  C   UNL     1     110.883 126.585 137.214  0.00  0.00    +0.000 C 
ATOM     30  C   UNL     1     110.793 126.334 135.586  0.00  0.00    +0.000 C 
ATOM     31  C   UNL     1     111.559 126.655 136.747  0.00  0.00    +0.000 C 
ATOM     32  C   UNL     1     110.747 126.208 134.772  0.00  0.00    +0.000 C 
ENDBRANCH  22  31
ENDBRANCH   4  22
TORSDOF 4
ENDMDL
MODEL 6
REMARK VINA RESULT:      -9.2      0.894      3.271
REMARK  Name = 5748662
REMARK  4 active torsions:
REMARK  status: ('A' for Active; 'I' for Inactive)
REMARK    1  A    between atoms: O_2  and  C_15
REMARK    2  A    between atoms: O_2  and  C_17
REMARK    3  A    between atoms: O_9  and  C_26
REMARK    4  A    between atoms: C_18  and  C_22
REMARK                            x       y       z     vdW  Elec       q    Type
REMARK                         _______ _______ _______ _____ _____    ______ ____
ROOT
ATOM      1  O   UNL     1     105.117 124.162 147.121  0.00  0.00    +0.000 OA
ATOM      2  O   UNL     1     103.570 125.821 148.111  0.00  0.00    +0.000 OA
ATOM      3  O   UNL     1     102.441 125.192 147.469  0.00  0.00    +0.000 OA
ATOM      4  C   UNL     1     104.894 125.312 147.940  0.00  0.00    +0.000 A 
ATOM      5  C   UNL     1     105.409 124.759 147.610  0.00  0.00    +0.000 A 
ATOM      6  C   UNL     1     104.085 125.268 147.781  0.00  0.00    +0.000 A 
ATOM      7  C   UNL     1     103.793 124.671 147.292  0.00  0.00    +0.000 A 
ATOM      8  C   UNL     1     104.309 124.118 146.963  0.00  0.00    +0.000 A 
ATOM      9  C   UNL     1     102.949 124.635 147.135  0.00  0.00    +0.000 A 
ATOM     10  C   UNL     1     104.017 123.491 146.452  0.00  0.00    +0.000 A 
ATOM     11  C   UNL     1     102.639 124.016 146.627  0.00  0.00    +0.000 A 
ATOM     12  C   UNL     1     103.176 123.440 146.283  0.00  0.00    +0.000 A 
ENDROOT
BRANCH   5  14
ATOM     13  O   UNL     1     108.643 124.937 148.246  0.00  0.00    +0.000 OA
ATOM     14  C   UNL     1     106.219 124.804 147.769  0.00  0.00    +0.000 A 
ATOM     15  C   UNL     1     106.737 125.088 147.194  0.00  0.00    +0.000 A 
ATOM     16  C   UNL     1     106.508 124.564 148.503  0.00  0.00    +0.000 A 
ATOM     17  C   UNL     1     107.545 125.132 147.353  0.00  0.00    +0.000 A 
ATOM     18  C   UNL     1     107.317 124.608 148.662  0.00  0.00    +0.000 A 
ATOM     19  C   UNL     1     107.835 124.893 148.087  0.00  0.00    +0.000 A 
ENDBRANCH   5  14
BRANCH  12  20
ATOM     20  O   UNL     1     102.886 122.842 145.794  0.00  0.00    +0.000 OA
ATOM     21  C   UNL     1     103.011 122.878 144.980  0.00  0.00    +0.000 C 
ENDBRANCH  12  20
BRANCH   4  22
ATOM     22  O   UNL     1     105.186 125.909 148.428  0.00  0.00    +0.000 OA
BRANCH  22  31
ATOM     23  O   UNL     1     105.083 126.931 147.435  0.00  0.00    +0.000 OA
ATOM     24  O   UNL     1     104.695 128.615 149.207  0.00  0.00    +0.000 OA
ATOM     25  O   UNL     1     104.721 129.076 147.623  0.00  0.00    +0.000 OA
ATOM     26  O   UNL     1     104.927 127.032 149.610  0.00  0.00    +0.000 OA
ATOM     27  C   UNL     1     104.824 128.054 148.616  0.00  0.00    +0.000 C 
ATOM     28  C   UNL     1     104.838 128.283 147.824  0.00  0.00    +0.000 C 
ATOM     29  C   UNL     1     104.941 127.262 148.817  0.00  0.00    +0.000 C 
ATOM     30  C   UNL     1     104.967 127.722 147.233  0.00  0.00    +0.000 C 
ATOM     31  C   UNL     1     105.070 126.701 148.226  0.00  0.00    +0.000 C 
ATOM     32  C   UNL     1     104.980 127.953 146.441  0.00  0.00    +0.000 C 
ENDBRANCH  22  31
ENDBRANCH   4  22
TORSDOF 4
ENDMDL
MODEL 7
REMARK VINA RESULT:      -9.2     11.247     13.188
REMARK  Name = 5748662
REMARK  4 active torsions:
REMARK  status: ('A' for Active; 'I' for Inactive)
REMARK    1  A    between atoms: O_2  and  C_15
REMARK    2  A    between atoms: O_2  and  C_17
REMARK    3  A    between atoms: O_9  and  C_26
REMARK    4  A    between atoms: C_18  and  C_22
REMARK                            x       y       z     vdW  Elec       q    Type
REMARK                         _______ _______ _______ _____ _____    ______ ____
ROOT
ATOM      1  O   UNL     1     113.555 127.259 136.512  0.00  0.00    +0.000 OA
ATOM      2  O   UNL     1     112.271 128.273 138.369  0.00  0.00    +0.000 OA
ATOM      3  O   UNL     1     112.572 129.600 137.890  0.00  0.00    +0.000 OA
ATOM      4  C   UNL     1     112.757 127.114 137.689  0.00  0.00    +0.000 A 
ATOM      5  C   UNL     1     113.185 126.776 137.070  0.00  0.00    +0.000 A 
ATOM      6  C   UNL     1     112.699 127.935 137.750  0.00  0.00    +0.000 A 
ATOM      7  C   UNL     1     113.070 128.418 137.193  0.00  0.00    +0.000 A 
ATOM      8  C   UNL     1     113.498 128.079 136.574  0.00  0.00    +0.000 A 
ATOM      9  C   UNL     1     113.002 129.270 137.267  0.00  0.00    +0.000 A 
ATOM     10  C   UNL     1     113.888 128.571 135.987  0.00  0.00    +0.000 A 
ATOM     11  C   UNL     1     113.386 129.778 136.690  0.00  0.00    +0.000 A 
ATOM     12  C   UNL     1     113.832 129.426 136.045  0.00  0.00    +0.000 A 
ENDROOT
BRANCH   5  14
ATOM     13  O   UNL     1     113.414 123.493 136.824  0.00  0.00    +0.000 OA
ATOM     14  C   UNL     1     113.242 125.955 137.008  0.00  0.00    +0.000 A 
ATOM     15  C   UNL     1     113.947 125.574 137.208  0.00  0.00    +0.000 A 
ATOM     16  C   UNL     1     112.595 125.515 136.747  0.00  0.00    +0.000 A 
ATOM     17  C   UNL     1     114.004 124.754 137.147  0.00  0.00    +0.000 A 
ATOM     18  C   UNL     1     112.653 124.694 136.686  0.00  0.00    +0.000 A 
ATOM     19  C   UNL     1     113.357 124.313 136.885  0.00  0.00    +0.000 A 
ENDBRANCH   5  14
BRANCH  12  20
ATOM     20  O   UNL     1     114.203 129.906 135.487  0.00  0.00    +0.000 OA
ATOM     21  C   UNL     1     114.943 130.231 135.648  0.00  0.00    +0.000 C 
ENDBRANCH  12  20
BRANCH   4  22
ATOM     22  O   UNL     1     112.386 126.631 138.246  0.00  0.00    +0.000 OA
BRANCH  22  31
ATOM     23  O   UNL     1     113.354 126.902 139.262  0.00  0.00    +0.000 OA
ATOM     24  O   UNL     1     111.645 126.475 141.002  0.00  0.00    +0.000 OA
ATOM     25  O   UNL     1     113.182 126.888 141.438  0.00  0.00    +0.000 OA
ATOM     26  O   UNL     1     111.247 126.347 139.406  0.00  0.00    +0.000 OA
ATOM     27  C   UNL     1     112.215 126.618 140.422  0.00  0.00    +0.000 C 
ATOM     28  C   UNL     1     112.983 126.824 140.640  0.00  0.00    +0.000 C 
ATOM     29  C   UNL     1     112.017 126.554 139.624  0.00  0.00    +0.000 C 
ATOM     30  C   UNL     1     113.553 126.966 140.060  0.00  0.00    +0.000 C 
ATOM     31  C   UNL     1     112.586 126.696 139.044  0.00  0.00    +0.000 C 
ATOM     32  C   UNL     1     114.321 127.172 140.279  0.00  0.00    +0.000 C 
ENDBRANCH  22  31
ENDBRANCH   4  22
TORSDOF 4
ENDMDL
MODEL 8
REMARK VINA RESULT:      -9.0     12.218     13.600
REMARK  Name = 5748662
REMARK  4 active torsions:
REMARK  status: ('A' for Active; 'I' for Inactive)
REMARK    1  A    between atoms: O_2  and  C_15
REMARK    2  A    between atoms: O_2  and  C_17
REMARK    3  A    between atoms: O_9  and  C_26
REMARK    4  A    between atoms: C_18  and  C_22
REMARK                            x       y       z     vdW  Elec       q    Type
REMARK                         _______ _______ _______ _____ _____    ______ ____
ROOT
ATOM      1  O   UNL     1     112.473 126.967 136.110  0.00  0.00    +0.000 OA
ATOM      2  O   UNL     1     110.172 127.307 135.267  0.00  0.00    +0.000 OA
ATOM      3  O   UNL     1     109.902 125.892 135.350  0.00  0.00    +0.000 OA
ATOM      4  C   UNL     1     111.443 127.840 135.642  0.00  0.00    +0.000 A 
ATOM      5  C   UNL     1     112.210 127.726 135.924  0.00  0.00    +0.000 A 
ATOM      6  C   UNL     1     110.939 127.193 135.548  0.00  0.00    +0.000 A 
ATOM      7  C   UNL     1     111.202 126.433 135.734  0.00  0.00    +0.000 A 
ATOM      8  C   UNL     1     111.969 126.321 136.016  0.00  0.00    +0.000 A 
ATOM      9  C   UNL     1     110.668 125.769 135.632  0.00  0.00    +0.000 A 
ATOM     10  C   UNL     1     112.255 125.534 136.214  0.00  0.00    +0.000 A 
ATOM     11  C   UNL     1     110.936 124.976 135.824  0.00  0.00    +0.000 A 
ATOM     12  C   UNL     1     111.735 124.858 136.117  0.00  0.00    +0.000 A 
ENDROOT
BRANCH   5  14
ATOM     13  O   UNL     1     114.226 130.311 136.301  0.00  0.00    +0.000 OA
ATOM     14  C   UNL     1     112.715 128.373 136.018  0.00  0.00    +0.000 A 
ATOM     15  C   UNL     1     112.894 128.649 136.775  0.00  0.00    +0.000 A 
ATOM     16  C   UNL     1     113.039 128.742 135.356  0.00  0.00    +0.000 A 
ATOM     17  C   UNL     1     113.397 129.295 136.869  0.00  0.00    +0.000 A 
ATOM     18  C   UNL     1     113.544 129.389 135.451  0.00  0.00    +0.000 A 
ATOM     19  C   UNL     1     113.723 129.665 136.207  0.00  0.00    +0.000 A 
ENDBRANCH   5  14
BRANCH  12  20
ATOM     20  O   UNL     1     112.001 124.099 136.305  0.00  0.00    +0.000 OA
ATOM     21  C   UNL     1     111.983 123.838 137.086  0.00  0.00    +0.000 C 
ENDBRANCH  12  20
BRANCH   4  22
ATOM     22  O   UNL     1     111.180 128.599 135.456  0.00  0.00    +0.000 OA
BRANCH  22  31
ATOM     23  O   UNL     1     110.393 128.756 136.638  0.00  0.00    +0.000 OA
ATOM     24  O   UNL     1     108.788 130.160 135.382  0.00  0.00    +0.000 OA
ATOM     25  O   UNL     1     108.535 129.850 136.982  0.00  0.00    +0.000 OA
ATOM     26  O   UNL     1     110.110 129.535 134.618  0.00  0.00    +0.000 OA
ATOM     27  C   UNL     1     109.323 129.692 135.800  0.00  0.00    +0.000 C 
ATOM     28  C   UNL     1     109.197 129.537 136.601  0.00  0.00    +0.000 C 
ATOM     29  C   UNL     1     109.984 129.379 135.419  0.00  0.00    +0.000 C 
ATOM     30  C   UNL     1     109.732 129.069 137.019  0.00  0.00    +0.000 C 
ATOM     31  C   UNL     1     110.519 128.911 135.838  0.00  0.00    +0.000 C 
ATOM     32  C   UNL     1     109.605 128.914 137.820  0.00  0.00    +0.000 C 
ENDBRANCH  22  31
ENDBRANCH   4  22
TORSDOF 4
ENDMDL
MODEL 9
REMARK VINA RESULT:      -8.9     11.166     12.931
REMARK  Name = 5748662
REMARK  4 active torsions:
REMARK  status: ('A' for Active; 'I' for Inactive)
REMARK    1  A    between atoms: O_2  and  C_15
REMARK    2  A    between atoms: O_2  and  C_17
REMARK    3  A    between atoms: O_9  and  C_26
REMARK    4  A    between atoms: C_18  and  C_22
REMARK                            x       y       z     vdW  Elec       q    Type
REMARK                         _______ _______ _______ _____ _____    ______ ____
ROOT
ATOM      1  O   UNL     1     113.053 128.363 138.315  0.00  0.00    +0.000 OA
ATOM      2  O   UNL     1     112.066 126.132 138.731  0.00  0.00    +0.000 OA
ATOM      3  O   UNL     1     112.321 126.252 140.146  0.00  0.00    +0.000 OA
ATOM      4  C   UNL     1     112.428 127.175 137.824  0.00  0.00    +0.000 A 
ATOM      5  C   UNL     1     112.757 127.919 137.686  0.00  0.00    +0.000 A 
ATOM      6  C   UNL     1     112.395 126.875 138.593  0.00  0.00    +0.000 A 
ATOM      7  C   UNL     1     112.692 127.319 139.222  0.00  0.00    +0.000 A 
ATOM      8  C   UNL     1     113.020 128.063 139.082  0.00  0.00    +0.000 A 
ATOM      9  C   UNL     1     112.652 126.997 140.017  0.00  0.00    +0.000 A 
ATOM     10  C   UNL     1     113.332 128.536 139.730  0.00  0.00    +0.000 A 
ATOM     11  C   UNL     1     112.959 127.454 140.676  0.00  0.00    +0.000 A 
ATOM     12  C   UNL     1     113.301 128.229 140.532  0.00  0.00    +0.000 A 
ENDROOT
BRANCH   5  14
ATOM     13  O   UNL     1     112.886 129.118 134.614  0.00  0.00    +0.000 OA
ATOM     14  C   UNL     1     112.789 128.219 136.918  0.00  0.00    +0.000 A 
ATOM     15  C   UNL     1     113.508 128.239 136.512  0.00  0.00    +0.000 A 
ATOM     16  C   UNL     1     112.103 128.499 136.555  0.00  0.00    +0.000 A 
ATOM     17  C   UNL     1     113.540 128.538 135.745  0.00  0.00    +0.000 A 
ATOM     18  C   UNL     1     112.135 128.798 135.787  0.00  0.00    +0.000 A 
ATOM     19  C   UNL     1     112.854 128.818 135.382  0.00  0.00    +0.000 A 
ENDBRANCH   5  14
BRANCH  12  20
ATOM     20  O   UNL     1     113.598 128.675 141.159  0.00  0.00    +0.000 OA
ATOM     21  C   UNL     1     113.196 129.348 141.414  0.00  0.00    +0.000 C 
ENDBRANCH  12  20
BRANCH   4  22
ATOM     22  O   UNL     1     112.132 126.731 137.195  0.00  0.00    +0.000 OA
BRANCH  22  31
ATOM     23  O   UNL     1     113.237 125.826 137.173  0.00  0.00    +0.000 OA
ATOM     24  O   UNL     1     111.758 124.041 136.308  0.00  0.00    +0.000 OA
ATOM     25  O   UNL     1     113.357 123.731 136.573  0.00  0.00    +0.000 OA
ATOM     26  O   UNL     1     111.145 125.541 136.619  0.00  0.00    +0.000 OA
ATOM     27  C   UNL     1     112.251 124.636 136.596  0.00  0.00    +0.000 C 
ATOM     28  C   UNL     1     113.050 124.482 136.729  0.00  0.00    +0.000 C 
ATOM     29  C   UNL     1     111.945 125.386 136.752  0.00  0.00    +0.000 C 
ATOM     30  C   UNL     1     113.543 125.077 137.017  0.00  0.00    +0.000 C 
ATOM     31  C   UNL     1     112.439 125.981 137.040  0.00  0.00    +0.000 C 
ATOM     32  C   UNL     1     114.343 124.921 137.150  0.00  0.00    +0.000 C 
ENDBRANCH  22  31
ENDBRANCH   4  22
TORSDOF 4
ENDMDL
MODEL 10
REMARK VINA RESULT:      -8.9     12.584     14.356
REMARK  Name = 5748662
REMARK  4 active torsions:
REMARK  status: ('A' for Active; 'I' for Inactive)
REMARK    1  A    between atoms: O_2  and  C_15
REMARK    2  A    between atoms: O_2  and  C_17
REMARK    3  A    between atoms: O_9  and  C_26
REMARK    4  A    between atoms: C_18  and  C_22
REMARK                            x       y       z     vdW  Elec       q    Type
REMARK                         _______ _______ _______ _____ _____    ______ ____
ROOT
ATOM      1  O   UNL     1     112.499 128.149 135.480  0.00  0.00    +0.000 OA
ATOM      2  O   UNL     1     111.463 129.918 136.866  0.00  0.00    +0.000 OA
ATOM      3  O   UNL     1     112.666 130.712 136.802  0.00  0.00    +0.000 OA
ATOM      4  C   UNL     1     111.379 128.650 136.212  0.00  0.00    +0.000 A 
ATOM      5  C   UNL     1     111.725 128.060 135.750  0.00  0.00    +0.000 A 
ATOM      6  C   UNL     1     111.809 129.329 136.404  0.00  0.00    +0.000 A 
ATOM      7  C   UNL     1     112.583 129.417 136.133  0.00  0.00    +0.000 A 
ATOM      8  C   UNL     1     112.928 128.826 135.671  0.00  0.00    +0.000 A 
ATOM      9  C   UNL     1     113.020 130.127 136.339  0.00  0.00    +0.000 A 
ATOM     10  C   UNL     1     113.734 128.907 135.384  0.00  0.00    +0.000 A 
ATOM     11  C   UNL     1     113.826 130.225 136.061  0.00  0.00    +0.000 A 
ATOM     12  C   UNL     1     114.186 129.611 135.580  0.00  0.00    +0.000 A 
ENDROOT
BRANCH   5  14
ATOM     13  O   UNL     1     110.008 125.349 134.984  0.00  0.00    +0.000 OA
ATOM     14  C   UNL     1     111.295 127.382 135.559  0.00  0.00    +0.000 A 
ATOM     15  C   UNL     1     111.191 126.787 136.121  0.00  0.00    +0.000 A 
ATOM     16  C   UNL     1     110.971 127.299 134.805  0.00  0.00    +0.000 A 
ATOM     17  C   UNL     1     110.762 126.110 135.929  0.00  0.00    +0.000 A 
ATOM     18  C   UNL     1     110.541 126.621 134.613  0.00  0.00    +0.000 A 
ATOM     19  C   UNL     1     110.437 126.026 135.175  0.00  0.00    +0.000 A 
ENDBRANCH   5  14
BRANCH  12  20
ATOM     20  O   UNL     1     114.961 129.696 135.308  0.00  0.00    +0.000 OA
ATOM     21  C   UNL     1     115.148 130.302 134.782  0.00  0.00    +0.000 C 
ENDBRANCH  12  20
BRANCH   4  22
ATOM     22  O   UNL     1     110.605 128.562 136.482  0.00  0.00    +0.000 OA
BRANCH  22  31
ATOM     23  O   UNL     1     110.050 129.489 135.547  0.00  0.00    +0.000 OA
ATOM     24  O   UNL     1     108.284 130.078 137.178  0.00  0.00    +0.000 OA
ATOM     25  O   UNL     1     108.318 130.809 135.699  0.00  0.00    +0.000 OA
ATOM     26  O   UNL     1     109.427 128.954 137.569  0.00  0.00    +0.000 OA
ATOM     27  C   UNL     1     108.873 129.881 136.634  0.00  0.00    +0.000 C 
ATOM     28  C   UNL     1     108.890 130.247 135.895  0.00  0.00    +0.000 C 
ATOM     29  C   UNL     1     109.444 129.320 136.829  0.00  0.00    +0.000 C 
ATOM     30  C   UNL     1     109.479 130.051 135.351  0.00  0.00    +0.000 C 
ATOM     31  C   UNL     1     110.033 129.124 136.286  0.00  0.00    +0.000 C 
ATOM     32  C   UNL     1     109.496 130.417 134.612  0.00  0.00    +0.000 C 
ENDBRANCH  22  31
ENDBRANCH   4  22
TORSDOF 4
ENDMDL
