MODEL 1
REMARK VINA RESULT:     -10.5      0.000      0.000
REMARK  Name = 21674154
REMARK  7 active torsions:
REMARK  status: ('A' for Active; 'I' for Inactive)
REMARK    1  A    between atoms: O_2  and  C_19
REMARK    2  A    between atoms: O_2  and  C_21
REMARK    3  A    between atoms: O_10  and  C_36
REMARK    4  A    between atoms: O_11  and  C_37
REMARK    5  A    between atoms: C_18  and  C_20
REMARK    6  A    between atoms: C_23  and  C_28
REMARK    7  A    between atoms: C_29  and  C_35
REMARK                            x       y       z     vdW  Elec       q    Type
REMARK                         _______ _______ _______ _____ _____    ______ ____
ROOT
ATOM      1  O   UNL     1     112.067 129.392 136.437  0.00  0.00    +0.000 OA
ATOM      2  O   UNL     1     114.009 127.287 136.221  0.00  0.00    +0.000 OA
ATOM      3  O   UNL     1     114.487 129.842 134.881  0.00  0.00    +0.000 OA
ATOM      4  C   UNL     1     111.847 128.139 137.086  0.00  0.00    +0.000 A 
ATOM      5  C   UNL     1     112.568 127.861 136.795  0.00  0.00    +0.000 A 
ATOM      6  C   UNL     1     111.597 128.904 136.907  0.00  0.00    +0.000 A 
ATOM      7  C   UNL     1     113.038 128.350 136.324  0.00  0.00    +0.000 A 
ATOM      8  C   UNL     1     112.787 129.116 136.146  0.00  0.00    +0.000 A 
ATOM      9  C   UNL     1     112.815 127.103 136.973  0.00  0.00    +0.000 A 
ATOM     10  C   UNL     1     113.786 128.050 136.028  0.00  0.00    +0.000 A 
ATOM     11  C   UNL     1     113.529 126.818 136.689  0.00  0.00    +0.000 A 
ATOM     12  C   UNL     1     113.268 129.634 135.657  0.00  0.00    +0.000 A 
ATOM     13  C   UNL     1     114.280 128.555 135.537  0.00  0.00    +0.000 A 
ATOM     14  C   UNL     1     114.019 129.352 135.351  0.00  0.00    +0.000 A 
ENDROOT
BRANCH  11  17
ATOM     15  O   UNL     1     113.357 123.999 136.255  0.00  0.00    +0.000 OA
ATOM     16  O   UNL     1     114.478 123.748 137.440  0.00  0.00    +0.000 OA
ATOM     17  C   UNL     1     113.766 126.051 136.877  0.00  0.00    +0.000 A 
ATOM     18  C   UNL     1     113.443 125.409 136.472  0.00  0.00    +0.000 A 
ATOM     19  C   UNL     1     114.326 125.926 137.469  0.00  0.00    +0.000 A 
ATOM     20  C   UNL     1     113.680 124.641 136.659  0.00  0.00    +0.000 A 
ATOM     21  C   UNL     1     114.563 125.158 137.657  0.00  0.00    +0.000 A 
ATOM     22  C   UNL     1     114.241 124.516 137.252  0.00  0.00    +0.000 A 
ENDBRANCH  11  17
BRANCH   6  24
ATOM     23  O   UNL     1     108.714 130.009 138.071  0.00  0.00    +0.000 OA
ATOM     24  C   UNL     1     110.876 129.180 137.198  0.00  0.00    +0.000 A 
ATOM     25  C   UNL     1     110.859 129.670 137.862  0.00  0.00    +0.000 A 
ATOM     26  C   UNL     1     110.171 128.967 136.825  0.00  0.00    +0.000 A 
ATOM     27  C   UNL     1     109.451 129.244 137.116  0.00  0.00    +0.000 A 
ATOM     28  C   UNL     1     110.139 129.946 138.154  0.00  0.00    +0.000 A 
ATOM     29  C   UNL     1     109.434 129.733 137.780  0.00  0.00    +0.000 A 
BRANCH  27  30
ATOM     30  O   UNL     1     108.746 129.031 136.743  0.00  0.00    +0.000 OA
ATOM     31  C   UNL     1     108.696 129.040 135.920  0.00  0.00    +0.000 C 
ENDBRANCH  27  30
BRANCH  28  32
ATOM     32  O   UNL     1     110.123 130.436 138.817  0.00  0.00    +0.000 OA
ATOM     33  C   UNL     1     110.706 131.009 138.921  0.00  0.00    +0.000 C 
ENDBRANCH  28  32
ENDBRANCH   6  24
BRANCH   4  34
ATOM     34  O   UNL     1     111.377 127.649 137.556  0.00  0.00    +0.000 OA
BRANCH  34  43
ATOM     35  O   UNL     1     111.861 127.582 138.899  0.00  0.00    +0.000 OA
ATOM     36  O   UNL     1     110.484 125.563 139.293  0.00  0.00    +0.000 OA
ATOM     37  O   UNL     1     111.427 126.169 140.504  0.00  0.00    +0.000 OA
ATOM     38  O   UNL     1     110.459 126.304 137.819  0.00  0.00    +0.000 OA
ATOM     39  C   UNL     1     110.943 126.236 139.162  0.00  0.00    +0.000 C 
ATOM     40  C   UNL     1     111.415 126.539 139.767  0.00  0.00    +0.000 C 
ATOM     41  C   UNL     1     110.931 126.607 138.424  0.00  0.00    +0.000 C 
ATOM     42  C   UNL     1     111.874 127.212 139.636  0.00  0.00    +0.000 C 
ATOM     43  C   UNL     1     111.390 127.280 138.293  0.00  0.00    +0.000 C 
BRANCH  42  45
ATOM     44  O   UNL     1     112.506 128.323 140.275  0.00  0.00    +0.000 OA
ATOM     45  C   UNL     1     112.344 127.514 140.241  0.00  0.00    +0.000 C 
ENDBRANCH  42  45
ENDBRANCH  34  43
ENDBRANCH   4  34
TORSDOF 7
ENDMDL
MODEL 2
REMARK VINA RESULT:     -10.4      1.400      4.235
REMARK  Name = 21674154
REMARK  7 active torsions:
REMARK  status: ('A' for Active; 'I' for Inactive)
REMARK    1  A    between atoms: O_2  and  C_19
REMARK    2  A    between atoms: O_2  and  C_21
REMARK    3  A    between atoms: O_10  and  C_36
REMARK    4  A    between atoms: O_11  and  C_37
REMARK    5  A    between atoms: C_18  and  C_20
REMARK    6  A    between atoms: C_23  and  C_28
REMARK    7  A    between atoms: C_29  and  C_35
REMARK                            x       y       z     vdW  Elec       q    Type
REMARK                         _______ _______ _______ _____ _____    ______ ____
ROOT
ATOM      1  O   UNL     1     113.440 127.319 136.165  0.00  0.00    +0.000 OA
ATOM      2  O   UNL     1     112.871 129.843 137.414  0.00  0.00    +0.000 OA
ATOM      3  O   UNL     1     114.544 129.757 135.017  0.00  0.00    +0.000 OA
ATOM      4  C   UNL     1     112.624 127.376 137.337  0.00  0.00    +0.000 A 
ATOM      5  C   UNL     1     112.710 128.197 137.357  0.00  0.00    +0.000 A 
ATOM      6  C   UNL     1     112.989 126.938 136.741  0.00  0.00    +0.000 A 
ATOM      7  C   UNL     1     113.161 128.579 136.781  0.00  0.00    +0.000 A 
ATOM      8  C   UNL     1     113.526 128.139 136.185  0.00  0.00    +0.000 A 
ATOM      9  C   UNL     1     112.348 128.631 137.948  0.00  0.00    +0.000 A 
ATOM     10  C   UNL     1     113.244 129.433 136.812  0.00  0.00    +0.000 A 
ATOM     11  C   UNL     1     112.427 129.446 137.976  0.00  0.00    +0.000 A 
ATOM     12  C   UNL     1     113.999 128.525 135.579  0.00  0.00    +0.000 A 
ATOM     13  C   UNL     1     113.713 129.836 136.215  0.00  0.00    +0.000 A 
ATOM     14  C   UNL     1     114.092 129.378 135.594  0.00  0.00    +0.000 A 
ENDROOT
BRANCH  11  17
ATOM     15  O   UNL     1     112.533 130.729 140.527  0.00  0.00    +0.000 OA
ATOM     16  O   UNL     1     110.944 131.148 140.383  0.00  0.00    +0.000 OA
ATOM     17  C   UNL     1     112.057 129.871 138.578  0.00  0.00    +0.000 A 
ATOM     18  C   UNL     1     112.480 130.088 139.252  0.00  0.00    +0.000 A 
ATOM     19  C   UNL     1     111.262 130.080 138.506  0.00  0.00    +0.000 A 
ATOM     20  C   UNL     1     112.110 130.513 139.853  0.00  0.00    +0.000 A 
ATOM     21  C   UNL     1     110.891 130.506 139.107  0.00  0.00    +0.000 A 
ATOM     22  C   UNL     1     111.315 130.722 139.781  0.00  0.00    +0.000 A 
ENDBRANCH  11  17
BRANCH   6  24
ATOM     23  O   UNL     1     112.642 123.657 136.663  0.00  0.00    +0.000 OA
ATOM     24  C   UNL     1     112.902 126.118 136.722  0.00  0.00    +0.000 A 
ATOM     25  C   UNL     1     113.504 125.632 137.010  0.00  0.00    +0.000 A 
ATOM     26  C   UNL     1     112.213 125.783 136.414  0.00  0.00    +0.000 A 
ATOM     27  C   UNL     1     112.127 124.963 136.395  0.00  0.00    +0.000 A 
ATOM     28  C   UNL     1     113.418 124.812 136.990  0.00  0.00    +0.000 A 
ATOM     29  C   UNL     1     112.728 124.478 136.683  0.00  0.00    +0.000 A 
BRANCH  27  30
ATOM     30  O   UNL     1     111.438 124.628 136.088  0.00  0.00    +0.000 OA
ATOM     31  C   UNL     1     110.969 125.058 135.563  0.00  0.00    +0.000 C 
ENDBRANCH  27  30
BRANCH  28  32
ATOM     32  O   UNL     1     114.019 124.327 137.278  0.00  0.00    +0.000 OA
ATOM     33  C   UNL     1     114.805 124.575 137.236  0.00  0.00    +0.000 C 
ENDBRANCH  28  32
ENDBRANCH   6  24
BRANCH   4  34
ATOM     34  O   UNL     1     112.172 126.996 137.913  0.00  0.00    +0.000 OA
BRANCH  34  43
ATOM     35  O   UNL     1     112.889 126.889 139.145  0.00  0.00    +0.000 OA
ATOM     36  O   UNL     1     110.792 126.284 140.312  0.00  0.00    +0.000 OA
ATOM     37  O   UNL     1     112.207 126.379 141.154  0.00  0.00    +0.000 OA
ATOM     38  O   UNL     1     110.774 126.593 138.691  0.00  0.00    +0.000 OA
ATOM     39  C   UNL     1     111.491 126.486 139.923  0.00  0.00    +0.000 C 
ATOM     40  C   UNL     1     112.199 126.533 140.344  0.00  0.00    +0.000 C 
ATOM     41  C   UNL     1     111.482 126.640 139.112  0.00  0.00    +0.000 C 
ATOM     42  C   UNL     1     112.898 126.735 139.955  0.00  0.00    +0.000 C 
ATOM     43  C   UNL     1     112.181 126.842 138.723  0.00  0.00    +0.000 C 
BRANCH  42  45
ATOM     44  O   UNL     1     114.316 126.573 140.014  0.00  0.00    +0.000 OA
ATOM     45  C   UNL     1     113.605 126.782 140.376  0.00  0.00    +0.000 C 
ENDBRANCH  42  45
ENDBRANCH  34  43
ENDBRANCH   4  34
TORSDOF 7
ENDMDL
MODEL 3
REMARK VINA RESULT:     -10.4      1.606      4.005
REMARK  Name = 21674154
REMARK  7 active torsions:
REMARK  status: ('A' for Active; 'I' for Inactive)
REMARK    1  A    between atoms: O_2  and  C_19
REMARK    2  A    between atoms: O_2  and  C_21
REMARK    3  A    between atoms: O_10  and  C_36
REMARK    4  A    between atoms: O_11  and  C_37
REMARK    5  A    between atoms: C_18  and  C_20
REMARK    6  A    between atoms: C_23  and  C_28
REMARK    7  A    between atoms: C_29  and  C_35
REMARK                            x       y       z     vdW  Elec       q    Type
REMARK                         _______ _______ _______ _____ _____    ______ ____
ROOT
ATOM      1  O   UNL     1     112.974 127.457 136.099  0.00  0.00    +0.000 OA
ATOM      2  O   UNL     1     113.526 129.599 137.931  0.00  0.00    +0.000 OA
ATOM      3  O   UNL     1     114.169 129.915 135.096  0.00  0.00    +0.000 OA
ATOM      4  C   UNL     1     112.665 127.316 137.487  0.00  0.00    +0.000 A 
ATOM      5  C   UNL     1     112.953 128.077 137.628  0.00  0.00    +0.000 A 
ATOM      6  C   UNL     1     112.676 127.007 136.722  0.00  0.00    +0.000 A 
ATOM      7  C   UNL     1     113.252 128.527 137.004  0.00  0.00    +0.000 A 
ATOM      8  C   UNL     1     113.262 128.217 136.239  0.00  0.00    +0.000 A 
ATOM      9  C   UNL     1     112.943 128.383 138.386  0.00  0.00    +0.000 A 
ATOM     10  C   UNL     1     113.549 129.317 137.163  0.00  0.00    +0.000 A 
ATOM     11  C   UNL     1     113.226 129.136 138.536  0.00  0.00    +0.000 A 
ATOM     12  C   UNL     1     113.570 128.676 135.581  0.00  0.00    +0.000 A 
ATOM     13  C   UNL     1     113.861 129.791 136.517  0.00  0.00    +0.000 A 
ATOM     14  C   UNL     1     113.871 129.468 135.721  0.00  0.00    +0.000 A 
ENDROOT
BRANCH  11  17
ATOM     15  O   UNL     1     111.988 130.757 140.538  0.00  0.00    +0.000 OA
ATOM     16  O   UNL     1     113.160 130.322 141.615  0.00  0.00    +0.000 OA
ATOM     17  C   UNL     1     113.209 129.433 139.305  0.00  0.00    +0.000 A 
ATOM     18  C   UNL     1     112.607 129.947 139.537  0.00  0.00    +0.000 A 
ATOM     19  C   UNL     1     113.796 129.215 139.844  0.00  0.00    +0.000 A 
ATOM     20  C   UNL     1     112.590 130.243 140.306  0.00  0.00    +0.000 A 
ATOM     21  C   UNL     1     113.779 129.511 140.614  0.00  0.00    +0.000 A 
ATOM     22  C   UNL     1     113.177 130.025 140.845  0.00  0.00    +0.000 A 
ENDBRANCH  11  17
BRANCH   6  24
ATOM     23  O   UNL     1     111.522 123.966 136.160  0.00  0.00    +0.000 OA
ATOM     24  C   UNL     1     112.387 126.247 136.582  0.00  0.00    +0.000 A 
ATOM     25  C   UNL     1     112.852 125.589 136.763  0.00  0.00    +0.000 A 
ATOM     26  C   UNL     1     111.634 126.144 136.260  0.00  0.00    +0.000 A 
ATOM     27  C   UNL     1     111.346 125.384 136.119  0.00  0.00    +0.000 A 
ATOM     28  C   UNL     1     112.564 124.829 136.623  0.00  0.00    +0.000 A 
ATOM     29  C   UNL     1     111.810 124.726 136.301  0.00  0.00    +0.000 A 
BRANCH  27  30
ATOM     30  O   UNL     1     110.593 125.280 135.798  0.00  0.00    +0.000 OA
ATOM     31  C   UNL     1     110.321 125.795 135.214  0.00  0.00    +0.000 C 
ENDBRANCH  27  30
BRANCH  28  32
ATOM     32  O   UNL     1     113.028 124.171 136.804  0.00  0.00    +0.000 OA
ATOM     33  C   UNL     1     113.850 124.224 136.766  0.00  0.00    +0.000 C 
ENDBRANCH  28  32
ENDBRANCH   6  24
BRANCH   4  34
ATOM     34  O   UNL     1     112.367 126.867 138.111  0.00  0.00    +0.000 OA
BRANCH  34  43
ATOM     35  O   UNL     1     111.043 127.272 138.465  0.00  0.00    +0.000 OA
ATOM     36  O   UNL     1     111.238 126.040 140.603  0.00  0.00    +0.000 OA
ATOM     37  O   UNL     1     109.851 126.856 140.245  0.00  0.00    +0.000 OA
ATOM     38  O   UNL     1     112.497 126.045 139.536  0.00  0.00    +0.000 OA
ATOM     39  C   UNL     1     111.173 126.451 139.890  0.00  0.00    +0.000 C 
ATOM     40  C   UNL     1     110.479 126.859 139.711  0.00  0.00    +0.000 C 
ATOM     41  C   UNL     1     111.803 126.453 139.356  0.00  0.00    +0.000 C 
ATOM     42  C   UNL     1     110.414 127.270 138.998  0.00  0.00    +0.000 C 
ATOM     43  C   UNL     1     111.738 126.864 138.644  0.00  0.00    +0.000 C 
BRANCH  42  45
ATOM     44  O   UNL     1     109.427 127.676 138.048  0.00  0.00    +0.000 OA
ATOM     45  C   UNL     1     109.721 127.677 138.820  0.00  0.00    +0.000 C 
ENDBRANCH  42  45
ENDBRANCH  34  43
ENDBRANCH   4  34
TORSDOF 7
ENDMDL
MODEL 4
REMARK VINA RESULT:     -10.2      1.372      2.275
REMARK  Name = 21674154
REMARK  7 active torsions:
REMARK  status: ('A' for Active; 'I' for Inactive)
REMARK    1  A    between atoms: O_2  and  C_19
REMARK    2  A    between atoms: O_2  and  C_21
REMARK    3  A    between atoms: O_10  and  C_36
REMARK    4  A    between atoms: O_11  and  C_37
REMARK    5  A    between atoms: C_18  and  C_20
REMARK    6  A    between atoms: C_23  and  C_28
REMARK    7  A    between atoms: C_29  and  C_35
REMARK                            x       y       z     vdW  Elec       q    Type
REMARK                         _______ _______ _______ _____ _____    ______ ____
ROOT
ATOM      1  O   UNL     1     113.261 129.650 137.631  0.00  0.00    +0.000 OA
ATOM      2  O   UNL     1     113.565 127.174 136.207  0.00  0.00    +0.000 OA
ATOM      3  O   UNL     1     114.263 129.695 134.897  0.00  0.00    +0.000 OA
ATOM      4  C   UNL     1     112.924 128.412 138.258  0.00  0.00    +0.000 A 
ATOM      5  C   UNL     1     113.139 128.006 137.572  0.00  0.00    +0.000 A 
ATOM      6  C   UNL     1     112.985 129.234 138.287  0.00  0.00    +0.000 A 
ATOM      7  C   UNL     1     113.415 128.423 136.915  0.00  0.00    +0.000 A 
ATOM      8  C   UNL     1     113.476 129.246 136.945  0.00  0.00    +0.000 A 
ATOM      9  C   UNL     1     113.078 127.191 137.544  0.00  0.00    +0.000 A 
ATOM     10  C   UNL     1     113.636 127.990 136.208  0.00  0.00    +0.000 A 
ATOM     11  C   UNL     1     113.289 126.779 136.868  0.00  0.00    +0.000 A 
ATOM     12  C   UNL     1     113.762 129.691 136.268  0.00  0.00    +0.000 A 
ATOM     13  C   UNL     1     113.924 128.419 135.521  0.00  0.00    +0.000 A 
ATOM     14  C   UNL     1     113.988 129.275 135.552  0.00  0.00    +0.000 A 
ENDROOT
BRANCH  11  17
ATOM     15  O   UNL     1     111.821 124.426 136.181  0.00  0.00    +0.000 OA
ATOM     16  O   UNL     1     113.025 123.490 136.811  0.00  0.00    +0.000 OA
ATOM     17  C   UNL     1     113.223 125.957 136.854  0.00  0.00    +0.000 A 
ATOM     18  C   UNL     1     112.555 125.603 136.525  0.00  0.00    +0.000 A 
ATOM     19  C   UNL     1     113.825 125.489 137.169  0.00  0.00    +0.000 A 
ATOM     20  C   UNL     1     112.489 124.781 136.510  0.00  0.00    +0.000 A 
ATOM     21  C   UNL     1     113.759 124.668 137.155  0.00  0.00    +0.000 A 
ATOM     22  C   UNL     1     113.091 124.313 136.825  0.00  0.00    +0.000 A 
ENDBRANCH  11  17
BRANCH   6  24
ATOM     23  O   UNL     1     112.123 130.853 141.030  0.00  0.00    +0.000 OA
ATOM     24  C   UNL     1     112.770 129.638 138.972  0.00  0.00    +0.000 A 
ATOM     25  C   UNL     1     113.283 129.659 139.619  0.00  0.00    +0.000 A 
ATOM     26  C   UNL     1     112.040 130.023 139.013  0.00  0.00    +0.000 A 
ATOM     27  C   UNL     1     111.825 130.428 139.699  0.00  0.00    +0.000 A 
ATOM     28  C   UNL     1     113.068 130.064 140.304  0.00  0.00    +0.000 A 
ATOM     29  C   UNL     1     112.338 130.449 140.344  0.00  0.00    +0.000 A 
BRANCH  27  30
ATOM     30  O   UNL     1     111.096 130.812 139.739  0.00  0.00    +0.000 OA
ATOM     31  C   UNL     1     110.739 131.093 139.051  0.00  0.00    +0.000 C 
ENDBRANCH  27  30
BRANCH  28  32
ATOM     32  O   UNL     1     113.581 130.085 140.949  0.00  0.00    +0.000 OA
ATOM     33  C   UNL     1     114.381 130.249 140.835  0.00  0.00    +0.000 C 
ENDBRANCH  28  32
ENDBRANCH   6  24
BRANCH   4  34
ATOM     34  O   UNL     1     112.648 127.994 138.914  0.00  0.00    +0.000 OA
BRANCH  34  43
ATOM     35  O   UNL     1     111.284 127.602 138.750  0.00  0.00    +0.000 OA
ATOM     36  O   UNL     1     111.518 126.002 140.624  0.00  0.00    +0.000 OA
ATOM     37  O   UNL     1     110.077 126.144 139.836  0.00  0.00    +0.000 OA
ATOM     38  O   UNL     1     112.804 126.927 140.163  0.00  0.00    +0.000 OA
ATOM     39  C   UNL     1     111.440 126.535 139.999  0.00  0.00    +0.000 C 
ATOM     40  C   UNL     1     110.719 126.606 139.605  0.00  0.00    +0.000 C 
ATOM     41  C   UNL     1     112.083 126.998 139.769  0.00  0.00    +0.000 C 
ATOM     42  C   UNL     1     110.641 127.140 138.980  0.00  0.00    +0.000 C 
ATOM     43  C   UNL     1     112.005 127.532 139.144  0.00  0.00    +0.000 C 
BRANCH  42  45
ATOM     44  O   UNL     1     109.644 127.954 138.359  0.00  0.00    +0.000 OA
ATOM     45  C   UNL     1     109.920 127.210 138.586  0.00  0.00    +0.000 C 
ENDBRANCH  42  45
ENDBRANCH  34  43
ENDBRANCH   4  34
TORSDOF 7
ENDMDL
MODEL 5
REMARK VINA RESULT:      -9.9      1.595      3.374
REMARK  Name = 21674154
REMARK  7 active torsions:
REMARK  status: ('A' for Active; 'I' for Inactive)
REMARK    1  A    between atoms: O_2  and  C_19
REMARK    2  A    between atoms: O_2  and  C_21
REMARK    3  A    between atoms: O_10  and  C_36
REMARK    4  A    between atoms: O_11  and  C_37
REMARK    5  A    between atoms: C_18  and  C_20
REMARK    6  A    between atoms: C_23  and  C_28
REMARK    7  A    between atoms: C_29  and  C_35
REMARK                            x       y       z     vdW  Elec       q    Type
REMARK                         _______ _______ _______ _____ _____    ______ ____
ROOT
ATOM      1  O   UNL     1     113.006 128.972 139.017  0.00  0.00    +0.000 OA
ATOM      2  O   UNL     1     112.996 126.104 138.856  0.00  0.00    +0.000 OA
ATOM      3  O   UNL     1     113.938 127.415 141.294  0.00  0.00    +0.000 OA
ATOM      4  C   UNL     1     112.549 128.317 137.832  0.00  0.00    +0.000 A 
ATOM      5  C   UNL     1     112.700 127.584 138.179  0.00  0.00    +0.000 A 
ATOM      6  C   UNL     1     112.702 129.011 138.251  0.00  0.00    +0.000 A 
ATOM      7  C   UNL     1     113.004 127.544 138.945  0.00  0.00    +0.000 A 
ATOM      8  C   UNL     1     113.158 128.239 139.364  0.00  0.00    +0.000 A 
ATOM      9  C   UNL     1     112.548 126.896 137.763  0.00  0.00    +0.000 A 
ATOM     10  C   UNL     1     113.157 126.775 139.295  0.00  0.00    +0.000 A 
ATOM     11  C   UNL     1     112.694 126.164 138.098  0.00  0.00    +0.000 A 
ATOM     12  C   UNL     1     113.475 128.211 140.162  0.00  0.00    +0.000 A 
ATOM     13  C   UNL     1     113.475 126.728 140.093  0.00  0.00    +0.000 A 
ATOM     14  C   UNL     1     113.634 127.451 140.529  0.00  0.00    +0.000 A 
ENDROOT
BRANCH  11  17
ATOM     15  O   UNL     1     113.504 124.199 136.187  0.00  0.00    +0.000 OA
ATOM     16  O   UNL     1     112.060 123.423 136.373  0.00  0.00    +0.000 OA
ATOM     17  C   UNL     1     112.536 125.479 137.667  0.00  0.00    +0.000 A 
ATOM     18  C   UNL     1     113.099 125.181 137.142  0.00  0.00    +0.000 A 
ATOM     19  C   UNL     1     111.813 125.091 137.759  0.00  0.00    +0.000 A 
ATOM     20  C   UNL     1     112.941 124.497 136.711  0.00  0.00    +0.000 A 
ATOM     21  C   UNL     1     111.655 124.406 137.328  0.00  0.00    +0.000 A 
ATOM     22  C   UNL     1     112.219 124.108 136.804  0.00  0.00    +0.000 A 
ENDBRANCH  11  17
BRANCH   6  24
ATOM     23  O   UNL     1     112.098 131.942 136.862  0.00  0.00    +0.000 OA
ATOM     24  C   UNL     1     112.551 129.744 137.904  0.00  0.00    +0.000 A 
ATOM     25  C   UNL     1     111.867 130.162 138.103  0.00  0.00    +0.000 A 
ATOM     26  C   UNL     1     113.083 130.059 137.358  0.00  0.00    +0.000 A 
ATOM     27  C   UNL     1     112.932 130.792 137.011  0.00  0.00    +0.000 A 
ATOM     28  C   UNL     1     111.716 130.895 137.755  0.00  0.00    +0.000 A 
ATOM     29  C   UNL     1     112.249 131.210 137.209  0.00  0.00    +0.000 A 
BRANCH  27  30
ATOM     30  O   UNL     1     113.464 131.108 136.465  0.00  0.00    +0.000 OA
ATOM     31  C   UNL     1     114.273 130.973 136.552  0.00  0.00    +0.000 C 
ENDBRANCH  27  30
BRANCH  28  32
ATOM     32  O   UNL     1     111.033 131.312 137.954  0.00  0.00    +0.000 OA
ATOM     33  C   UNL     1     110.695 131.218 138.700  0.00  0.00    +0.000 C 
ENDBRANCH  28  32
ENDBRANCH   6  24
BRANCH   4  34
ATOM     34  O   UNL     1     112.244 128.356 137.066  0.00  0.00    +0.000 OA
BRANCH  34  43
ATOM     35  O   UNL     1     110.831 128.149 137.044  0.00  0.00    +0.000 OA
ATOM     36  O   UNL     1     110.933 127.701 134.612  0.00  0.00    +0.000 OA
ATOM     37  O   UNL     1     109.486 127.644 135.402  0.00  0.00    +0.000 OA
ATOM     38  O   UNL     1     112.313 128.057 135.445  0.00  0.00    +0.000 OA
ATOM     39  C   UNL     1     110.899 127.850 135.423  0.00  0.00    +0.000 C 
ATOM     40  C   UNL     1     110.175 127.822 135.818  0.00  0.00    +0.000 C 
ATOM     41  C   UNL     1     111.589 128.029 135.840  0.00  0.00    +0.000 C 
ATOM     42  C   UNL     1     110.141 127.971 136.629  0.00  0.00    +0.000 C 
ATOM     43  C   UNL     1     111.555 128.178 136.650  0.00  0.00    +0.000 C 
BRANCH  42  45
ATOM     44  O   UNL     1     109.391 127.741 137.823  0.00  0.00    +0.000 OA
ATOM     45  C   UNL     1     109.418 127.942 137.023  0.00  0.00    +0.000 C 
ENDBRANCH  42  45
ENDBRANCH  34  43
ENDBRANCH   4  34
TORSDOF 7
ENDMDL
MODEL 6
REMARK VINA RESULT:      -9.9      2.630      3.685
REMARK  Name = 21674154
REMARK  7 active torsions:
REMARK  status: ('A' for Active; 'I' for Inactive)
REMARK    1  A    between atoms: O_2  and  C_19
REMARK    2  A    between atoms: O_2  and  C_21
REMARK    3  A    between atoms: O_10  and  C_36
REMARK    4  A    between atoms: O_11  and  C_37
REMARK    5  A    between atoms: C_18  and  C_20
REMARK    6  A    between atoms: C_23  and  C_28
REMARK    7  A    between atoms: C_29  and  C_35
REMARK                            x       y       z     vdW  Elec       q    Type
REMARK                         _______ _______ _______ _____ _____    ______ ____
ROOT
ATOM      1  O   UNL     1     111.608 129.241 135.642  0.00  0.00    +0.000 OA
ATOM      2  O   UNL     1     113.805 129.542 137.469  0.00  0.00    +0.000 OA
ATOM      3  O   UNL     1     114.332 129.203 134.612  0.00  0.00    +0.000 OA
ATOM      4  C   UNL     1     111.366 129.408 137.040  0.00  0.00    +0.000 A 
ATOM      5  C   UNL     1     112.179 129.452 137.176  0.00  0.00    +0.000 A 
ATOM      6  C   UNL     1     111.081 129.303 136.273  0.00  0.00    +0.000 A 
ATOM      7  C   UNL     1     112.707 129.390 136.544  0.00  0.00    +0.000 A 
ATOM      8  C   UNL     1     112.421 129.285 135.777  0.00  0.00    +0.000 A 
ATOM      9  C   UNL     1     112.461 129.556 137.936  0.00  0.00    +0.000 A 
ATOM     10  C   UNL     1     113.550 129.438 136.698  0.00  0.00    +0.000 A 
ATOM     11  C   UNL     1     113.266 129.601 138.082  0.00  0.00    +0.000 A 
ATOM     12  C   UNL     1     112.960 129.220 135.111  0.00  0.00    +0.000 A 
ATOM     13  C   UNL     1     114.104 129.374 136.044  0.00  0.00    +0.000 A 
ATOM     14  C   UNL     1     113.807 129.265 135.245  0.00  0.00    +0.000 A 
ENDROOT
BRANCH  11  17
ATOM     15  O   UNL     1     114.437 131.264 140.089  0.00  0.00    +0.000 OA
ATOM     16  O   UNL     1     114.347 130.022 141.171  0.00  0.00    +0.000 OA
ATOM     17  C   UNL     1     113.536 129.706 138.853  0.00  0.00    +0.000 A 
ATOM     18  C   UNL     1     113.851 130.433 139.085  0.00  0.00    +0.000 A 
ATOM     19  C   UNL     1     113.490 129.085 139.395  0.00  0.00    +0.000 A 
ATOM     20  C   UNL     1     114.121 130.538 139.857  0.00  0.00    +0.000 A 
ATOM     21  C   UNL     1     113.761 129.191 140.167  0.00  0.00    +0.000 A 
ATOM     22  C   UNL     1     114.076 129.917 140.398  0.00  0.00    +0.000 A 
ENDBRANCH  11  17
BRANCH   6  24
ATOM     23  O   UNL     1     107.831 129.126 135.734  0.00  0.00    +0.000 OA
ATOM     24  C   UNL     1     110.269 129.259 136.138  0.00  0.00    +0.000 A 
ATOM     25  C   UNL     1     109.864 129.913 135.839  0.00  0.00    +0.000 A 
ATOM     26  C   UNL     1     109.860 128.560 136.302  0.00  0.00    +0.000 A 
ATOM     27  C   UNL     1     109.048 128.517 136.167  0.00  0.00    +0.000 A 
ATOM     28  C   UNL     1     109.051 129.869 135.704  0.00  0.00    +0.000 A 
ATOM     29  C   UNL     1     108.643 129.170 135.869  0.00  0.00    +0.000 A 
BRANCH  27  30
ATOM     30  O   UNL     1     108.639 127.818 136.331  0.00  0.00    +0.000 OA
ATOM     31  C   UNL     1     108.939 127.095 136.073  0.00  0.00    +0.000 C 
ENDBRANCH  27  30
BRANCH  28  32
ATOM     32  O   UNL     1     108.647 130.523 135.406  0.00  0.00    +0.000 OA
ATOM     33  C   UNL     1     109.038 131.064 134.922  0.00  0.00    +0.000 C 
ENDBRANCH  28  32
ENDBRANCH   6  24
BRANCH   4  34
ATOM     34  O   UNL     1     110.839 129.469 137.672  0.00  0.00    +0.000 OA
BRANCH  34  43
ATOM     35  O   UNL     1     110.615 130.831 138.044  0.00  0.00    +0.000 OA
ATOM     36  O   UNL     1     109.663 130.084 140.203  0.00  0.00    +0.000 OA
ATOM     37  O   UNL     1     109.755 131.694 139.855  0.00  0.00    +0.000 OA
ATOM     38  O   UNL     1     110.205 128.972 139.112  0.00  0.00    +0.000 OA
ATOM     39  C   UNL     1     109.980 130.333 139.483  0.00  0.00    +0.000 C 
ATOM     40  C   UNL     1     110.026 131.138 139.309  0.00  0.00    +0.000 C 
ATOM     41  C   UNL     1     110.251 129.777 138.937  0.00  0.00    +0.000 C 
ATOM     42  C   UNL     1     110.344 131.387 138.589  0.00  0.00    +0.000 C 
ATOM     43  C   UNL     1     110.569 130.025 138.217  0.00  0.00    +0.000 C 
BRANCH  42  45
ATOM     44  O   UNL     1     110.973 132.471 137.902  0.00  0.00    +0.000 OA
ATOM     45  C   UNL     1     110.390 132.191 138.415  0.00  0.00    +0.000 C 
ENDBRANCH  42  45
ENDBRANCH  34  43
ENDBRANCH   4  34
TORSDOF 7
ENDMDL
MODEL 7
REMARK VINA RESULT:      -9.6      1.624      4.892
REMARK  Name = 21674154
REMARK  7 active torsions:
REMARK  status: ('A' for Active; 'I' for Inactive)
REMARK    1  A    between atoms: O_2  and  C_19
REMARK    2  A    between atoms: O_2  and  C_21
REMARK    3  A    between atoms: O_10  and  C_36
REMARK    4  A    between atoms: O_11  and  C_37
REMARK    5  A    between atoms: C_18  and  C_20
REMARK    6  A    between atoms: C_23  and  C_28
REMARK    7  A    between atoms: C_29  and  C_35
REMARK                            x       y       z     vdW  Elec       q    Type
REMARK                         _______ _______ _______ _____ _____    ______ ____
ROOT
ATOM      1  O   UNL     1     110.506 126.063 138.953  0.00  0.00    +0.000 OA
ATOM      2  O   UNL     1     111.968 127.736 140.774  0.00  0.00    +0.000 OA
ATOM      3  O   UNL     1     109.652 126.228 141.731  0.00  0.00    +0.000 OA
ATOM      4  C   UNL     1     111.640 126.805 138.499  0.00  0.00    +0.000 A 
ATOM      5  C   UNL     1     111.743 127.111 139.258  0.00  0.00    +0.000 A 
ATOM      6  C   UNL     1     111.021 126.281 138.347  0.00  0.00    +0.000 A 
ATOM      7  C   UNL     1     111.228 126.893 139.865  0.00  0.00    +0.000 A 
ATOM      8  C   UNL     1     110.609 126.368 139.712  0.00  0.00    +0.000 A 
ATOM      9  C   UNL     1     112.356 127.631 139.409  0.00  0.00    +0.000 A 
ATOM     10  C   UNL     1     111.346 127.218 140.651  0.00  0.00    +0.000 A 
ATOM     11  C   UNL     1     112.468 127.940 140.159  0.00  0.00    +0.000 A 
ATOM     12  C   UNL     1     110.066 126.133 140.335  0.00  0.00    +0.000 A 
ATOM     13  C   UNL     1     110.812 126.994 141.287  0.00  0.00    +0.000 A 
ATOM     14  C   UNL     1     110.168 126.448 141.127  0.00  0.00    +0.000 A 
ENDROOT
BRANCH  11  17
ATOM     15  O   UNL     1     113.457 130.614 140.354  0.00  0.00    +0.000 OA
ATOM     16  O   UNL     1     114.960 130.032 140.710  0.00  0.00    +0.000 OA
ATOM     17  C   UNL     1     113.090 128.463 140.297  0.00  0.00    +0.000 A 
ATOM     18  C   UNL     1     112.962 129.277 140.257  0.00  0.00    +0.000 A 
ATOM     19  C   UNL     1     113.842 128.172 140.475  0.00  0.00    +0.000 A 
ATOM     20  C   UNL     1     113.585 129.800 140.394  0.00  0.00    +0.000 A 
ATOM     21  C   UNL     1     114.464 128.695 140.612  0.00  0.00    +0.000 A 
ATOM     22  C   UNL     1     114.337 129.509 140.572  0.00  0.00    +0.000 A 
ENDBRANCH  11  17
BRANCH   6  24
ATOM     23  O   UNL     1     110.609 125.059 135.309  0.00  0.00    +0.000 OA
ATOM     24  C   UNL     1     110.918 125.975 137.587  0.00  0.00    +0.000 A 
ATOM     25  C   UNL     1     111.375 125.336 137.334  0.00  0.00    +0.000 A 
ATOM     26  C   UNL     1     110.359 126.309 137.080  0.00  0.00    +0.000 A 
ATOM     27  C   UNL     1     110.256 126.004 136.321  0.00  0.00    +0.000 A 
ATOM     28  C   UNL     1     111.272 125.030 136.575  0.00  0.00    +0.000 A 
ATOM     29  C   UNL     1     110.712 125.365 136.068  0.00  0.00    +0.000 A 
BRANCH  27  30
ATOM     30  O   UNL     1     109.696 126.337 135.814  0.00  0.00    +0.000 OA
ATOM     31  C   UNL     1     109.034 126.717 136.125  0.00  0.00    +0.000 C 
ENDBRANCH  27  30
BRANCH  28  32
ATOM     32  O   UNL     1     111.728 124.391 136.322  0.00  0.00    +0.000 OA
ATOM     33  C   UNL     1     111.961 123.812 136.861  0.00  0.00    +0.000 C 
ENDBRANCH  28  32
ENDBRANCH   6  24
BRANCH   4  34
ATOM     34  O   UNL     1     112.155 127.024 137.893  0.00  0.00    +0.000 OA
BRANCH  34  43
ATOM     35  O   UNL     1     111.814 128.304 137.357  0.00  0.00    +0.000 OA
ATOM     36  O   UNL     1     114.013 128.416 136.225  0.00  0.00    +0.000 OA
ATOM     37  O   UNL     1     112.939 129.657 136.066  0.00  0.00    +0.000 OA
ATOM     38  O   UNL     1     113.621 127.099 137.139  0.00  0.00    +0.000 OA
ATOM     39  C   UNL     1     113.280 128.378 136.602  0.00  0.00    +0.000 C 
ATOM     40  C   UNL     1     112.743 128.999 136.523  0.00  0.00    +0.000 C 
ATOM     41  C   UNL     1     113.084 127.719 137.060  0.00  0.00    +0.000 C 
ATOM     42  C   UNL     1     112.010 128.962 136.900  0.00  0.00    +0.000 C 
ATOM     43  C   UNL     1     112.351 127.682 137.437  0.00  0.00    +0.000 C 
BRANCH  42  45
ATOM     44  O   UNL     1     110.903 129.713 137.402  0.00  0.00    +0.000 OA
ATOM     45  C   UNL     1     111.473 129.583 136.820  0.00  0.00    +0.000 C 
ENDBRANCH  42  45
ENDBRANCH  34  43
ENDBRANCH   4  34
TORSDOF 7
ENDMDL
