MODEL 1
REMARK VINA RESULT:      -9.2      0.000      0.000
REMARK  Name = 
REMARK  5 active torsions:
REMARK  status: ('A' for Active; 'I' for Inactive)
REMARK    1  A    between atoms: C_7  and  C_12
REMARK    2  A    between atoms: C_17  and  O_19
REMARK    3  A    between atoms: C_18  and  O_21
REMARK    4  A    between atoms: C_20  and  O_23
REMARK    5  A    between atoms: O_23  and  C_25
REMARK                            x       y       z     vdW  Elec       q    Type
REMARK                         _______ _______ _______ _____ _____    ______ ____
ROOT
ATOM      1  C   UNL     1     112.013 127.507 136.574  0.00  0.00    +0.000 A 
ATOM      2  C   UNL     1     112.050 127.933 135.868  0.00  0.00    +0.000 A 
ATOM      3  C   UNL     1     111.687 127.855 137.249  0.00  0.00    +0.000 A 
ATOM      4  C   UNL     1     111.762 128.705 135.836  0.00  0.00    +0.000 A 
ATOM      5  C   UNL     1     111.400 128.628 137.216  0.00  0.00    +0.000 A 
ATOM      6  C   UNL     1     111.437 129.053 136.510  0.00  0.00    +0.000 A 
ENDROOT
BRANCH   1  13
ATOM      7  O   UNL     1     111.633 124.705 136.162  0.00  0.00    +0.000 OA
ATOM      8  C   UNL     1     112.110 125.334 136.401  0.00  0.00    +0.000 A 
ATOM      9  C   UNL     1     112.876 125.190 136.672  0.00  0.00    +0.000 A 
ATOM     10  C   UNL     1     111.823 126.106 136.368  0.00  0.00    +0.000 A 
ATOM     11  C   UNL     1     113.354 125.819 136.911  0.00  0.00    +0.000 A 
ATOM     12  C   UNL     1     113.165 124.417 136.705  0.00  0.00    +0.000 A 
ATOM     13  C   UNL     1     112.300 126.735 136.607  0.00  0.00    +0.000 A 
ATOM     14  O   UNL     1     113.066 126.592 136.878  0.00  0.00    +0.000 OA
ATOM     15  C   UNL     1     114.119 125.675 137.182  0.00  0.00    +0.000 A 
ATOM     16  O   UNL     1     112.686 123.789 136.466  0.00  0.00    +0.000 OA
ATOM     17  C   UNL     1     113.929 124.274 136.976  0.00  0.00    +0.000 A 
ATOM     18  C   UNL     1     114.408 124.903 137.215  0.00  0.00    +0.000 A 
ATOM     19  O   UNL     1     115.173 124.760 137.486  0.00  0.00    +0.000 OA
ENDBRANCH   1  13
BRANCH   4  20
ATOM     20  O   UNL     1     111.799 129.129 135.130  0.00  0.00    +0.000 OA
ATOM     21  C   UNL     1     112.432 129.016 134.612  0.00  0.00    +0.000 C 
ENDBRANCH   4  20
BRANCH   5  22
ATOM     22  O   UNL     1     111.075 128.976 137.890  0.00  0.00    +0.000 OA
ATOM     23  C   UNL     1     111.341 128.753 138.639  0.00  0.00    +0.000 C 
ENDBRANCH   5  22
BRANCH   6  24
ATOM     24  O   UNL     1     111.149 129.825 136.478  0.00  0.00    +0.000 OA
BRANCH  24  25
ATOM     25  C   UNL     1     110.360 129.963 136.282  0.00  0.00    +0.000 C 
ATOM     26  O   UNL     1     109.856 129.328 136.125  0.00  0.00    +0.000 OA
ATOM     27  C   UNL     1     110.073 130.736 136.243  0.00  0.00    +0.000 C 
ATOM     28  C   UNL     1     109.067 129.466 135.929  0.00  0.00    +0.000 C 
ATOM     29  O   UNL     1     110.577 131.371 136.400  0.00  0.00    +0.000 OA
ATOM     30  C   UNL     1     109.284 130.874 136.047  0.00  0.00    +0.000 C 
ATOM     31  C   UNL     1     108.781 130.239 135.890  0.00  0.00    +0.000 C 
ATOM     32  C   UNL     1     108.564 128.832 135.773  0.00  0.00    +0.000 C 
ATOM     33  O   UNL     1     108.998 131.647 136.008  0.00  0.00    +0.000 OA
ATOM     34  O   UNL     1     107.991 130.377 135.694  0.00  0.00    +0.000 OA
ENDBRANCH  24  25
ENDBRANCH   6  24
TORSDOF 5
ENDMDL
MODEL 2
REMARK VINA RESULT:      -9.1      0.124      1.328
REMARK  Name = 
REMARK  5 active torsions:
REMARK  status: ('A' for Active; 'I' for Inactive)
REMARK    1  A    between atoms: C_7  and  C_12
REMARK    2  A    between atoms: C_17  and  O_19
REMARK    3  A    between atoms: C_18  and  O_21
REMARK    4  A    between atoms: C_20  and  O_23
REMARK    5  A    between atoms: O_23  and  C_25
REMARK                            x       y       z     vdW  Elec       q    Type
REMARK                         _______ _______ _______ _____ _____    ______ ____
ROOT
ATOM      1  C   UNL     1     111.960 127.504 136.542  0.00  0.00    +0.000 A 
ATOM      2  C   UNL     1     111.630 127.849 137.215  0.00  0.00    +0.000 A 
ATOM      3  C   UNL     1     112.029 127.943 135.845  0.00  0.00    +0.000 A 
ATOM      4  C   UNL     1     111.369 128.631 137.193  0.00  0.00    +0.000 A 
ATOM      5  C   UNL     1     111.768 128.725 135.824  0.00  0.00    +0.000 A 
ATOM      6  C   UNL     1     111.438 129.069 136.496  0.00  0.00    +0.000 A 
ENDROOT
BRANCH   1  13
ATOM      7  O   UNL     1     111.468 124.718 136.139  0.00  0.00    +0.000 OA
ATOM      8  C   UNL     1     111.975 125.329 136.363  0.00  0.00    +0.000 A 
ATOM      9  C   UNL     1     112.744 125.158 136.609  0.00  0.00    +0.000 A 
ATOM     10  C   UNL     1     111.714 126.111 136.341  0.00  0.00    +0.000 A 
ATOM     11  C   UNL     1     113.251 125.768 136.833  0.00  0.00    +0.000 A 
ATOM     12  C   UNL     1     113.006 124.375 136.632  0.00  0.00    +0.000 A 
ATOM     13  C   UNL     1     112.221 126.722 136.564  0.00  0.00    +0.000 A 
ATOM     14  O   UNL     1     112.990 126.551 136.811  0.00  0.00    +0.000 OA
ATOM     15  C   UNL     1     114.019 125.597 137.079  0.00  0.00    +0.000 A 
ATOM     16  O   UNL     1     112.498 123.765 136.408  0.00  0.00    +0.000 OA
ATOM     17  C   UNL     1     113.773 124.204 136.878  0.00  0.00    +0.000 A 
ATOM     18  C   UNL     1     114.281 124.816 137.102  0.00  0.00    +0.000 A 
ATOM     19  O   UNL     1     115.050 124.644 137.348  0.00  0.00    +0.000 OA
ENDBRANCH   1  13
BRANCH   4  20
ATOM     20  O   UNL     1     111.040 128.975 137.866  0.00  0.00    +0.000 OA
ATOM     21  C   UNL     1     111.278 128.727 138.616  0.00  0.00    +0.000 C 
ENDBRANCH   4  20
BRANCH   5  22
ATOM     22  O   UNL     1     111.836 129.163 135.128  0.00  0.00    +0.000 OA
ATOM     23  C   UNL     1     112.477 129.038 134.623  0.00  0.00    +0.000 C 
ENDBRANCH   5  22
BRANCH   6  24
ATOM     24  O   UNL     1     111.177 129.851 136.474  0.00  0.00    +0.000 OA
BRANCH  24  25
ATOM     25  C   UNL     1     110.396 130.019 136.267  0.00  0.00    +0.000 C 
ATOM     26  O   UNL     1     109.877 129.406 136.081  0.00  0.00    +0.000 OA
ATOM     27  C   UNL     1     110.134 130.802 136.247  0.00  0.00    +0.000 C 
ATOM     28  C   UNL     1     109.096 129.574 135.875  0.00  0.00    +0.000 C 
ATOM     29  O   UNL     1     110.654 131.416 136.433  0.00  0.00    +0.000 OA
ATOM     30  C   UNL     1     109.353 130.970 136.040  0.00  0.00    +0.000 C 
ATOM     31  C   UNL     1     108.835 130.356 135.854  0.00  0.00    +0.000 C 
ATOM     32  C   UNL     1     108.578 128.961 135.689  0.00  0.00    +0.000 C 
ATOM     33  O   UNL     1     109.092 131.753 136.020  0.00  0.00    +0.000 OA
ATOM     34  O   UNL     1     108.054 130.524 135.647  0.00  0.00    +0.000 OA
ENDBRANCH  24  25
ENDBRANCH   6  24
TORSDOF 5
ENDMDL
MODEL 3
REMARK VINA RESULT:      -9.0      1.329      1.888
REMARK  Name = 
REMARK  5 active torsions:
REMARK  status: ('A' for Active; 'I' for Inactive)
REMARK    1  A    between atoms: C_7  and  C_12
REMARK    2  A    between atoms: C_17  and  O_19
REMARK    3  A    between atoms: C_18  and  O_21
REMARK    4  A    between atoms: C_20  and  O_23
REMARK    5  A    between atoms: O_23  and  C_25
REMARK                            x       y       z     vdW  Elec       q    Type
REMARK                         _______ _______ _______ _____ _____    ______ ____
ROOT
ATOM      1  C   UNL     1     110.871 126.259 136.642  0.00  0.00    +0.000 A 
ATOM      2  C   UNL     1     110.421 126.251 135.950  0.00  0.00    +0.000 A 
ATOM      3  C   UNL     1     110.715 126.819 137.228  0.00  0.00    +0.000 A 
ATOM      4  C   UNL     1     109.816 126.800 135.845  0.00  0.00    +0.000 A 
ATOM      5  C   UNL     1     110.109 127.369 137.122  0.00  0.00    +0.000 A 
ATOM      6  C   UNL     1     109.659 127.360 136.431  0.00  0.00    +0.000 A 
ENDROOT
BRANCH   1  13
ATOM      7  O   UNL     1     111.728 123.625 137.345  0.00  0.00    +0.000 OA
ATOM      8  C   UNL     1     111.904 124.392 137.099  0.00  0.00    +0.000 A 
ATOM      9  C   UNL     1     112.688 124.610 136.959  0.00  0.00    +0.000 A 
ATOM     10  C   UNL     1     111.299 124.942 136.994  0.00  0.00    +0.000 A 
ATOM     11  C   UNL     1     112.866 125.376 136.712  0.00  0.00    +0.000 A 
ATOM     12  C   UNL     1     113.294 124.059 137.064  0.00  0.00    +0.000 A 
ATOM     13  C   UNL     1     111.476 125.709 136.747  0.00  0.00    +0.000 A 
ATOM     14  O   UNL     1     112.260 125.927 136.607  0.00  0.00    +0.000 OA
ATOM     15  C   UNL     1     113.648 125.593 136.572  0.00  0.00    +0.000 A 
ATOM     16  O   UNL     1     113.116 123.292 137.310  0.00  0.00    +0.000 OA
ATOM     17  C   UNL     1     114.077 124.276 136.924  0.00  0.00    +0.000 A 
ATOM     18  C   UNL     1     114.255 125.044 136.677  0.00  0.00    +0.000 A 
ATOM     19  O   UNL     1     115.038 125.261 136.537  0.00  0.00    +0.000 OA
ENDBRANCH   1  13
BRANCH   4  20
ATOM     20  O   UNL     1     109.366 126.791 135.154  0.00  0.00    +0.000 OA
ATOM     21  C   UNL     1     109.308 126.100 134.707  0.00  0.00    +0.000 C 
ENDBRANCH   4  20
BRANCH   5  22
ATOM     22  O   UNL     1     109.953 127.928 137.708  0.00  0.00    +0.000 OA
ATOM     23  C   UNL     1     110.132 127.761 138.497  0.00  0.00    +0.000 C 
ENDBRANCH   5  22
BRANCH   6  24
ATOM     24  O   UNL     1     109.054 127.910 136.326  0.00  0.00    +0.000 OA
BRANCH  24  25
ATOM     25  C   UNL     1     109.214 128.635 135.967  0.00  0.00    +0.000 C 
ATOM     26  O   UNL     1     109.976 128.806 135.702  0.00  0.00    +0.000 OA
ATOM     27  C   UNL     1     108.611 129.192 135.874  0.00  0.00    +0.000 C 
ATOM     28  C   UNL     1     110.136 129.532 135.343  0.00  0.00    +0.000 C 
ATOM     29  O   UNL     1     107.848 129.021 136.139  0.00  0.00    +0.000 OA
ATOM     30  C   UNL     1     108.771 129.917 135.515  0.00  0.00    +0.000 C 
ATOM     31  C   UNL     1     109.534 130.087 135.250  0.00  0.00    +0.000 C 
ATOM     32  C   UNL     1     110.898 129.701 135.079  0.00  0.00    +0.000 C 
ATOM     33  O   UNL     1     108.168 130.473 135.422  0.00  0.00    +0.000 OA
ATOM     34  O   UNL     1     109.694 130.812 134.892  0.00  0.00    +0.000 OA
ENDBRANCH  24  25
ENDBRANCH   6  24
TORSDOF 5
ENDMDL
MODEL 4
REMARK VINA RESULT:      -8.9      2.627      4.511
REMARK  Name = 
REMARK  5 active torsions:
REMARK  status: ('A' for Active; 'I' for Inactive)
REMARK    1  A    between atoms: C_7  and  C_12
REMARK    2  A    between atoms: C_17  and  O_19
REMARK    3  A    between atoms: C_18  and  O_21
REMARK    4  A    between atoms: C_20  and  O_23
REMARK    5  A    between atoms: O_23  and  C_25
REMARK                            x       y       z     vdW  Elec       q    Type
REMARK                         _______ _______ _______ _____ _____    ______ ____
ROOT
ATOM      1  C   UNL     1     112.882 127.073 138.980  0.00  0.00    +0.000 A 
ATOM      2  C   UNL     1     112.851 127.006 139.802  0.00  0.00    +0.000 A 
ATOM      3  C   UNL     1     112.688 127.789 138.618  0.00  0.00    +0.000 A 
ATOM      4  C   UNL     1     112.626 127.652 140.261  0.00  0.00    +0.000 A 
ATOM      5  C   UNL     1     112.462 128.436 139.078  0.00  0.00    +0.000 A 
ATOM      6  C   UNL     1     112.431 128.369 139.899  0.00  0.00    +0.000 A 
ENDROOT
BRANCH   1  13
ATOM      7  O   UNL     1     114.929 125.394 137.904  0.00  0.00    +0.000 OA
ATOM      8  C   UNL     1     114.131 125.587 137.983  0.00  0.00    +0.000 A 
ATOM      9  C   UNL     1     113.558 125.133 137.602  0.00  0.00    +0.000 A 
ATOM     10  C   UNL     1     113.906 126.234 138.442  0.00  0.00    +0.000 A 
ATOM     11  C   UNL     1     112.759 125.324 137.680  0.00  0.00    +0.000 A 
ATOM     12  C   UNL     1     113.783 124.485 137.142  0.00  0.00    +0.000 A 
ATOM     13  C   UNL     1     113.107 126.427 138.521  0.00  0.00    +0.000 A 
ATOM     14  O   UNL     1     112.534 125.972 138.140  0.00  0.00    +0.000 OA
ATOM     15  C   UNL     1     112.187 124.870 137.299  0.00  0.00    +0.000 A 
ATOM     16  O   UNL     1     114.581 124.293 137.064  0.00  0.00    +0.000 OA
ATOM     17  C   UNL     1     113.210 124.031 136.761  0.00  0.00    +0.000 A 
ATOM     18  C   UNL     1     112.411 124.223 136.840  0.00  0.00    +0.000 A 
ATOM     19  O   UNL     1     111.838 123.768 136.459  0.00  0.00    +0.000 OA
ENDBRANCH   1  13
BRANCH   4  20
ATOM     20  O   UNL     1     112.595 127.585 141.082  0.00  0.00    +0.000 OA
ATOM     21  C   UNL     1     112.416 126.858 141.431  0.00  0.00    +0.000 C 
ENDBRANCH   4  20
BRANCH   5  22
ATOM     22  O   UNL     1     112.268 129.152 138.715  0.00  0.00    +0.000 OA
ATOM     23  C   UNL     1     111.925 129.154 137.964  0.00  0.00    +0.000 C 
ENDBRANCH   5  22
BRANCH   6  24
ATOM     24  O   UNL     1     112.206 129.015 140.358  0.00  0.00    +0.000 OA
BRANCH  24  25
ATOM     25  C   UNL     1     112.776 129.546 140.630  0.00  0.00    +0.000 C 
ATOM     26  O   UNL     1     113.563 129.461 140.400  0.00  0.00    +0.000 OA
ATOM     27  C   UNL     1     112.558 130.164 141.132  0.00  0.00    +0.000 C 
ATOM     28  C   UNL     1     114.133 129.992 140.671  0.00  0.00    +0.000 C 
ATOM     29  O   UNL     1     111.770 130.250 141.363  0.00  0.00    +0.000 OA
ATOM     30  C   UNL     1     113.128 130.695 141.404  0.00  0.00    +0.000 C 
ATOM     31  C   UNL     1     113.915 130.608 141.173  0.00  0.00    +0.000 C 
ATOM     32  C   UNL     1     114.920 129.906 140.441  0.00  0.00    +0.000 C 
ATOM     33  O   UNL     1     112.909 131.312 141.906  0.00  0.00    +0.000 OA
ATOM     34  O   UNL     1     114.485 131.140 141.445  0.00  0.00    +0.000 OA
ENDBRANCH  24  25
ENDBRANCH   6  24
TORSDOF 5
ENDMDL
MODEL 5
REMARK VINA RESULT:      -8.9      3.007      4.383
REMARK  Name = 
REMARK  5 active torsions:
REMARK  status: ('A' for Active; 'I' for Inactive)
REMARK    1  A    between atoms: C_7  and  C_12
REMARK    2  A    between atoms: C_17  and  O_19
REMARK    3  A    between atoms: C_18  and  O_21
REMARK    4  A    between atoms: C_20  and  O_23
REMARK    5  A    between atoms: O_23  and  C_25
REMARK                            x       y       z     vdW  Elec       q    Type
REMARK                         _______ _______ _______ _____ _____    ______ ____
ROOT
ATOM      1  C   UNL     1     113.133 127.309 139.101  0.00  0.00    +0.000 A 
ATOM      2  C   UNL     1     112.915 128.061 138.839  0.00  0.00    +0.000 A 
ATOM      3  C   UNL     1     113.588 127.227 139.785  0.00  0.00    +0.000 A 
ATOM      4  C   UNL     1     113.151 128.729 139.260  0.00  0.00    +0.000 A 
ATOM      5  C   UNL     1     113.824 127.896 140.207  0.00  0.00    +0.000 A 
ATOM      6  C   UNL     1     113.605 128.647 139.945  0.00  0.00    +0.000 A 
ENDROOT
BRANCH   1  13
ATOM      7  O   UNL     1     111.205 125.266 138.576  0.00  0.00    +0.000 OA
ATOM      8  C   UNL     1     111.934 125.619 138.417  0.00  0.00    +0.000 A 
ATOM      9  C   UNL     1     112.427 125.303 137.836  0.00  0.00    +0.000 A 
ATOM     10  C   UNL     1     112.169 126.288 138.838  0.00  0.00    +0.000 A 
ATOM     11  C   UNL     1     113.155 125.656 137.676  0.00  0.00    +0.000 A 
ATOM     12  C   UNL     1     112.191 124.634 137.414  0.00  0.00    +0.000 A 
ATOM     13  C   UNL     1     112.898 126.641 138.679  0.00  0.00    +0.000 A 
ATOM     14  O   UNL     1     113.391 126.325 138.098  0.00  0.00    +0.000 OA
ATOM     15  C   UNL     1     113.647 125.340 137.096  0.00  0.00    +0.000 A 
ATOM     16  O   UNL     1     111.462 124.282 137.574  0.00  0.00    +0.000 OA
ATOM     17  C   UNL     1     112.683 124.318 136.833  0.00  0.00    +0.000 A 
ATOM     18  C   UNL     1     113.413 124.671 136.674  0.00  0.00    +0.000 A 
ATOM     19  O   UNL     1     113.906 124.355 136.092  0.00  0.00    +0.000 OA
ENDBRANCH   1  13
BRANCH   4  20
ATOM     20  O   UNL     1     112.932 129.480 138.999  0.00  0.00    +0.000 OA
ATOM     21  C   UNL     1     112.799 129.615 138.196  0.00  0.00    +0.000 C 
ENDBRANCH   4  20
BRANCH   5  22
ATOM     22  O   UNL     1     114.278 127.813 140.890  0.00  0.00    +0.000 OA
ATOM     23  C   UNL     1     114.786 127.168 140.973  0.00  0.00    +0.000 C 
ENDBRANCH   5  22
BRANCH   6  24
ATOM     24  O   UNL     1     113.841 129.315 140.366  0.00  0.00    +0.000 OA
BRANCH  24  25
ATOM     25  C   UNL     1     113.352 129.625 140.954  0.00  0.00    +0.000 C 
ATOM     26  O   UNL     1     112.691 129.202 141.207  0.00  0.00    +0.000 OA
ATOM     27  C   UNL     1     113.524 130.361 141.288  0.00  0.00    +0.000 C 
ATOM     28  C   UNL     1     112.202 129.513 141.795  0.00  0.00    +0.000 C 
ATOM     29  O   UNL     1     114.185 130.785 141.034  0.00  0.00    +0.000 OA
ATOM     30  C   UNL     1     113.035 130.671 141.876  0.00  0.00    +0.000 C 
ATOM     31  C   UNL     1     112.374 130.247 142.129  0.00  0.00    +0.000 C 
ATOM     32  C   UNL     1     111.542 129.089 142.048  0.00  0.00    +0.000 C 
ATOM     33  O   UNL     1     113.208 131.406 142.209  0.00  0.00    +0.000 OA
ATOM     34  O   UNL     1     111.885 130.557 142.716  0.00  0.00    +0.000 OA
ENDBRANCH  24  25
ENDBRANCH   6  24
TORSDOF 5
ENDMDL
MODEL 6
REMARK VINA RESULT:      -8.7      1.332      5.833
REMARK  Name = 
REMARK  5 active torsions:
REMARK  status: ('A' for Active; 'I' for Inactive)
REMARK    1  A    between atoms: C_7  and  C_12
REMARK    2  A    between atoms: C_17  and  O_19
REMARK    3  A    between atoms: C_18  and  O_21
REMARK    4  A    between atoms: C_20  and  O_23
REMARK    5  A    between atoms: O_23  and  C_25
REMARK                            x       y       z     vdW  Elec       q    Type
REMARK                         _______ _______ _______ _____ _____    ______ ____
ROOT
ATOM      1  C   UNL     1     110.033 127.451 136.436  0.00  0.00    +0.000 A 
ATOM      2  C   UNL     1     110.207 127.199 137.202  0.00  0.00    +0.000 A 
ATOM      3  C   UNL     1     110.175 126.950 135.794  0.00  0.00    +0.000 A 
ATOM      4  C   UNL     1     110.522 126.448 137.328  0.00  0.00    +0.000 A 
ATOM      5  C   UNL     1     110.490 126.198 135.921  0.00  0.00    +0.000 A 
ATOM      6  C   UNL     1     110.664 125.947 136.687  0.00  0.00    +0.000 A 
ENDROOT
BRANCH   1  13
ATOM      7  O   UNL     1     107.825 129.122 135.728  0.00  0.00    +0.000 OA
ATOM      8  C   UNL     1     108.614 129.038 135.956  0.00  0.00    +0.000 A 
ATOM      9  C   UNL     1     109.087 129.706 136.057  0.00  0.00    +0.000 A 
ATOM     10  C   UNL     1     108.929 128.287 136.082  0.00  0.00    +0.000 A 
ATOM     11  C   UNL     1     109.876 129.623 136.285  0.00  0.00    +0.000 A 
ATOM     12  C   UNL     1     108.772 130.458 135.931  0.00  0.00    +0.000 A 
ATOM     13  C   UNL     1     109.718 128.202 136.309  0.00  0.00    +0.000 A 
ATOM     14  O   UNL     1     110.191 128.870 136.411  0.00  0.00    +0.000 OA
ATOM     15  C   UNL     1     110.348 130.290 136.386  0.00  0.00    +0.000 A 
ATOM     16  O   UNL     1     107.983 130.542 135.703  0.00  0.00    +0.000 OA
ATOM     17  C   UNL     1     109.245 131.126 136.032  0.00  0.00    +0.000 A 
ATOM     18  C   UNL     1     110.034 131.042 136.260  0.00  0.00    +0.000 A 
ATOM     19  O   UNL     1     110.507 131.710 136.361  0.00  0.00    +0.000 OA
ENDBRANCH   1  13
BRANCH   4  20
ATOM     20  O   UNL     1     110.696 126.196 138.094  0.00  0.00    +0.000 OA
ATOM     21  C   UNL     1     110.263 126.488 138.733  0.00  0.00    +0.000 C 
ENDBRANCH   4  20
BRANCH   5  22
ATOM     22  O   UNL     1     110.632 125.697 135.281  0.00  0.00    +0.000 OA
ATOM     23  C   UNL     1     110.147 125.733 134.614  0.00  0.00    +0.000 C 
ENDBRANCH   5  22
BRANCH   6  24
ATOM     24  O   UNL     1     110.979 125.195 136.813  0.00  0.00    +0.000 OA
BRANCH  24  25
ATOM     25  C   UNL     1     111.797 125.085 136.809  0.00  0.00    +0.000 C 
ATOM     26  O   UNL     1     112.299 125.726 136.678  0.00  0.00    +0.000 OA
ATOM     27  C   UNL     1     112.113 124.333 136.936  0.00  0.00    +0.000 C 
ATOM     28  C   UNL     1     113.117 125.616 136.674  0.00  0.00    +0.000 C 
ATOM     29  O   UNL     1     111.610 123.691 137.067  0.00  0.00    +0.000 OA
ATOM     30  C   UNL     1     112.930 124.223 136.932  0.00  0.00    +0.000 C 
ATOM     31  C   UNL     1     113.432 124.865 136.801  0.00  0.00    +0.000 C 
ATOM     32  C   UNL     1     113.618 126.257 136.543  0.00  0.00    +0.000 C 
ATOM     33  O   UNL     1     113.246 123.471 137.059  0.00  0.00    +0.000 OA
ATOM     34  O   UNL     1     114.250 124.755 136.797  0.00  0.00    +0.000 OA
ENDBRANCH  24  25
ENDBRANCH   6  24
TORSDOF 5
ENDMDL
MODEL 7
REMARK VINA RESULT:      -8.6      0.947      5.688
REMARK  Name = 
REMARK  5 active torsions:
REMARK  status: ('A' for Active; 'I' for Inactive)
REMARK    1  A    between atoms: C_7  and  C_12
REMARK    2  A    between atoms: C_17  and  O_19
REMARK    3  A    between atoms: C_18  and  O_21
REMARK    4  A    between atoms: C_20  and  O_23
REMARK    5  A    between atoms: O_23  and  C_25
REMARK                            x       y       z     vdW  Elec       q    Type
REMARK                         _______ _______ _______ _____ _____    ______ ____
ROOT
ATOM      1  C   UNL     1     110.738 128.571 136.780  0.00  0.00    +0.000 A 
ATOM      2  C   UNL     1     110.756 128.149 137.489  0.00  0.00    +0.000 A 
ATOM      3  C   UNL     1     111.347 128.479 136.229  0.00  0.00    +0.000 A 
ATOM      4  C   UNL     1     111.381 127.636 137.648  0.00  0.00    +0.000 A 
ATOM      5  C   UNL     1     111.972 127.964 136.389  0.00  0.00    +0.000 A 
ATOM      6  C   UNL     1     111.990 127.543 137.097  0.00  0.00    +0.000 A 
ENDROOT
BRANCH   1  13
ATOM      7  O   UNL     1     108.091 129.021 135.802  0.00  0.00    +0.000 OA
ATOM      8  C   UNL     1     108.790 129.310 136.132  0.00  0.00    +0.000 A 
ATOM      9  C   UNL     1     108.863 130.113 136.303  0.00  0.00    +0.000 A 
ATOM     10  C   UNL     1     109.414 128.796 136.291  0.00  0.00    +0.000 A 
ATOM     11  C   UNL     1     109.561 130.404 136.632  0.00  0.00    +0.000 A 
ATOM     12  C   UNL     1     108.237 130.628 136.144  0.00  0.00    +0.000 A 
ATOM     13  C   UNL     1     110.114 129.085 136.621  0.00  0.00    +0.000 A 
ATOM     14  O   UNL     1     110.187 129.889 136.791  0.00  0.00    +0.000 OA
ATOM     15  C   UNL     1     109.635 131.206 136.803  0.00  0.00    +0.000 A 
ATOM     16  O   UNL     1     107.539 130.338 135.814  0.00  0.00    +0.000 OA
ATOM     17  C   UNL     1     108.311 131.431 136.314  0.00  0.00    +0.000 A 
ATOM     18  C   UNL     1     109.010 131.721 136.644  0.00  0.00    +0.000 A 
ATOM     19  O   UNL     1     109.083 132.525 136.815  0.00  0.00    +0.000 OA
ENDBRANCH   1  13
BRANCH   4  20
ATOM     20  O   UNL     1     111.399 127.215 138.356  0.00  0.00    +0.000 OA
ATOM     21  C   UNL     1     111.055 127.533 139.035  0.00  0.00    +0.000 C 
ENDBRANCH   4  20
BRANCH   5  22
ATOM     22  O   UNL     1     112.580 127.872 135.839  0.00  0.00    +0.000 OA
ATOM     23  C   UNL     1     112.811 128.509 135.368  0.00  0.00    +0.000 C 
ENDBRANCH   5  22
BRANCH   6  24
ATOM     24  O   UNL     1     112.615 127.029 137.256  0.00  0.00    +0.000 OA
BRANCH  24  25
ATOM     25  C   UNL     1     112.565 126.237 137.032  0.00  0.00    +0.000 C 
ATOM     26  O   UNL     1     111.899 125.963 136.629  0.00  0.00    +0.000 OA
ATOM     27  C   UNL     1     113.181 125.718 137.210  0.00  0.00    +0.000 C 
ATOM     28  C   UNL     1     111.849 125.171 136.404  0.00  0.00    +0.000 C 
ATOM     29  O   UNL     1     113.848 125.991 137.613  0.00  0.00    +0.000 OA
ATOM     30  C   UNL     1     113.131 124.925 136.985  0.00  0.00    +0.000 C 
ATOM     31  C   UNL     1     112.464 124.653 136.583  0.00  0.00    +0.000 C 
ATOM     32  C   UNL     1     111.183 124.898 136.002  0.00  0.00    +0.000 C 
ATOM     33  O   UNL     1     113.747 124.407 137.164  0.00  0.00    +0.000 OA
ATOM     34  O   UNL     1     112.414 123.860 136.358  0.00  0.00    +0.000 OA
ENDBRANCH  24  25
ENDBRANCH   6  24
TORSDOF 5
ENDMDL
