MODEL 1
REMARK VINA RESULT:     -10.1      0.000      0.000
REMARK  Name = 71777476
REMARK  5 active torsions:
REMARK  status: ('A' for Active; 'I' for Inactive)
REMARK    1  A    between atoms: O_2  and  C_16
REMARK    2  A    between atoms: O_2  and  C_20
REMARK    3  A    between atoms: O_11  and  C_33
REMARK    4  A    between atoms: C_17  and  C_18
REMARK    5  A    between atoms: C_19  and  C_27
REMARK                            x       y       z     vdW  Elec       q    Type
REMARK                         _______ _______ _______ _____ _____    ______ ____
ROOT
ATOM      1  O   UNL     1     104.839 124.305 139.389  0.00  0.00    +0.000 OA
ATOM      2  O   UNL     1     105.457 123.474 142.086  0.00  0.00    +0.000 OA
ATOM      3  O   UNL     1     104.436 122.806 141.317  0.00  0.00    +0.000 OA
ATOM      4  C   UNL     1     104.264 123.716 139.340  0.00  0.00    +0.000 C 
ATOM      5  C   UNL     1     106.339 125.110 140.837  0.00  0.00    +0.000 A 
ATOM      6  C   UNL     1     104.130 123.216 139.983  0.00  0.00    +0.000 C 
ATOM      7  C   UNL     1     105.281 124.395 140.080  0.00  0.00    +0.000 A 
ATOM      8  C   UNL     1     105.146 123.895 140.723  0.00  0.00    +0.000 A 
ATOM      9  C   UNL     1     105.877 125.012 140.119  0.00  0.00    +0.000 A 
ATOM     10  C   UNL     1     104.570 123.305 140.674  0.00  0.00    +0.000 C 
ATOM     11  C   UNL     1     106.200 124.590 141.505  0.00  0.00    +0.000 A 
ATOM     12  C   UNL     1     105.599 123.978 141.448  0.00  0.00    +0.000 A 
ENDROOT
BRANCH   4  14
ATOM     13  O   UNL     1     101.763 123.860 137.964  0.00  0.00    +0.000 OA
ATOM     14  C   UNL     1     103.823 123.626 138.648  0.00  0.00    +0.000 A 
ATOM     15  C   UNL     1     103.014 123.788 138.652  0.00  0.00    +0.000 A 
ATOM     16  C   UNL     1     104.191 123.375 137.954  0.00  0.00    +0.000 A 
ATOM     17  C   UNL     1     102.572 123.698 137.961  0.00  0.00    +0.000 A 
ATOM     18  C   UNL     1     103.750 123.286 137.263  0.00  0.00    +0.000 A 
ATOM     19  C   UNL     1     102.940 123.447 137.266  0.00  0.00    +0.000 A 
BRANCH  19  20
ATOM     20  O   UNL     1     102.499 123.358 136.575  0.00  0.00    +0.000 OA
ATOM     21  C   UNL     1     102.848 123.037 135.900  0.00  0.00    +0.000 C 
ENDBRANCH  19  20
ENDBRANCH   4  14
BRANCH   5  22
ATOM     22  O   UNL     1     106.914 125.700 140.882  0.00  0.00    +0.000 OA
BRANCH  22  30
ATOM     23  O   UNL     1     106.094 126.762 141.372  0.00  0.00    +0.000 OA
ATOM     24  O   UNL     1     107.899 127.441 142.924  0.00  0.00    +0.000 OA
ATOM     25  O   UNL     1     108.117 126.152 141.917  0.00  0.00    +0.000 OA
ATOM     26  O   UNL     1     106.477 128.276 142.896  0.00  0.00    +0.000 OA
ATOM     27  C   UNL     1     107.297 127.214 142.407  0.00  0.00    +0.000 C 
ATOM     28  C   UNL     1     107.407 126.570 141.903  0.00  0.00    +0.000 C 
ATOM     29  C   UNL     1     106.587 127.633 142.393  0.00  0.00    +0.000 C 
ATOM     30  C   UNL     1     106.805 126.344 141.386  0.00  0.00    +0.000 C 
ATOM     31  C   UNL     1     105.985 127.406 141.876  0.00  0.00    +0.000 C 
BRANCH  31  34
ATOM     32  O   UNL     1     104.678 127.642 142.404  0.00  0.00    +0.000 OA
ATOM     33  O   UNL     1     105.158 128.423 141.307  0.00  0.00    +0.000 OA
ATOM     34  C   UNL     1     105.274 127.824 141.862  0.00  0.00    +0.000 C 
ENDBRANCH  31  34
ENDBRANCH  22  30
ENDBRANCH   5  22
TORSDOF 5
ENDMDL
MODEL 2
REMARK VINA RESULT:      -9.4      6.576      7.851
REMARK  Name = 71777476
REMARK  5 active torsions:
REMARK  status: ('A' for Active; 'I' for Inactive)
REMARK    1  A    between atoms: O_2  and  C_16
REMARK    2  A    between atoms: O_2  and  C_20
REMARK    3  A    between atoms: O_11  and  C_33
REMARK    4  A    between atoms: C_17  and  C_18
REMARK    5  A    between atoms: C_19  and  C_27
REMARK                            x       y       z     vdW  Elec       q    Type
REMARK                         _______ _______ _______ _____ _____    ______ ____
ROOT
ATOM      1  O   UNL     1     110.516 127.570 136.471  0.00  0.00    +0.000 OA
ATOM      2  O   UNL     1     108.032 128.877 135.787  0.00  0.00    +0.000 OA
ATOM      3  O   UNL     1     108.086 127.454 136.016  0.00  0.00    +0.000 OA
ATOM      4  C   UNL     1     110.124 126.845 136.506  0.00  0.00    +0.000 C 
ATOM      5  C   UNL     1     110.088 129.724 136.057  0.00  0.00    +0.000 A 
ATOM      6  C   UNL     1     109.314 126.807 136.354  0.00  0.00    +0.000 C 
ATOM      7  C   UNL     1     110.098 128.257 136.285  0.00  0.00    +0.000 A 
ATOM      8  C   UNL     1     109.288 128.218 136.133  0.00  0.00    +0.000 A 
ATOM      9  C   UNL     1     110.518 129.006 136.251  0.00  0.00    +0.000 A 
ATOM     10  C   UNL     1     108.896 127.493 136.168  0.00  0.00    +0.000 C 
ATOM     11  C   UNL     1     109.245 129.684 135.899  0.00  0.00    +0.000 A 
ATOM     12  C   UNL     1     108.842 128.926 135.937  0.00  0.00    +0.000 A 
ENDROOT
BRANCH   4  14
ATOM     13  O   UNL     1     111.174 125.041 138.458  0.00  0.00    +0.000 OA
ATOM     14  C   UNL     1     110.542 126.159 136.693  0.00  0.00    +0.000 A 
ATOM     15  C   UNL     1     110.649 125.943 137.482  0.00  0.00    +0.000 A 
ATOM     16  C   UNL     1     110.852 125.688 136.091  0.00  0.00    +0.000 A 
ATOM     17  C   UNL     1     111.067 125.257 137.669  0.00  0.00    +0.000 A 
ATOM     18  C   UNL     1     111.269 125.001 136.277  0.00  0.00    +0.000 A 
ATOM     19  C   UNL     1     111.377 124.786 137.067  0.00  0.00    +0.000 A 
BRANCH  19  20
ATOM     20  O   UNL     1     111.794 124.099 137.254  0.00  0.00    +0.000 OA
ATOM     21  C   UNL     1     112.161 123.663 136.657  0.00  0.00    +0.000 C 
ENDBRANCH  19  20
ENDBRANCH   4  14
BRANCH   5  22
ATOM     22  O   UNL     1     110.483 130.447 136.023  0.00  0.00    +0.000 OA
BRANCH  22  30
ATOM     23  O   UNL     1     110.670 130.686 137.420  0.00  0.00    +0.000 OA
ATOM     24  O   UNL     1     109.986 133.044 137.109  0.00  0.00    +0.000 OA
ATOM     25  O   UNL     1     110.026 132.019 135.816  0.00  0.00    +0.000 OA
ATOM     26  O   UNL     1     110.401 132.496 138.608  0.00  0.00    +0.000 OA
ATOM     27  C   UNL     1     110.214 132.258 137.212  0.00  0.00    +0.000 C 
ATOM     28  C   UNL     1     110.234 131.746 136.565  0.00  0.00    +0.000 C 
ATOM     29  C   UNL     1     110.421 131.984 137.962  0.00  0.00    +0.000 C 
ATOM     30  C   UNL     1     110.462 130.960 136.669  0.00  0.00    +0.000 C 
ATOM     31  C   UNL     1     110.650 131.198 138.065  0.00  0.00    +0.000 C 
BRANCH  31  34
ATOM     32  O   UNL     1     110.278 130.621 139.319  0.00  0.00    +0.000 OA
ATOM     33  O   UNL     1     111.645 130.952 139.061  0.00  0.00    +0.000 OA
ATOM     34  C   UNL     1     110.858 130.924 138.815  0.00  0.00    +0.000 C 
ENDBRANCH  31  34
ENDBRANCH  22  30
ENDBRANCH   5  22
TORSDOF 5
ENDMDL
MODEL 3
REMARK VINA RESULT:      -9.4      3.806      7.330
REMARK  Name = 71777476
REMARK  5 active torsions:
REMARK  status: ('A' for Active; 'I' for Inactive)
REMARK    1  A    between atoms: O_2  and  C_16
REMARK    2  A    between atoms: O_2  and  C_20
REMARK    3  A    between atoms: O_11  and  C_33
REMARK    4  A    between atoms: C_17  and  C_18
REMARK    5  A    between atoms: C_19  and  C_27
REMARK                            x       y       z     vdW  Elec       q    Type
REMARK                         _______ _______ _______ _____ _____    ______ ____
ROOT
ATOM      1  O   UNL     1     106.514 125.848 145.939  0.00  0.00    +0.000 OA
ATOM      2  O   UNL     1     105.835 128.460 144.906  0.00  0.00    +0.000 OA
ATOM      3  O   UNL     1     106.366 128.301 146.238  0.00  0.00    +0.000 OA
ATOM      4  C   UNL     1     106.751 126.192 146.650  0.00  0.00    +0.000 C 
ATOM      5  C   UNL     1     105.683 126.440 143.951  0.00  0.00    +0.000 A 
ATOM      6  C   UNL     1     106.702 127.010 146.749  0.00  0.00    +0.000 C 
ATOM      7  C   UNL     1     106.227 126.322 145.327  0.00  0.00    +0.000 A 
ATOM      8  C   UNL     1     106.178 127.140 145.427  0.00  0.00    +0.000 A 
ATOM      9  C   UNL     1     105.983 125.952 144.591  0.00  0.00    +0.000 A 
ATOM     10  C   UNL     1     106.416 127.484 146.138  0.00  0.00    +0.000 C 
ATOM     11  C   UNL     1     105.632 127.291 144.054  0.00  0.00    +0.000 A 
ATOM     12  C   UNL     1     105.881 127.643 144.797  0.00  0.00    +0.000 A 
ENDROOT
BRANCH   4  14
ATOM     13  O   UNL     1     108.937 124.899 147.962  0.00  0.00    +0.000 OA
ATOM     14  C   UNL     1     107.038 125.719 147.262  0.00  0.00    +0.000 A 
ATOM     15  C   UNL     1     107.844 125.546 147.306  0.00  0.00    +0.000 A 
ATOM     16  C   UNL     1     106.520 125.418 147.829  0.00  0.00    +0.000 A 
ATOM     17  C   UNL     1     108.131 125.072 147.917  0.00  0.00    +0.000 A 
ATOM     18  C   UNL     1     106.807 124.945 148.440  0.00  0.00    +0.000 A 
ATOM     19  C   UNL     1     107.613 124.772 148.485  0.00  0.00    +0.000 A 
BRANCH  19  20
ATOM     20  O   UNL     1     107.899 124.299 149.096  0.00  0.00    +0.000 OA
ATOM     21  C   UNL     1     107.374 123.925 149.611  0.00  0.00    +0.000 C 
ENDBRANCH  19  20
ENDBRANCH   4  14
BRANCH   5  22
ATOM     22  O   UNL     1     105.447 126.094 143.240  0.00  0.00    +0.000 OA
BRANCH  22  30
ATOM     23  O   UNL     1     106.613 126.388 142.469  0.00  0.00    +0.000 OA
ATOM     24  O   UNL     1     106.503 124.138 141.444  0.00  0.00    +0.000 OA
ATOM     25  O   UNL     1     105.373 124.594 142.557  0.00  0.00    +0.000 OA
ATOM     26  O   UNL     1     107.705 125.182 141.015  0.00  0.00    +0.000 OA
ATOM     27  C   UNL     1     106.540 124.888 141.786  0.00  0.00    +0.000 C 
ATOM     28  C   UNL     1     105.974 125.115 142.342  0.00  0.00    +0.000 C 
ATOM     29  C   UNL     1     107.141 125.410 141.571  0.00  0.00    +0.000 C 
ATOM     30  C   UNL     1     106.011 125.865 142.684  0.00  0.00    +0.000 C 
ATOM     31  C   UNL     1     107.177 126.160 141.912  0.00  0.00    +0.000 C 
BRANCH  31  34
ATOM     32  O   UNL     1     108.507 126.654 142.086  0.00  0.00    +0.000 OA
ATOM     33  O   UNL     1     107.652 127.232 141.096  0.00  0.00    +0.000 OA
ATOM     34  C   UNL     1     107.778 126.682 141.698  0.00  0.00    +0.000 C 
ENDBRANCH  31  34
ENDBRANCH  22  30
ENDBRANCH   5  22
TORSDOF 5
ENDMDL
MODEL 4
REMARK VINA RESULT:      -9.4      7.095      8.283
REMARK  Name = 71777476
REMARK  5 active torsions:
REMARK  status: ('A' for Active; 'I' for Inactive)
REMARK    1  A    between atoms: O_2  and  C_16
REMARK    2  A    between atoms: O_2  and  C_20
REMARK    3  A    between atoms: O_11  and  C_33
REMARK    4  A    between atoms: C_17  and  C_18
REMARK    5  A    between atoms: C_19  and  C_27
REMARK                            x       y       z     vdW  Elec       q    Type
REMARK                         _______ _______ _______ _____ _____    ______ ____
ROOT
ATOM      1  O   UNL     1     110.293 127.442 136.349  0.00  0.00    +0.000 OA
ATOM      2  O   UNL     1     110.760 124.731 135.466  0.00  0.00    +0.000 OA
ATOM      3  O   UNL     1     110.101 125.688 134.612  0.00  0.00    +0.000 OA
ATOM      4  C   UNL     1     109.933 127.614 135.627  0.00  0.00    +0.000 C 
ATOM      5  C   UNL     1     111.270 125.731 137.403  0.00  0.00    +0.000 A 
ATOM      6  C   UNL     1     109.869 127.030 135.048  0.00  0.00    +0.000 C 
ATOM      7  C   UNL     1     110.588 126.685 136.493  0.00  0.00    +0.000 A 
ATOM      8  C   UNL     1     110.524 126.101 135.913  0.00  0.00    +0.000 A 
ATOM      9  C   UNL     1     110.961 126.518 137.249  0.00  0.00    +0.000 A 
ATOM     10  C   UNL     1     110.165 126.273 135.191  0.00  0.00    +0.000 C 
ATOM     11  C   UNL     1     111.204 125.123 136.801  0.00  0.00    +0.000 A 
ATOM     12  C   UNL     1     110.828 125.309 136.051  0.00  0.00    +0.000 A 
ENDROOT
BRANCH   4  14
ATOM     13  O   UNL     1     107.952 129.624 136.079  0.00  0.00    +0.000 OA
ATOM     14  C   UNL     1     109.637 128.371 135.483  0.00  0.00    +0.000 A 
ATOM     15  C   UNL     1     108.943 128.619 135.853  0.00  0.00    +0.000 A 
ATOM     16  C   UNL     1     110.036 128.879 134.970  0.00  0.00    +0.000 A 
ATOM     17  C   UNL     1     108.647 129.375 135.710  0.00  0.00    +0.000 A 
ATOM     18  C   UNL     1     109.740 129.636 134.826  0.00  0.00    +0.000 A 
ATOM     19  C   UNL     1     109.045 129.884 135.197  0.00  0.00    +0.000 A 
BRANCH  19  20
ATOM     20  O   UNL     1     108.749 130.640 135.053  0.00  0.00    +0.000 OA
ATOM     21  C   UNL     1     109.253 131.237 134.786  0.00  0.00    +0.000 C 
ENDBRANCH  19  20
ENDBRANCH   4  14
BRANCH   5  22
ATOM     22  O   UNL     1     111.629 125.562 138.127  0.00  0.00    +0.000 OA
BRANCH  22  30
ATOM     23  O   UNL     1     112.964 125.304 137.686  0.00  0.00    +0.000 OA
ATOM     24  O   UNL     1     113.844 126.677 139.549  0.00  0.00    +0.000 OA
ATOM     25  O   UNL     1     112.216 126.477 139.368  0.00  0.00    +0.000 OA
ATOM     26  O   UNL     1     114.884 125.962 138.488  0.00  0.00    +0.000 OA
ATOM     27  C   UNL     1     113.550 126.219 138.928  0.00  0.00    +0.000 C 
ATOM     28  C   UNL     1     112.736 126.120 138.838  0.00  0.00    +0.000 C 
ATOM     29  C   UNL     1     114.071 125.862 138.398  0.00  0.00    +0.000 C 
ATOM     30  C   UNL     1     112.443 125.662 138.217  0.00  0.00    +0.000 C 
ATOM     31  C   UNL     1     113.778 125.405 137.777  0.00  0.00    +0.000 C 
BRANCH  31  34
ATOM     32  O   UNL     1     114.571 125.467 136.590  0.00  0.00    +0.000 OA
ATOM     33  O   UNL     1     114.546 124.270 137.370  0.00  0.00    +0.000 OA
ATOM     34  C   UNL     1     114.298 125.047 137.246  0.00  0.00    +0.000 C 
ENDBRANCH  31  34
ENDBRANCH  22  30
ENDBRANCH   5  22
TORSDOF 5
ENDMDL
MODEL 5
REMARK VINA RESULT:      -9.4      6.854      8.188
REMARK  Name = 71777476
REMARK  5 active torsions:
REMARK  status: ('A' for Active; 'I' for Inactive)
REMARK    1  A    between atoms: O_2  and  C_16
REMARK    2  A    between atoms: O_2  and  C_20
REMARK    3  A    between atoms: O_11  and  C_33
REMARK    4  A    between atoms: C_17  and  C_18
REMARK    5  A    between atoms: C_19  and  C_27
REMARK                            x       y       z     vdW  Elec       q    Type
REMARK                         _______ _______ _______ _____ _____    ______ ____
ROOT
ATOM      1  O   UNL     1     110.974 126.244 136.594  0.00  0.00    +0.000 OA
ATOM      2  O   UNL     1     108.743 126.283 134.759  0.00  0.00    +0.000 OA
ATOM      3  O   UNL     1     109.797 125.308 134.627  0.00  0.00    +0.000 OA
ATOM      4  C   UNL     1     111.293 125.600 136.190  0.00  0.00    +0.000 C 
ATOM      5  C   UNL     1     109.198 127.598 136.514  0.00  0.00    +0.000 A 
ATOM      6  C   UNL     1     110.901 125.288 135.535  0.00  0.00    +0.000 C 
ATOM      7  C   UNL     1     110.262 126.577 136.343  0.00  0.00    +0.000 A 
ATOM      8  C   UNL     1     109.870 126.264 135.687  0.00  0.00    +0.000 A 
ATOM      9  C   UNL     1     109.939 127.247 136.771  0.00  0.00    +0.000 A 
ATOM     10  C   UNL     1     110.190 125.620 135.283  0.00  0.00    +0.000 C 
ATOM     11  C   UNL     1     108.790 127.273 135.832  0.00  0.00    +0.000 A 
ATOM     12  C   UNL     1     109.128 126.602 135.415  0.00  0.00    +0.000 A 
ENDROOT
BRANCH   4  14
ATOM     13  O   UNL     1     112.762 123.362 137.191  0.00  0.00    +0.000 OA
ATOM     14  C   UNL     1     112.005 125.267 136.441  0.00  0.00    +0.000 A 
ATOM     15  C   UNL     1     112.028 124.481 136.690  0.00  0.00    +0.000 A 
ATOM     16  C   UNL     1     112.695 125.721 136.444  0.00  0.00    +0.000 A 
ATOM     17  C   UNL     1     112.739 124.148 136.942  0.00  0.00    +0.000 A 
ATOM     18  C   UNL     1     113.407 125.388 136.695  0.00  0.00    +0.000 A 
ATOM     19  C   UNL     1     113.429 124.601 136.944  0.00  0.00    +0.000 A 
BRANCH  19  20
ATOM     20  O   UNL     1     114.141 124.269 137.195  0.00  0.00    +0.000 OA
ATOM     21  C   UNL     1     114.828 124.725 137.210  0.00  0.00    +0.000 C 
ENDBRANCH  19  20
ENDBRANCH   4  14
BRANCH   5  22
ATOM     22  O   UNL     1     108.880 128.242 136.920  0.00  0.00    +0.000 OA
BRANCH  22  30
ATOM     23  O   UNL     1     109.217 129.248 135.963  0.00  0.00    +0.000 OA
ATOM     24  O   UNL     1     109.758 130.815 137.800  0.00  0.00    +0.000 OA
ATOM     25  O   UNL     1     109.241 129.287 138.145  0.00  0.00    +0.000 OA
ATOM     26  O   UNL     1     109.914 131.299 136.231  0.00  0.00    +0.000 OA
ATOM     27  C   UNL     1     109.578 130.293 137.188  0.00  0.00    +0.000 C 
ATOM     28  C   UNL     1     109.319 129.529 137.361  0.00  0.00    +0.000 C 
ATOM     29  C   UNL     1     109.656 130.535 136.404  0.00  0.00    +0.000 C 
ATOM     30  C   UNL     1     109.139 129.006 136.748  0.00  0.00    +0.000 C 
ATOM     31  C   UNL     1     109.476 130.012 135.791  0.00  0.00    +0.000 C 
BRANCH  31  34
ATOM     32  O   UNL     1     108.911 130.589 134.612  0.00  0.00    +0.000 OA
ATOM     33  O   UNL     1     110.274 130.160 134.615  0.00  0.00    +0.000 OA
ATOM     34  C   UNL     1     109.554 130.254 135.006  0.00  0.00    +0.000 C 
ENDBRANCH  31  34
ENDBRANCH  22  30
ENDBRANCH   5  22
TORSDOF 5
ENDMDL
MODEL 6
REMARK VINA RESULT:      -9.3      3.932      5.475
REMARK  Name = 71777476
REMARK  5 active torsions:
REMARK  status: ('A' for Active; 'I' for Inactive)
REMARK    1  A    between atoms: O_2  and  C_16
REMARK    2  A    between atoms: O_2  and  C_20
REMARK    3  A    between atoms: O_11  and  C_33
REMARK    4  A    between atoms: C_17  and  C_18
REMARK    5  A    between atoms: C_19  and  C_27
REMARK                            x       y       z     vdW  Elec       q    Type
REMARK                         _______ _______ _______ _____ _____    ______ ____
ROOT
ATOM      1  O   UNL     1     104.977 127.672 142.425  0.00  0.00    +0.000 OA
ATOM      2  O   UNL     1     107.844 127.542 142.756  0.00  0.00    +0.000 OA
ATOM      3  O   UNL     1     107.200 128.755 142.314  0.00  0.00    +0.000 OA
ATOM      4  C   UNL     1     105.041 128.459 142.187  0.00  0.00    +0.000 C 
ATOM      5  C   UNL     1     106.276 125.977 143.083  0.00  0.00    +0.000 A 
ATOM      6  C   UNL     1     105.782 128.820 142.150  0.00  0.00    +0.000 C 
ATOM      7  C   UNL     1     105.654 127.245 142.626  0.00  0.00    +0.000 A 
ATOM      8  C   UNL     1     106.395 127.607 142.589  0.00  0.00    +0.000 A 
ATOM      9  C   UNL     1     105.574 126.426 142.873  0.00  0.00    +0.000 A 
ATOM     10  C   UNL     1     106.459 128.394 142.351  0.00  0.00    +0.000 C 
ATOM     11  C   UNL     1     107.047 126.353 143.045  0.00  0.00    +0.000 A 
ATOM     12  C   UNL     1     107.107 127.173 142.796  0.00  0.00    +0.000 A 
ENDROOT
BRANCH   4  14
ATOM     13  O   UNL     1     102.984 129.096 140.308  0.00  0.00    +0.000 OA
ATOM     14  C   UNL     1     104.364 128.886 141.986  0.00  0.00    +0.000 A 
ATOM     15  C   UNL     1     104.012 128.778 141.248  0.00  0.00    +0.000 A 
ATOM     16  C   UNL     1     104.038 129.421 142.524  0.00  0.00    +0.000 A 
ATOM     17  C   UNL     1     103.336 129.204 141.046  0.00  0.00    +0.000 A 
ATOM     18  C   UNL     1     103.361 129.847 142.322  0.00  0.00    +0.000 A 
ATOM     19  C   UNL     1     103.010 129.739 141.583  0.00  0.00    +0.000 A 
BRANCH  19  20
ATOM     20  O   UNL     1     102.333 130.165 141.382  0.00  0.00    +0.000 OA
ATOM     21  C   UNL     1     102.163 130.876 141.766  0.00  0.00    +0.000 C 
ENDBRANCH  19  20
ENDBRANCH   4  14
BRANCH   5  22
ATOM     22  O   UNL     1     106.208 125.190 143.321  0.00  0.00    +0.000 OA
BRANCH  22  30
ATOM     23  O   UNL     1     106.393 125.379 144.726  0.00  0.00    +0.000 OA
ATOM     24  O   UNL     1     104.601 123.734 145.182  0.00  0.00    +0.000 OA
ATOM     25  O   UNL     1     105.014 124.094 143.626  0.00  0.00    +0.000 OA
ATOM     26  O   UNL     1     105.383 124.470 146.433  0.00  0.00    +0.000 OA
ATOM     27  C   UNL     1     105.199 124.282 145.030  0.00  0.00    +0.000 C 
ATOM     28  C   UNL     1     105.404 124.462 144.251  0.00  0.00    +0.000 C 
ATOM     29  C   UNL     1     105.589 124.650 145.656  0.00  0.00    +0.000 C 
ATOM     30  C   UNL     1     106.002 125.010 144.099  0.00  0.00    +0.000 C 
ATOM     31  C   UNL     1     106.187 125.198 145.504  0.00  0.00    +0.000 C 
BRANCH  31  34
ATOM     32  O   UNL     1     107.285 125.251 146.416  0.00  0.00    +0.000 OA
ATOM     33  O   UNL     1     106.264 126.250 146.468  0.00  0.00    +0.000 OA
ATOM     34  C   UNL     1     106.578 125.567 146.129  0.00  0.00    +0.000 C 
ENDBRANCH  31  34
ENDBRANCH  22  30
ENDBRANCH   5  22
TORSDOF 5
ENDMDL
MODEL 7
REMARK VINA RESULT:      -9.3      4.053      6.325
REMARK  Name = 71777476
REMARK  5 active torsions:
REMARK  status: ('A' for Active; 'I' for Inactive)
REMARK    1  A    between atoms: O_2  and  C_16
REMARK    2  A    between atoms: O_2  and  C_20
REMARK    3  A    between atoms: O_11  and  C_33
REMARK    4  A    between atoms: C_17  and  C_18
REMARK    5  A    between atoms: C_19  and  C_27
REMARK                            x       y       z     vdW  Elec       q    Type
REMARK                         _______ _______ _______ _____ _____    ______ ____
ROOT
ATOM      1  O   UNL     1     105.395 126.436 144.138  0.00  0.00    +0.000 OA
ATOM      2  O   UNL     1     107.269 126.437 146.337  0.00  0.00    +0.000 OA
ATOM      3  O   UNL     1     107.241 127.518 145.382  0.00  0.00    +0.000 OA
ATOM      4  C   UNL     1     105.699 127.157 143.880  0.00  0.00    +0.000 C 
ATOM      5  C   UNL     1     105.700 124.942 145.772  0.00  0.00    +0.000 A 
ATOM      6  C   UNL     1     106.314 127.518 144.294  0.00  0.00    +0.000 C 
ATOM      7  C   UNL     1     105.706 126.074 144.812  0.00  0.00    +0.000 A 
ATOM      8  C   UNL     1     106.321 126.436 145.226  0.00  0.00    +0.000 A 
ATOM      9  C   UNL     1     105.380 125.323 145.071  0.00  0.00    +0.000 A 
ATOM     10  C   UNL     1     106.626 127.157 144.967  0.00  0.00    +0.000 C 
ATOM     11  C   UNL     1     106.341 125.317 146.204  0.00  0.00    +0.000 A 
ATOM     12  C   UNL     1     106.653 126.069 145.929  0.00  0.00    +0.000 A 
ENDROOT
BRANCH   4  14
ATOM     13  O   UNL     1     105.324 127.206 141.047  0.00  0.00    +0.000 OA
ATOM     14  C   UNL     1     105.388 127.519 143.206  0.00  0.00    +0.000 A 
ATOM     15  C   UNL     1     105.512 127.182 142.463  0.00  0.00    +0.000 A 
ATOM     16  C   UNL     1     104.954 128.217 143.276  0.00  0.00    +0.000 A 
ATOM     17  C   UNL     1     105.201 127.542 141.790  0.00  0.00    +0.000 A 
ATOM     18  C   UNL     1     104.643 128.578 142.602  0.00  0.00    +0.000 A 
ATOM     19  C   UNL     1     104.767 128.240 141.859  0.00  0.00    +0.000 A 
BRANCH  19  20
ATOM     20  O   UNL     1     104.456 128.602 141.186  0.00  0.00    +0.000 OA
ATOM     21  C   UNL     1     103.806 129.105 141.250  0.00  0.00    +0.000 C 
ENDBRANCH  19  20
ENDBRANCH   4  14
BRANCH   5  22
ATOM     22  O   UNL     1     105.394 124.220 146.029  0.00  0.00    +0.000 OA
BRANCH  22  30
ATOM     23  O   UNL     1     104.495 124.720 147.020  0.00  0.00    +0.000 OA
ATOM     24  O   UNL     1     102.797 123.063 146.317  0.00  0.00    +0.000 OA
ATOM     25  O   UNL     1     104.262 123.115 145.559  0.00  0.00    +0.000 OA
ATOM     26  O   UNL     1     102.464 124.115 147.542  0.00  0.00    +0.000 OA
ATOM     27  C   UNL     1     103.363 123.615 146.551  0.00  0.00    +0.000 C 
ATOM     28  C   UNL     1     104.095 123.641 146.172  0.00  0.00    +0.000 C 
ATOM     29  C   UNL     1     103.196 124.141 147.164  0.00  0.00    +0.000 C 
ATOM     30  C   UNL     1     104.661 124.194 146.407  0.00  0.00    +0.000 C 
ATOM     31  C   UNL     1     103.762 124.694 147.398  0.00  0.00    +0.000 C 
BRANCH  31  34
ATOM     32  O   UNL     1     103.809 125.030 148.786  0.00  0.00    +0.000 OA
ATOM     33  O   UNL     1     103.218 125.936 147.850  0.00  0.00    +0.000 OA
ATOM     34  C   UNL     1     103.596 125.220 148.011  0.00  0.00    +0.000 C 
ENDBRANCH  31  34
ENDBRANCH  22  30
ENDBRANCH   5  22
TORSDOF 5
ENDMDL
MODEL 8
REMARK VINA RESULT:      -9.3      3.978      6.444
REMARK  Name = 71777476
REMARK  5 active torsions:
REMARK  status: ('A' for Active; 'I' for Inactive)
REMARK    1  A    between atoms: O_2  and  C_16
REMARK    2  A    between atoms: O_2  and  C_20
REMARK    3  A    between atoms: O_11  and  C_33
REMARK    4  A    between atoms: C_17  and  C_18
REMARK    5  A    between atoms: C_19  and  C_27
REMARK                            x       y       z     vdW  Elec       q    Type
REMARK                         _______ _______ _______ _____ _____    ______ ____
ROOT
ATOM      1  O   UNL     1     103.237 130.256 141.967  0.00  0.00    +0.000 OA
ATOM      2  O   UNL     1     103.665 127.982 140.237  0.00  0.00    +0.000 OA
ATOM      3  O   UNL     1     102.810 129.073 139.835  0.00  0.00    +0.000 OA
ATOM      4  C   UNL     1     102.740 130.592 141.401  0.00  0.00    +0.000 C 
ATOM      5  C   UNL     1     104.480 128.425 142.276  0.00  0.00    +0.000 A 
ATOM      6  C   UNL     1     102.598 130.198 140.691  0.00  0.00    +0.000 C 
ATOM      7  C   UNL     1     103.592 129.525 141.823  0.00  0.00    +0.000 A 
ATOM      8  C   UNL     1     103.450 129.131 141.112  0.00  0.00    +0.000 A 
ATOM      9  C   UNL     1     104.108 129.186 142.421  0.00  0.00    +0.000 A 
ATOM     10  C   UNL     1     102.953 129.467 140.546  0.00  0.00    +0.000 C 
ATOM     11  C   UNL     1     104.332 128.014 141.536  0.00  0.00    +0.000 A 
ATOM     12  C   UNL     1     103.813 128.369 140.951  0.00  0.00    +0.000 A 
ENDROOT
BRANCH   4  14
ATOM     13  O   UNL     1     102.739 133.438 141.136  0.00  0.00    +0.000 OA
ATOM     14  C   UNL     1     102.386 131.323 141.545  0.00  0.00    +0.000 A 
ATOM     15  C   UNL     1     102.739 132.015 141.269  0.00  0.00    +0.000 A 
ATOM     16  C   UNL     1     101.677 131.362 141.966  0.00  0.00    +0.000 A 
ATOM     17  C   UNL     1     102.385 132.746 141.412  0.00  0.00    +0.000 A 
ATOM     18  C   UNL     1     101.322 132.092 142.110  0.00  0.00    +0.000 A 
ATOM     19  C   UNL     1     101.677 132.784 141.833  0.00  0.00    +0.000 A 
BRANCH  19  20
ATOM     20  O   UNL     1     101.322 133.515 141.977  0.00  0.00    +0.000 OA
ATOM     21  C   UNL     1     100.710 133.576 142.527  0.00  0.00    +0.000 C 
ENDBRANCH  19  20
ENDBRANCH   4  14
BRANCH   5  22
ATOM     22  O   UNL     1     104.976 128.091 142.844  0.00  0.00    +0.000 OA
BRANCH  22  30
ATOM     23  O   UNL     1     106.189 128.636 142.321  0.00  0.00    +0.000 OA
ATOM     24  O   UNL     1     107.404 126.591 143.004  0.00  0.00    +0.000 OA
ATOM     25  O   UNL     1     105.786 126.727 143.299  0.00  0.00    +0.000 OA
ATOM     26  O   UNL     1     108.211 127.818 142.253  0.00  0.00    +0.000 OA
ATOM     27  C   UNL     1     106.999 127.273 142.776  0.00  0.00    +0.000 C 
ATOM     28  C   UNL     1     106.190 127.340 142.924  0.00  0.00    +0.000 C 
ATOM     29  C   UNL     1     107.403 127.886 142.401  0.00  0.00    +0.000 C 
ATOM     30  C   UNL     1     105.785 128.022 142.696  0.00  0.00    +0.000 C 
ATOM     31  C   UNL     1     106.998 128.568 142.173  0.00  0.00    +0.000 C 
BRANCH  31  34
ATOM     32  O   UNL     1     107.472 129.186 140.975  0.00  0.00    +0.000 OA
ATOM     33  O   UNL     1     107.733 129.791 142.244  0.00  0.00    +0.000 OA
ATOM     34  C   UNL     1     107.401 129.182 141.798  0.00  0.00    +0.000 C 
ENDBRANCH  31  34
ENDBRANCH  22  30
ENDBRANCH   5  22
TORSDOF 5
ENDMDL
MODEL 9
REMARK VINA RESULT:      -9.3      7.467      9.151
REMARK  Name = 71777476
REMARK  5 active torsions:
REMARK  status: ('A' for Active; 'I' for Inactive)
REMARK    1  A    between atoms: O_2  and  C_16
REMARK    2  A    between atoms: O_2  and  C_20
REMARK    3  A    between atoms: O_11  and  C_33
REMARK    4  A    between atoms: C_17  and  C_18
REMARK    5  A    between atoms: C_19  and  C_27
REMARK                            x       y       z     vdW  Elec       q    Type
REMARK                         _______ _______ _______ _____ _____    ______ ____
ROOT
ATOM      1  O   UNL     1     111.161 128.637 136.474  0.00  0.00    +0.000 OA
ATOM      2  O   UNL     1     113.751 128.518 135.200  0.00  0.00    +0.000 OA
ATOM      3  O   UNL     1     112.704 129.360 134.677  0.00  0.00    +0.000 OA
ATOM      4  C   UNL     1     110.908 129.178 135.905  0.00  0.00    +0.000 C 
ATOM      5  C   UNL     1     112.979 127.456 137.014  0.00  0.00    +0.000 A 
ATOM      6  C   UNL     1     111.422 129.419 135.307  0.00  0.00    +0.000 C 
ATOM      7  C   UNL     1     111.929 128.336 136.443  0.00  0.00    +0.000 A 
ATOM      8  C   UNL     1     112.443 128.577 135.844  0.00  0.00    +0.000 A 
ATOM      9  C   UNL     1     112.181 127.772 137.041  0.00  0.00    +0.000 A 
ATOM     10  C   UNL     1     112.189 129.119 135.276  0.00  0.00    +0.000 C 
ATOM     11  C   UNL     1     113.515 127.706 136.391  0.00  0.00    +0.000 A 
ATOM     12  C   UNL     1     113.244 128.271 135.802  0.00  0.00    +0.000 A 
ENDROOT
BRANCH   4  14
ATOM     13  O   UNL     1     108.083 128.772 135.759  0.00  0.00    +0.000 OA
ATOM     14  C   UNL     1     110.140 129.479 135.935  0.00  0.00    +0.000 A 
ATOM     15  C   UNL     1     109.495 128.976 135.832  0.00  0.00    +0.000 A 
ATOM     16  C   UNL     1     110.017 130.284 136.069  0.00  0.00    +0.000 A 
ATOM     17  C   UNL     1     108.728 129.276 135.862  0.00  0.00    +0.000 A 
ATOM     18  C   UNL     1     109.250 130.585 136.099  0.00  0.00    +0.000 A 
ATOM     19  C   UNL     1     108.605 130.080 135.996  0.00  0.00    +0.000 A 
BRANCH  19  20
ATOM     20  O   UNL     1     107.837 130.381 136.026  0.00  0.00    +0.000 OA
ATOM     21  C   UNL     1     107.713 131.197 136.033  0.00  0.00    +0.000 C 
ENDBRANCH  19  20
ENDBRANCH   4  14
BRANCH   5  22
ATOM     22  O   UNL     1     113.230 126.914 137.584  0.00  0.00    +0.000 OA
BRANCH  22  30
ATOM     23  O   UNL     1     112.530 125.750 137.139  0.00  0.00    +0.000 OA
ATOM     24  O   UNL     1     114.574 124.394 137.474  0.00  0.00    +0.000 OA
ATOM     25  O   UNL     1     114.592 126.010 137.807  0.00  0.00    +0.000 OA
ATOM     26  O   UNL     1     113.193 123.683 136.918  0.00  0.00    +0.000 OA
ATOM     27  C   UNL     1     113.893 124.846 137.362  0.00  0.00    +0.000 C 
ATOM     28  C   UNL     1     113.902 125.654 137.529  0.00  0.00    +0.000 C 
ATOM     29  C   UNL     1     113.203 124.490 137.085  0.00  0.00    +0.000 C 
ATOM     30  C   UNL     1     113.221 126.106 137.417  0.00  0.00    +0.000 C 
ATOM     31  C   UNL     1     112.522 124.942 136.973  0.00  0.00    +0.000 C 
BRANCH  31  34
ATOM     32  O   UNL     1     111.278 124.286 137.230  0.00  0.00    +0.000 OA
ATOM     33  O   UNL     1     111.693 124.532 135.884  0.00  0.00    +0.000 OA
ATOM     34  C   UNL     1     111.831 124.587 136.695  0.00  0.00    +0.000 C 
ENDBRANCH  31  34
ENDBRANCH  22  30
ENDBRANCH   5  22
TORSDOF 5
ENDMDL
MODEL 10
REMARK VINA RESULT:      -9.3      7.664      8.910
REMARK  Name = 71777476
REMARK  5 active torsions:
REMARK  status: ('A' for Active; 'I' for Inactive)
REMARK    1  A    between atoms: O_2  and  C_16
REMARK    2  A    between atoms: O_2  and  C_20
REMARK    3  A    between atoms: O_11  and  C_33
REMARK    4  A    between atoms: C_17  and  C_18
REMARK    5  A    between atoms: C_19  and  C_27
REMARK                            x       y       z     vdW  Elec       q    Type
REMARK                         _______ _______ _______ _____ _____    ______ ____
ROOT
ATOM      1  O   UNL     1     111.823 127.007 136.092  0.00  0.00    +0.000 OA
ATOM      2  O   UNL     1     110.103 128.796 134.612  0.00  0.00    +0.000 OA
ATOM      3  O   UNL     1     109.647 127.488 135.015  0.00  0.00    +0.000 OA
ATOM      4  C   UNL     1     111.222 126.442 136.106  0.00  0.00    +0.000 C 
ATOM      5  C   UNL     1     112.208 129.070 135.325  0.00  0.00    +0.000 A 
ATOM      6  C   UNL     1     110.496 126.603 135.747  0.00  0.00    +0.000 C 
ATOM      7  C   UNL     1     111.699 127.733 135.720  0.00  0.00    +0.000 A 
ATOM      8  C   UNL     1     110.973 127.893 135.360  0.00  0.00    +0.000 A 
ATOM      9  C   UNL     1     112.332 128.313 135.712  0.00  0.00    +0.000 A 
ATOM     10  C   UNL     1     110.372 127.328 135.374  0.00  0.00    +0.000 C 
ATOM     11  C   UNL     1     111.454 129.237 134.951  0.00  0.00    +0.000 A 
ATOM     12  C   UNL     1     110.832 128.645 134.969  0.00  0.00    +0.000 A 
ENDROOT
BRANCH   4  14
ATOM     13  O   UNL     1     111.209 124.844 138.475  0.00  0.00    +0.000 OA
ATOM     14  C   UNL     1     111.345 125.717 136.479  0.00  0.00    +0.000 A 
ATOM     15  C   UNL     1     111.215 125.643 137.291  0.00  0.00    +0.000 A 
ATOM     16  C   UNL     1     111.600 125.066 136.041  0.00  0.00    +0.000 A 
ATOM     17  C   UNL     1     111.339 124.918 137.664  0.00  0.00    +0.000 A 
ATOM     18  C   UNL     1     111.724 124.340 136.414  0.00  0.00    +0.000 A 
ATOM     19  C   UNL     1     111.593 124.267 137.226  0.00  0.00    +0.000 A 
BRANCH  19  20
ATOM     20  O   UNL     1     111.717 123.541 137.599  0.00  0.00    +0.000 OA
ATOM     21  C   UNL     1     112.067 122.919 137.186  0.00  0.00    +0.000 C 
ENDBRANCH  19  20
ENDBRANCH   4  14
BRANCH   5  22
ATOM     22  O   UNL     1     112.811 129.633 135.312  0.00  0.00    +0.000 OA
BRANCH  22  30
ATOM     23  O   UNL     1     112.415 130.368 136.472  0.00  0.00    +0.000 OA
ATOM     24  O   UNL     1     114.789 130.612 137.129  0.00  0.00    +0.000 OA
ATOM     25  O   UNL     1     114.394 129.795 135.750  0.00  0.00    +0.000 OA
ATOM     26  O   UNL     1     113.602 131.266 138.068  0.00  0.00    +0.000 OA
ATOM     27  C   UNL     1     113.998 130.531 136.910  0.00  0.00    +0.000 C 
ATOM     28  C   UNL     1     113.801 130.122 136.220  0.00  0.00    +0.000 C 
ATOM     29  C   UNL     1     113.404 130.858 137.380  0.00  0.00    +0.000 C 
ATOM     30  C   UNL     1     113.009 130.041 136.001  0.00  0.00    +0.000 C 
ATOM     31  C   UNL     1     112.613 130.776 137.161  0.00  0.00    +0.000 C 
BRANCH  31  34
ATOM     32  O   UNL     1     111.699 130.666 138.253  0.00  0.00    +0.000 OA
ATOM     33  O   UNL     1     111.745 131.866 137.478  0.00  0.00    +0.000 OA
ATOM     34  C   UNL     1     112.019 131.103 137.630  0.00  0.00    +0.000 C 
ENDBRANCH  31  34
ENDBRANCH  22  30
ENDBRANCH   5  22
TORSDOF 5
ENDMDL
