MODEL 1
REMARK VINA RESULT:      -7.9      0.000      0.000
REMARK  Name = 2922801
REMARK  4 active torsions:
REMARK  status: ('A' for Active; 'I' for Inactive)
REMARK    1  A    between atoms: O_3  and  C_16
REMARK    2  A    between atoms: O_4  and  C_17
REMARK    3  A    between atoms: O_5  and  C_19
REMARK    4  A    between atoms: C_6  and  C_8
REMARK                            x       y       z     vdW  Elec       q    Type
REMARK                         _______ _______ _______ _____ _____    ______ ____
ROOT
ATOM      1  O   UNL     1     104.494 123.850 146.421  0.00  0.00    +0.000 OA
ATOM      2  O   UNL     1     102.673 125.102 147.535  0.00  0.00    +0.000 OA
ATOM      3  C   UNL     1     104.674 124.485 146.917  0.00  0.00    +0.000 C 
ATOM      4  C   UNL     1     104.066 124.902 147.289  0.00  0.00    +0.000 C 
ATOM      5  C   UNL     1     103.280 124.685 147.164  0.00  0.00    +0.000 C 
ATOM      6  C   UNL     1     103.101 124.051 146.668  0.00  0.00    +0.000 A 
ATOM      7  C   UNL     1     103.709 123.633 146.296  0.00  0.00    +0.000 A 
ATOM      8  C   UNL     1     102.278 123.834 146.546  0.00  0.00    +0.000 A 
ATOM      9  C   UNL     1     103.535 122.970 145.777  0.00  0.00    +0.000 A 
ATOM     10  C   UNL     1     102.086 123.174 146.031  0.00  0.00    +0.000 A 
ATOM     11  C   UNL     1     102.718 122.739 145.644  0.00  0.00    +0.000 A 
ENDROOT
BRANCH   3  12
ATOM     12  C   UNL     1     105.459 124.702 147.041  0.00  0.00    +0.000 A 
ATOM     13  C   UNL     1     105.876 125.099 146.450  0.00  0.00    +0.000 A 
ATOM     14  C   UNL     1     105.829 124.522 147.757  0.00  0.00    +0.000 A 
ATOM     15  C   UNL     1     106.663 125.316 146.574  0.00  0.00    +0.000 A 
ATOM     16  C   UNL     1     106.615 124.740 147.881  0.00  0.00    +0.000 A 
ATOM     17  C   UNL     1     107.032 125.137 147.290  0.00  0.00    +0.000 A 
BRANCH  15  18
ATOM     18  O   UNL     1     107.079 125.713 145.984  0.00  0.00    +0.000 OA
ATOM     19  C   UNL     1     106.688 126.247 145.491  0.00  0.00    +0.000 C 
ENDBRANCH  15  18
BRANCH  17  20
ATOM     20  O   UNL     1     107.818 125.354 147.414  0.00  0.00    +0.000 OA
ATOM     21  C   UNL     1     108.256 124.993 148.013  0.00  0.00    +0.000 C 
ENDBRANCH  17  20
ENDBRANCH   3  12
BRANCH  10  22
ATOM     22  O   UNL     1     101.299 122.959 145.908  0.00  0.00    +0.000 OA
ATOM     23  C   UNL     1     101.042 122.746 145.153  0.00  0.00    +0.000 C 
ENDBRANCH  10  22
TORSDOF 4
ENDMDL
MODEL 2
REMARK VINA RESULT:      -7.5      8.297      9.678
REMARK  Name = 2922801
REMARK  4 active torsions:
REMARK  status: ('A' for Active; 'I' for Inactive)
REMARK    1  A    between atoms: O_3  and  C_16
REMARK    2  A    between atoms: O_4  and  C_17
REMARK    3  A    between atoms: O_5  and  C_19
REMARK    4  A    between atoms: C_6  and  C_8
REMARK                            x       y       z     vdW  Elec       q    Type
REMARK                         _______ _______ _______ _____ _____    ______ ____
ROOT
ATOM      1  O   UNL     1     102.892 131.930 141.251  0.00  0.00    +0.000 OA
ATOM      2  O   UNL     1     100.718 132.123 142.418  0.00  0.00    +0.000 OA
ATOM      3  C   UNL     1     102.518 131.254 141.539  0.00  0.00    +0.000 C 
ATOM      4  C   UNL     1     101.792 131.318 141.928  0.00  0.00    +0.000 C 
ATOM      5  C   UNL     1     101.443 132.059 142.029  0.00  0.00    +0.000 C 
ATOM      6  C   UNL     1     101.817 132.735 141.742  0.00  0.00    +0.000 A 
ATOM      7  C   UNL     1     102.543 132.670 141.352  0.00  0.00    +0.000 A 
ATOM      8  C   UNL     1     101.443 133.500 141.854  0.00  0.00    +0.000 A 
ATOM      9  C   UNL     1     102.944 133.367 141.048  0.00  0.00    +0.000 A 
ATOM     10  C   UNL     1     101.829 134.208 141.556  0.00  0.00    +0.000 A 
ATOM     11  C   UNL     1     102.584 134.141 141.151  0.00  0.00    +0.000 A 
ENDROOT
BRANCH   3  12
ATOM     12  C   UNL     1     102.867 130.514 141.438  0.00  0.00    +0.000 A 
ATOM     13  C   UNL     1     102.703 130.069 140.762  0.00  0.00    +0.000 A 
ATOM     14  C   UNL     1     103.380 130.217 142.012  0.00  0.00    +0.000 A 
ATOM     15  C   UNL     1     103.053 129.328 140.661  0.00  0.00    +0.000 A 
ATOM     16  C   UNL     1     103.729 129.477 141.911  0.00  0.00    +0.000 A 
ATOM     17  C   UNL     1     103.566 129.033 141.235  0.00  0.00    +0.000 A 
BRANCH  15  18
ATOM     18  O   UNL     1     102.889 128.885 139.986  0.00  0.00    +0.000 OA
ATOM     19  C   UNL     1     102.254 129.090 139.500  0.00  0.00    +0.000 C 
ENDBRANCH  15  18
BRANCH  17  20
ATOM     20  O   UNL     1     103.915 128.292 141.134  0.00  0.00    +0.000 OA
ATOM     21  C   UNL     1     104.514 128.046 141.644  0.00  0.00    +0.000 C 
ENDBRANCH  17  20
ENDBRANCH   3  12
BRANCH  10  22
ATOM     22  O   UNL     1     101.477 134.947 141.659  0.00  0.00    +0.000 OA
ATOM     23  C   UNL     1     101.838 135.513 142.139  0.00  0.00    +0.000 C 
ENDBRANCH  10  22
TORSDOF 4
ENDMDL
MODEL 3
REMARK VINA RESULT:      -7.5      0.795      4.769
REMARK  Name = 2922801
REMARK  4 active torsions:
REMARK  status: ('A' for Active; 'I' for Inactive)
REMARK    1  A    between atoms: O_3  and  C_16
REMARK    2  A    between atoms: O_4  and  C_17
REMARK    3  A    between atoms: O_5  and  C_19
REMARK    4  A    between atoms: C_6  and  C_8
REMARK                            x       y       z     vdW  Elec       q    Type
REMARK                         _______ _______ _______ _____ _____    ______ ____
ROOT
ATOM      1  O   UNL     1     104.684 124.349 147.339  0.00  0.00    +0.000 OA
ATOM      2  O   UNL     1     105.667 125.355 145.302  0.00  0.00    +0.000 OA
ATOM      3  C   UNL     1     104.228 124.426 146.656  0.00  0.00    +0.000 C 
ATOM      4  C   UNL     1     104.556 124.762 145.976  0.00  0.00    +0.000 C 
ATOM      5  C   UNL     1     105.340 125.020 145.981  0.00  0.00    +0.000 C 
ATOM      6  C   UNL     1     105.795 124.943 146.664  0.00  0.00    +0.000 A 
ATOM      7  C   UNL     1     105.467 124.607 147.344  0.00  0.00    +0.000 A 
ATOM      8  C   UNL     1     106.611 125.215 146.656  0.00  0.00    +0.000 A 
ATOM      9  C   UNL     1     105.932 124.521 148.062  0.00  0.00    +0.000 A 
ATOM     10  C   UNL     1     107.090 125.138 147.364  0.00  0.00    +0.000 A 
ATOM     11  C   UNL     1     106.749 124.788 148.072  0.00  0.00    +0.000 A 
ENDROOT
BRANCH   3  12
ATOM     12  C   UNL     1     103.445 124.168 146.652  0.00  0.00    +0.000 A 
ATOM     13  C   UNL     1     102.859 124.620 147.017  0.00  0.00    +0.000 A 
ATOM     14  C   UNL     1     103.246 123.458 146.282  0.00  0.00    +0.000 A 
ATOM     15  C   UNL     1     102.075 124.362 147.012  0.00  0.00    +0.000 A 
ATOM     16  C   UNL     1     102.463 123.200 146.277  0.00  0.00    +0.000 A 
ATOM     17  C   UNL     1     101.877 123.652 146.643  0.00  0.00    +0.000 A 
BRANCH  15  18
ATOM     18  O   UNL     1     101.491 124.814 147.377  0.00  0.00    +0.000 OA
ATOM     19  C   UNL     1     101.660 125.224 148.074  0.00  0.00    +0.000 C 
ENDBRANCH  15  18
BRANCH  17  20
ATOM     20  O   UNL     1     101.093 123.394 146.638  0.00  0.00    +0.000 OA
ATOM     21  C   UNL     1     100.877 122.740 146.185  0.00  0.00    +0.000 C 
ENDBRANCH  17  20
ENDBRANCH   3  12
BRANCH  10  22
ATOM     22  O   UNL     1     107.873 125.397 147.366  0.00  0.00    +0.000 OA
ATOM     23  C   UNL     1     108.412 125.079 147.905  0.00  0.00    +0.000 C 
ENDBRANCH  10  22
TORSDOF 4
ENDMDL
MODEL 4
REMARK VINA RESULT:      -7.4     12.871     14.399
REMARK  Name = 2922801
REMARK  4 active torsions:
REMARK  status: ('A' for Active; 'I' for Inactive)
REMARK    1  A    between atoms: O_3  and  C_16
REMARK    2  A    between atoms: O_4  and  C_17
REMARK    3  A    between atoms: O_5  and  C_19
REMARK    4  A    between atoms: C_6  and  C_8
REMARK                            x       y       z     vdW  Elec       q    Type
REMARK                         _______ _______ _______ _____ _____    ______ ____
ROOT
ATOM      1  O   UNL     1     113.872 127.548 136.360  0.00  0.00    +0.000 OA
ATOM      2  O   UNL     1     111.458 127.406 135.836  0.00  0.00    +0.000 OA
ATOM      3  C   UNL     1     113.478 128.205 136.055  0.00  0.00    +0.000 C 
ATOM      4  C   UNL     1     112.672 128.158 135.880  0.00  0.00    +0.000 C 
ATOM      5  C   UNL     1     112.263 127.453 136.010  0.00  0.00    +0.000 C 
ATOM      6  C   UNL     1     112.658 126.797 136.315  0.00  0.00    +0.000 A 
ATOM      7  C   UNL     1     113.463 126.844 136.490  0.00  0.00    +0.000 A 
ATOM      8  C   UNL     1     112.220 126.069 136.447  0.00  0.00    +0.000 A 
ATOM      9  C   UNL     1     113.886 126.167 136.809  0.00  0.00    +0.000 A 
ATOM     10  C   UNL     1     112.626 125.382 136.765  0.00  0.00    +0.000 A 
ATOM     11  C   UNL     1     113.465 125.431 136.947  0.00  0.00    +0.000 A 
ENDROOT
BRANCH   3  12
ATOM     12  C   UNL     1     113.887 128.909 135.924  0.00  0.00    +0.000 A 
ATOM     13  C   UNL     1     113.904 129.490 136.509  0.00  0.00    +0.000 A 
ATOM     14  C   UNL     1     114.278 129.033 135.208  0.00  0.00    +0.000 A 
ATOM     15  C   UNL     1     114.314 130.195 136.379  0.00  0.00    +0.000 A 
ATOM     16  C   UNL     1     114.688 129.736 135.078  0.00  0.00    +0.000 A 
ATOM     17  C   UNL     1     114.705 130.318 135.663  0.00  0.00    +0.000 A 
BRANCH  15  18
ATOM     18  O   UNL     1     114.332 130.776 136.963  0.00  0.00    +0.000 OA
ATOM     19  C   UNL     1     113.988 130.631 137.700  0.00  0.00    +0.000 C 
ENDBRANCH  15  18
BRANCH  17  20
ATOM     20  O   UNL     1     115.115 131.023 135.533  0.00  0.00    +0.000 OA
ATOM     21  C   UNL     1     115.537 131.130 134.832  0.00  0.00    +0.000 C 
ENDBRANCH  17  20
ENDBRANCH   3  12
BRANCH  10  22
ATOM     22  O   UNL     1     112.214 124.679 136.894  0.00  0.00    +0.000 OA
ATOM     23  C   UNL     1     112.566 123.955 136.713  0.00  0.00    +0.000 C 
ENDBRANCH  10  22
TORSDOF 4
ENDMDL
MODEL 5
REMARK VINA RESULT:      -7.4      7.356      8.864
REMARK  Name = 2922801
REMARK  4 active torsions:
REMARK  status: ('A' for Active; 'I' for Inactive)
REMARK    1  A    between atoms: O_3  and  C_16
REMARK    2  A    between atoms: O_4  and  C_17
REMARK    3  A    between atoms: O_5  and  C_19
REMARK    4  A    between atoms: C_6  and  C_8
REMARK                            x       y       z     vdW  Elec       q    Type
REMARK                         _______ _______ _______ _____ _____    ______ ____
ROOT
ATOM      1  O   UNL     1     103.467 130.335 142.125  0.00  0.00    +0.000 OA
ATOM      2  O   UNL     1     102.991 128.834 140.216  0.00  0.00    +0.000 OA
ATOM      3  C   UNL     1     102.933 130.568 141.541  0.00  0.00    +0.000 C 
ATOM      4  C   UNL     1     102.774 130.067 140.903  0.00  0.00    +0.000 C 
ATOM      5  C   UNL     1     103.150 129.334 140.852  0.00  0.00    +0.000 C 
ATOM      6  C   UNL     1     103.683 129.102 141.436  0.00  0.00    +0.000 A 
ATOM      7  C   UNL     1     103.842 129.603 142.073  0.00  0.00    +0.000 A 
ATOM      8  C   UNL     1     104.067 128.335 141.371  0.00  0.00    +0.000 A 
ATOM      9  C   UNL     1     104.396 129.371 142.689  0.00  0.00    +0.000 A 
ATOM     10  C   UNL     1     104.624 128.088 141.977  0.00  0.00    +0.000 A 
ATOM     11  C   UNL     1     104.789 128.609 142.640  0.00  0.00    +0.000 A 
ENDROOT
BRANCH   3  12
ATOM     12  C   UNL     1     102.558 131.301 141.592  0.00  0.00    +0.000 A 
ATOM     13  C   UNL     1     102.921 131.972 141.278  0.00  0.00    +0.000 A 
ATOM     14  C   UNL     1     101.821 131.363 141.958  0.00  0.00    +0.000 A 
ATOM     15  C   UNL     1     102.545 132.706 141.330  0.00  0.00    +0.000 A 
ATOM     16  C   UNL     1     101.447 132.096 142.010  0.00  0.00    +0.000 A 
ATOM     17  C   UNL     1     101.809 132.767 141.695  0.00  0.00    +0.000 A 
BRANCH  15  18
ATOM     18  O   UNL     1     102.907 133.377 141.016  0.00  0.00    +0.000 OA
ATOM     19  C   UNL     1     103.646 133.316 140.652  0.00  0.00    +0.000 C 
ENDBRANCH  15  18
BRANCH  17  20
ATOM     20  O   UNL     1     101.434 133.501 141.747  0.00  0.00    +0.000 OA
ATOM     21  C   UNL     1     100.710 133.567 142.138  0.00  0.00    +0.000 C 
ENDBRANCH  17  20
ENDBRANCH   3  12
BRANCH  10  22
ATOM     22  O   UNL     1     104.997 127.354 141.922  0.00  0.00    +0.000 OA
ATOM     23  C   UNL     1     105.556 127.133 142.487  0.00  0.00    +0.000 C 
ENDBRANCH  10  22
TORSDOF 4
ENDMDL
MODEL 6
REMARK VINA RESULT:      -7.4     12.476     14.007
REMARK  Name = 2922801
REMARK  4 active torsions:
REMARK  status: ('A' for Active; 'I' for Inactive)
REMARK    1  A    between atoms: O_3  and  C_16
REMARK    2  A    between atoms: O_4  and  C_17
REMARK    3  A    between atoms: O_5  and  C_19
REMARK    4  A    between atoms: C_6  and  C_8
REMARK                            x       y       z     vdW  Elec       q    Type
REMARK                         _______ _______ _______ _____ _____    ______ ____
ROOT
ATOM      1  O   UNL     1     113.249 127.278 136.101  0.00  0.00    +0.000 OA
ATOM      2  O   UNL     1     112.483 128.718 137.962  0.00  0.00    +0.000 OA
ATOM      3  C   UNL     1     112.744 126.972 136.678  0.00  0.00    +0.000 C 
ATOM      4  C   UNL     1     112.489 127.453 137.299  0.00  0.00    +0.000 C 
ATOM      5  C   UNL     1     112.738 128.238 137.342  0.00  0.00    +0.000 C 
ATOM      6  C   UNL     1     113.242 128.543 136.765  0.00  0.00    +0.000 A 
ATOM      7  C   UNL     1     113.498 128.062 136.144  0.00  0.00    +0.000 A 
ATOM      8  C   UNL     1     113.495 129.363 136.821  0.00  0.00    +0.000 A 
ATOM      9  C   UNL     1     114.024 128.369 135.537  0.00  0.00    +0.000 A 
ATOM     10  C   UNL     1     114.020 129.686 136.223  0.00  0.00    +0.000 A 
ATOM     11  C   UNL     1     114.286 129.185 135.577  0.00  0.00    +0.000 A 
ENDROOT
BRANCH   3  12
ATOM     12  C   UNL     1     112.495 126.187 136.635  0.00  0.00    +0.000 A 
ATOM     13  C   UNL     1     111.825 125.991 136.196  0.00  0.00    +0.000 A 
ATOM     14  C   UNL     1     112.916 125.598 137.031  0.00  0.00    +0.000 A 
ATOM     15  C   UNL     1     111.576 125.205 136.153  0.00  0.00    +0.000 A 
ATOM     16  C   UNL     1     112.667 124.813 136.988  0.00  0.00    +0.000 A 
ATOM     17  C   UNL     1     111.997 124.617 136.549  0.00  0.00    +0.000 A 
BRANCH  15  18
ATOM     18  O   UNL     1     110.907 125.008 135.714  0.00  0.00    +0.000 OA
ATOM     19  C   UNL     1     110.513 125.590 135.279  0.00  0.00    +0.000 C 
ENDBRANCH  15  18
BRANCH  17  20
ATOM     20  O   UNL     1     111.747 123.831 136.506  0.00  0.00    +0.000 OA
ATOM     21  C   UNL     1     112.098 123.260 136.987  0.00  0.00    +0.000 C 
ENDBRANCH  17  20
ENDBRANCH   3  12
BRANCH  10  22
ATOM     22  O   UNL     1     114.268 130.472 136.269  0.00  0.00    +0.000 OA
ATOM     23  C   UNL     1     114.974 130.703 135.910  0.00  0.00    +0.000 C 
ENDBRANCH  10  22
TORSDOF 4
ENDMDL
MODEL 7
REMARK VINA RESULT:      -7.3     12.730     14.682
REMARK  Name = 2922801
REMARK  4 active torsions:
REMARK  status: ('A' for Active; 'I' for Inactive)
REMARK    1  A    between atoms: O_3  and  C_16
REMARK    2  A    between atoms: O_4  and  C_17
REMARK    3  A    between atoms: O_5  and  C_19
REMARK    4  A    between atoms: C_6  and  C_8
REMARK                            x       y       z     vdW  Elec       q    Type
REMARK                         _______ _______ _______ _____ _____    ______ ____
ROOT
ATOM      1  O   UNL     1     113.857 127.796 135.824  0.00  0.00    +0.000 OA
ATOM      2  O   UNL     1     113.136 129.398 137.568  0.00  0.00    +0.000 OA
ATOM      3  C   UNL     1     113.383 127.539 136.448  0.00  0.00    +0.000 C 
ATOM      4  C   UNL     1     113.143 128.074 137.030  0.00  0.00    +0.000 C 
ATOM      5  C   UNL     1     113.377 128.864 136.986  0.00  0.00    +0.000 C 
ATOM      6  C   UNL     1     113.850 129.120 136.362  0.00  0.00    +0.000 A 
ATOM      7  C   UNL     1     114.091 128.585 135.780  0.00  0.00    +0.000 A 
ATOM      8  C   UNL     1     114.087 129.946 136.328  0.00  0.00    +0.000 A 
ATOM      9  C   UNL     1     114.584 128.840 135.124  0.00  0.00    +0.000 A 
ATOM     10  C   UNL     1     114.580 130.218 135.679  0.00  0.00    +0.000 A 
ATOM     11  C   UNL     1     114.831 129.662 135.073  0.00  0.00    +0.000 A 
ENDROOT
BRANCH   3  12
ATOM     12  C   UNL     1     113.150 126.750 136.492  0.00  0.00    +0.000 A 
ATOM     13  C   UNL     1     113.680 126.177 136.759  0.00  0.00    +0.000 A 
ATOM     14  C   UNL     1     112.385 126.532 136.269  0.00  0.00    +0.000 A 
ATOM     15  C   UNL     1     113.446 125.386 136.802  0.00  0.00    +0.000 A 
ATOM     16  C   UNL     1     112.152 125.742 136.313  0.00  0.00    +0.000 A 
ATOM     17  C   UNL     1     112.682 125.170 136.579  0.00  0.00    +0.000 A 
BRANCH  15  18
ATOM     18  O   UNL     1     113.976 124.814 137.069  0.00  0.00    +0.000 OA
ATOM     19  C   UNL     1     114.681 125.042 137.433  0.00  0.00    +0.000 C 
ENDBRANCH  15  18
BRANCH  17  20
ATOM     20  O   UNL     1     112.449 124.379 136.623  0.00  0.00    +0.000 OA
ATOM     21  C   UNL     1     111.675 124.167 136.432  0.00  0.00    +0.000 C 
ENDBRANCH  17  20
ENDBRANCH   3  12
BRANCH  10  22
ATOM     22  O   UNL     1     114.813 131.009 135.638  0.00  0.00    +0.000 OA
ATOM     23  C   UNL     1     115.370 131.247 135.078  0.00  0.00    +0.000 C 
ENDBRANCH  10  22
TORSDOF 4
ENDMDL
MODEL 8
REMARK VINA RESULT:      -7.2      9.604     11.710
REMARK  Name = 2922801
REMARK  4 active torsions:
REMARK  status: ('A' for Active; 'I' for Inactive)
REMARK    1  A    between atoms: O_3  and  C_16
REMARK    2  A    between atoms: O_4  and  C_17
REMARK    3  A    between atoms: O_5  and  C_19
REMARK    4  A    between atoms: C_6  and  C_8
REMARK                            x       y       z     vdW  Elec       q    Type
REMARK                         _______ _______ _______ _____ _____    ______ ____
ROOT
ATOM      1  O   UNL     1     111.935 126.550 137.584  0.00  0.00    +0.000 OA
ATOM      2  O   UNL     1     111.548 124.129 137.244  0.00  0.00    +0.000 OA
ATOM      3  C   UNL     1     112.193 126.008 138.150  0.00  0.00    +0.000 C 
ATOM      4  C   UNL     1     112.064 125.200 138.037  0.00  0.00    +0.000 C 
ATOM      5  C   UNL     1     111.677 124.936 137.357  0.00  0.00    +0.000 C 
ATOM      6  C   UNL     1     111.420 125.478 136.792  0.00  0.00    +0.000 A 
ATOM      7  C   UNL     1     111.549 126.286 136.905  0.00  0.00    +0.000 A 
ATOM      8  C   UNL     1     111.018 125.190 136.088  0.00  0.00    +0.000 A 
ATOM      9  C   UNL     1     111.285 126.861 136.323  0.00  0.00    +0.000 A 
ATOM     10  C   UNL     1     110.748 125.750 135.496  0.00  0.00    +0.000 A 
ATOM     11  C   UNL     1     110.882 126.591 135.614  0.00  0.00    +0.000 A 
ENDROOT
BRANCH   3  12
ATOM     12  C   UNL     1     112.579 126.272 138.829  0.00  0.00    +0.000 A 
ATOM     13  C   UNL     1     112.150 126.409 139.520  0.00  0.00    +0.000 A 
ATOM     14  C   UNL     1     113.394 126.400 138.817  0.00  0.00    +0.000 A 
ATOM     15  C   UNL     1     112.537 126.674 140.200  0.00  0.00    +0.000 A 
ATOM     16  C   UNL     1     113.781 126.664 139.496  0.00  0.00    +0.000 A 
ATOM     17  C   UNL     1     113.352 126.801 140.187  0.00  0.00    +0.000 A 
BRANCH  15  18
ATOM     18  O   UNL     1     112.109 126.811 140.891  0.00  0.00    +0.000 OA
ATOM     19  C   UNL     1     111.283 126.811 140.872  0.00  0.00    +0.000 C 
ENDBRANCH  15  18
BRANCH  17  20
ATOM     20  O   UNL     1     113.738 127.066 140.867  0.00  0.00    +0.000 OA
ATOM     21  C   UNL     1     114.560 127.143 140.870  0.00  0.00    +0.000 C 
ENDBRANCH  17  20
ENDBRANCH   3  12
BRANCH  10  22
ATOM     22  O   UNL     1     110.361 125.483 134.817  0.00  0.00    +0.000 OA
ATOM     23  C   UNL     1     109.623 125.789 134.616  0.00  0.00    +0.000 C 
ENDBRANCH  10  22
TORSDOF 4
ENDMDL
MODEL 9
REMARK VINA RESULT:      -7.2      5.548      6.576
REMARK  Name = 2922801
REMARK  4 active torsions:
REMARK  status: ('A' for Active; 'I' for Inactive)
REMARK    1  A    between atoms: O_3  and  C_16
REMARK    2  A    between atoms: O_4  and  C_17
REMARK    3  A    between atoms: O_5  and  C_19
REMARK    4  A    between atoms: C_6  and  C_8
REMARK                            x       y       z     vdW  Elec       q    Type
REMARK                         _______ _______ _______ _____ _____    ______ ____
ROOT
ATOM      1  O   UNL     1     105.788 125.191 140.087  0.00  0.00    +0.000 OA
ATOM      2  O   UNL     1     105.695 122.747 140.468  0.00  0.00    +0.000 OA
ATOM      3  C   UNL     1     106.370 124.822 140.541  0.00  0.00    +0.000 C 
ATOM      4  C   UNL     1     106.339 124.007 140.668  0.00  0.00    +0.000 C 
ATOM      5  C   UNL     1     105.726 123.562 140.341  0.00  0.00    +0.000 C 
ATOM      6  C   UNL     1     105.145 123.930 139.887  0.00  0.00    +0.000 A 
ATOM      7  C   UNL     1     105.176 124.746 139.760  0.00  0.00    +0.000 A 
ATOM      8  C   UNL     1     104.511 123.455 139.552  0.00  0.00    +0.000 A 
ATOM      9  C   UNL     1     104.575 125.141 139.288  0.00  0.00    +0.000 A 
ATOM     10  C   UNL     1     103.903 123.834 139.078  0.00  0.00    +0.000 A 
ATOM     11  C   UNL     1     103.935 124.683 138.945  0.00  0.00    +0.000 A 
ENDROOT
BRANCH   3  12
ATOM     12  C   UNL     1     106.982 125.267 140.868  0.00  0.00    +0.000 A 
ATOM     13  C   UNL     1     106.890 125.611 141.612  0.00  0.00    +0.000 A 
ATOM     14  C   UNL     1     107.687 125.369 140.451  0.00  0.00    +0.000 A 
ATOM     15  C   UNL     1     107.503 126.057 141.939  0.00  0.00    +0.000 A 
ATOM     16  C   UNL     1     108.299 125.814 140.778  0.00  0.00    +0.000 A 
ATOM     17  C   UNL     1     108.207 126.158 141.522  0.00  0.00    +0.000 A 
BRANCH  15  18
ATOM     18  O   UNL     1     107.411 126.401 142.683  0.00  0.00    +0.000 OA
ATOM     19  C   UNL     1     106.658 126.472 143.014  0.00  0.00    +0.000 C 
ENDBRANCH  15  18
BRANCH  17  20
ATOM     20  O   UNL     1     108.820 126.604 141.850  0.00  0.00    +0.000 OA
ATOM     21  C   UNL     1     109.494 126.768 141.403  0.00  0.00    +0.000 C 
ENDBRANCH  17  20
ENDBRANCH   3  12
BRANCH  10  22
ATOM     22  O   UNL     1     103.292 123.386 138.752  0.00  0.00    +0.000 OA
ATOM     23  C   UNL     1     102.608 123.758 138.478  0.00  0.00    +0.000 C 
ENDBRANCH  10  22
TORSDOF 4
ENDMDL
MODEL 10
REMARK VINA RESULT:      -7.2     12.504     13.806
REMARK  Name = 2922801
REMARK  4 active torsions:
REMARK  status: ('A' for Active; 'I' for Inactive)
REMARK    1  A    between atoms: O_3  and  C_16
REMARK    2  A    between atoms: O_4  and  C_17
REMARK    3  A    between atoms: O_5  and  C_19
REMARK    4  A    between atoms: C_6  and  C_8
REMARK                            x       y       z     vdW  Elec       q    Type
REMARK                         _______ _______ _______ _____ _____    ______ ____
ROOT
ATOM      1  O   UNL     1     113.465 126.788 136.700  0.00  0.00    +0.000 OA
ATOM      2  O   UNL     1     111.197 126.381 135.797  0.00  0.00    +0.000 OA
ATOM      3  C   UNL     1     113.000 127.423 136.454  0.00  0.00    +0.000 C 
ATOM      4  C   UNL     1     112.243 127.288 136.153  0.00  0.00    +0.000 C 
ATOM      5  C   UNL     1     111.953 126.517 136.098  0.00  0.00    +0.000 C 
ATOM      6  C   UNL     1     112.418 125.882 136.344  0.00  0.00    +0.000 A 
ATOM      7  C   UNL     1     113.175 126.018 136.645  0.00  0.00    +0.000 A 
ATOM      8  C   UNL     1     112.105 125.084 136.282  0.00  0.00    +0.000 A 
ATOM      9  C   UNL     1     113.670 125.365 136.905  0.00  0.00    +0.000 A 
ATOM     10  C   UNL     1     112.585 124.419 136.537  0.00  0.00    +0.000 A 
ATOM     11  C   UNL     1     113.374 124.561 136.850  0.00  0.00    +0.000 A 
ENDROOT
BRANCH   3  12
ATOM     12  C   UNL     1     113.290 128.193 136.508  0.00  0.00    +0.000 A 
ATOM     13  C   UNL     1     113.763 128.499 135.906  0.00  0.00    +0.000 A 
ATOM     14  C   UNL     1     113.106 128.658 137.165  0.00  0.00    +0.000 A 
ATOM     15  C   UNL     1     114.054 129.270 135.961  0.00  0.00    +0.000 A 
ATOM     16  C   UNL     1     113.396 129.428 137.220  0.00  0.00    +0.000 A 
ATOM     17  C   UNL     1     113.870 129.734 136.617  0.00  0.00    +0.000 A 
BRANCH  15  18
ATOM     18  O   UNL     1     114.527 129.575 135.359  0.00  0.00    +0.000 OA
ATOM     19  C   UNL     1     114.733 129.102 134.715  0.00  0.00    +0.000 C 
ENDBRANCH  15  18
BRANCH  17  20
ATOM     20  O   UNL     1     114.160 130.505 136.672  0.00  0.00    +0.000 OA
ATOM     21  C   UNL     1     113.936 130.986 137.304  0.00  0.00    +0.000 C 
ENDBRANCH  17  20
ENDBRANCH   3  12
BRANCH  10  22
ATOM     22  O   UNL     1     112.293 123.650 136.481  0.00  0.00    +0.000 OA
ATOM     23  C   UNL     1     112.081 123.238 137.164  0.00  0.00    +0.000 C 
ENDBRANCH  10  22
TORSDOF 4
ENDMDL
