MODEL 1
REMARK VINA RESULT:      -9.1      0.000      0.000
REMARK  Name = 44258201
REMARK  9 active torsions:
REMARK  status: ('A' for Active; 'I' for Inactive)
REMARK    1  A    between atoms: O_3  and  C_19
REMARK    2  A    between atoms: O_3  and  C_21
REMARK    3  A    between atoms: O_6  and  C_20
REMARK    4  A    between atoms: O_6  and  C_24
REMARK    5  A    between atoms: O_13  and  C_36
REMARK    6  A    between atoms: C_17  and  C_20
REMARK    7  A    between atoms: C_24  and  C_28
REMARK    8  A    between atoms: C_28  and  C_33
REMARK    9  A    between atoms: C_30  and  C_32
REMARK                            x       y       z     vdW  Elec       q    Type
REMARK                         _______ _______ _______ _____ _____    ______ ____
ROOT
ATOM      1  O   UNL     1     111.791 127.018 135.905  0.00  0.00    +0.000 OA
ATOM      2  O   UNL     1     110.003 128.885 134.614  0.00  0.00    +0.000 OA
ATOM      3  O   UNL     1     109.531 127.606 135.086  0.00  0.00    +0.000 OA
ATOM      4  C   UNL     1     112.191 129.052 135.068  0.00  0.00    +0.000 A 
ATOM      5  C   UNL     1     112.320 128.291 135.449  0.00  0.00    +0.000 A 
ATOM      6  C   UNL     1     111.406 129.255 134.784  0.00  0.00    +0.000 A 
ATOM      7  C   UNL     1     111.662 127.746 135.539  0.00  0.00    +0.000 A 
ATOM      8  C   UNL     1     110.909 127.942 135.266  0.00  0.00    +0.000 A 
ATOM      9  C   UNL     1     110.761 128.697 134.884  0.00  0.00    +0.000 A 
ATOM     10  C   UNL     1     110.285 127.410 135.359  0.00  0.00    +0.000 A 
ATOM     11  C   UNL     1     111.168 126.486 135.997  0.00  0.00    +0.000 A 
ATOM     12  C   UNL     1     110.414 126.682 135.724  0.00  0.00    +0.000 A 
ENDROOT
BRANCH  11  14
ATOM     13  O   UNL     1     111.685 123.574 137.461  0.00  0.00    +0.000 OA
ATOM     14  C   UNL     1     111.297 125.758 136.363  0.00  0.00    +0.000 A 
ATOM     15  C   UNL     1     111.227 125.690 137.183  0.00  0.00    +0.000 A 
ATOM     16  C   UNL     1     111.496 125.098 135.910  0.00  0.00    +0.000 A 
ATOM     17  C   UNL     1     111.357 124.962 137.548  0.00  0.00    +0.000 A 
ATOM     18  C   UNL     1     111.625 124.370 136.276  0.00  0.00    +0.000 A 
ATOM     19  C   UNL     1     111.556 124.302 137.095  0.00  0.00    +0.000 A 
BRANCH  17  20
ATOM     20  O   UNL     1     111.287 124.893 138.368  0.00  0.00    +0.000 OA
ATOM     21  C   UNL     1     110.927 125.495 138.803  0.00  0.00    +0.000 C 
ENDBRANCH  17  20
ENDBRANCH  11  14
BRANCH   4  22
ATOM     22  O   UNL     1     112.817 129.581 134.977  0.00  0.00    +0.000 OA
BRANCH  22  31
ATOM     23  O   UNL     1     112.621 130.344 136.170  0.00  0.00    +0.000 OA
ATOM     24  O   UNL     1     114.055 131.141 137.609  0.00  0.00    +0.000 OA
ATOM     25  O   UNL     1     115.067 130.395 136.540  0.00  0.00    +0.000 OA
ATOM     26  O   UNL     1     114.448 129.616 135.224  0.00  0.00    +0.000 OA
ATOM     27  C   UNL     1     113.745 130.751 136.950  0.00  0.00    +0.000 C 
ATOM     28  C   UNL     1     114.252 130.378 136.416  0.00  0.00    +0.000 C 
ATOM     29  C   UNL     1     112.930 130.734 136.827  0.00  0.00    +0.000 C 
ATOM     30  C   UNL     1     113.942 129.988 135.758  0.00  0.00    +0.000 C 
ATOM     31  C   UNL     1     113.126 129.971 135.635  0.00  0.00    +0.000 C 
BRANCH  29  32
ATOM     32  C   UNL     1     112.424 131.107 137.362  0.00  0.00    +0.000 C 
BRANCH  32  33
ATOM     33  O   UNL     1     111.678 131.358 137.119  0.00  0.00    +0.000 OA
BRANCH  33  35
ATOM     34  O   UNL     1     111.065 131.482 138.403  0.00  0.00    +0.000 OA
ATOM     35  C   UNL     1     111.190 131.771 137.640  0.00  0.00    +0.000 C 
BRANCH  35  36
ATOM     36  C   UNL     1     110.828 132.472 137.400  0.00  0.00    +0.000 C 
BRANCH  36  39
ATOM     37  O   UNL     1     109.404 132.464 137.516  0.00  0.00    +0.000 OA
ATOM     38  O   UNL     1     110.189 133.255 138.410  0.00  0.00    +0.000 OA
ATOM     39  C   UNL     1     110.141 132.730 137.775  0.00  0.00    +0.000 C 
ENDBRANCH  36  39
ENDBRANCH  35  36
ENDBRANCH  33  35
ENDBRANCH  32  33
ENDBRANCH  29  32
ENDBRANCH  22  31
ENDBRANCH   4  22
TORSDOF 9
ENDMDL
MODEL 2
REMARK VINA RESULT:      -9.1      1.830      3.259
REMARK  Name = 44258201
REMARK  9 active torsions:
REMARK  status: ('A' for Active; 'I' for Inactive)
REMARK    1  A    between atoms: O_3  and  C_19
REMARK    2  A    between atoms: O_3  and  C_21
REMARK    3  A    between atoms: O_6  and  C_20
REMARK    4  A    between atoms: O_6  and  C_24
REMARK    5  A    between atoms: O_13  and  C_36
REMARK    6  A    between atoms: C_17  and  C_20
REMARK    7  A    between atoms: C_24  and  C_28
REMARK    8  A    between atoms: C_28  and  C_33
REMARK    9  A    between atoms: C_30  and  C_32
REMARK                            x       y       z     vdW  Elec       q    Type
REMARK                         _______ _______ _______ _____ _____    ______ ____
ROOT
ATOM      1  O   UNL     1     112.828 127.365 136.031  0.00  0.00    +0.000 OA
ATOM      2  O   UNL     1     113.407 130.000 134.996  0.00  0.00    +0.000 OA
ATOM      3  O   UNL     1     114.427 129.215 135.649  0.00  0.00    +0.000 OA
ATOM      4  C   UNL     1     111.499 128.824 134.982  0.00  0.00    +0.000 A 
ATOM      5  C   UNL     1     111.764 128.111 135.383  0.00  0.00    +0.000 A 
ATOM      6  C   UNL     1     112.055 129.466 134.849  0.00  0.00    +0.000 A 
ATOM      7  C   UNL     1     112.580 128.051 135.646  0.00  0.00    +0.000 A 
ATOM      8  C   UNL     1     113.112 128.668 135.519  0.00  0.00    +0.000 A 
ATOM      9  C   UNL     1     112.866 129.388 135.120  0.00  0.00    +0.000 A 
ATOM     10  C   UNL     1     113.893 128.598 135.776  0.00  0.00    +0.000 A 
ATOM     11  C   UNL     1     113.609 127.295 136.288  0.00  0.00    +0.000 A 
ATOM     12  C   UNL     1     114.141 127.912 136.161  0.00  0.00    +0.000 A 
ENDROOT
BRANCH  11  14
ATOM     13  O   UNL     1     114.600 124.550 137.827  0.00  0.00    +0.000 OA
ATOM     14  C   UNL     1     113.857 126.609 136.673  0.00  0.00    +0.000 A 
ATOM     15  C   UNL     1     113.673 126.493 137.469  0.00  0.00    +0.000 A 
ATOM     16  C   UNL     1     114.288 126.038 136.262  0.00  0.00    +0.000 A 
ATOM     17  C   UNL     1     113.921 125.807 137.854  0.00  0.00    +0.000 A 
ATOM     18  C   UNL     1     114.535 125.352 136.647  0.00  0.00    +0.000 A 
ATOM     19  C   UNL     1     114.352 125.236 137.443  0.00  0.00    +0.000 A 
BRANCH  17  20
ATOM     20  O   UNL     1     113.738 125.691 138.650  0.00  0.00    +0.000 OA
ATOM     21  C   UNL     1     113.595 126.340 139.139  0.00  0.00    +0.000 C 
ENDBRANCH  17  20
ENDBRANCH  11  14
BRANCH   4  22
ATOM     22  O   UNL     1     110.718 128.891 134.726  0.00  0.00    +0.000 OA
BRANCH  22  31
ATOM     23  O   UNL     1     110.210 129.677 135.806  0.00  0.00    +0.000 OA
ATOM     24  O   UNL     1     108.323 129.559 136.895  0.00  0.00    +0.000 OA
ATOM     25  O   UNL     1     108.140 128.321 135.820  0.00  0.00    +0.000 OA
ATOM     26  O   UNL     1     109.338 127.987 134.735  0.00  0.00    +0.000 OA
ATOM     27  C   UNL     1     108.922 129.392 136.353  0.00  0.00    +0.000 C 
ATOM     28  C   UNL     1     108.830 128.773 135.815  0.00  0.00    +0.000 C 
ATOM     29  C   UNL     1     109.612 129.844 136.348  0.00  0.00    +0.000 C 
ATOM     30  C   UNL     1     109.430 128.606 135.272  0.00  0.00    +0.000 C 
ATOM     31  C   UNL     1     110.120 129.058 135.268  0.00  0.00    +0.000 C 
BRANCH  29  32
ATOM     32  C   UNL     1     109.703 130.463 136.886  0.00  0.00    +0.000 C 
BRANCH  32  33
ATOM     33  O   UNL     1     110.020 131.182 136.638  0.00  0.00    +0.000 OA
BRANCH  33  35
ATOM     34  O   UNL     1     110.783 131.582 137.779  0.00  0.00    +0.000 OA
ATOM     35  C   UNL     1     110.227 131.756 137.194  0.00  0.00    +0.000 C 
BRANCH  35  36
ATOM     36  C   UNL     1     109.879 132.503 137.166  0.00  0.00    +0.000 C 
BRANCH  36  39
ATOM     37  O   UNL     1     110.346 133.449 138.131  0.00  0.00    +0.000 OA
ATOM     38  O   UNL     1     110.743 133.566 136.763  0.00  0.00    +0.000 OA
ATOM     39  C   UNL     1     110.322 133.172 137.353  0.00  0.00    +0.000 C 
ENDBRANCH  36  39
ENDBRANCH  35  36
ENDBRANCH  33  35
ENDBRANCH  32  33
ENDBRANCH  29  32
ENDBRANCH  22  31
ENDBRANCH   4  22
TORSDOF 9
ENDMDL
MODEL 3
REMARK VINA RESULT:      -9.0      2.587      3.702
REMARK  Name = 44258201
REMARK  9 active torsions:
REMARK  status: ('A' for Active; 'I' for Inactive)
REMARK    1  A    between atoms: O_3  and  C_19
REMARK    2  A    between atoms: O_3  and  C_21
REMARK    3  A    between atoms: O_6  and  C_20
REMARK    4  A    between atoms: O_6  and  C_24
REMARK    5  A    between atoms: O_13  and  C_36
REMARK    6  A    between atoms: C_17  and  C_20
REMARK    7  A    between atoms: C_24  and  C_28
REMARK    8  A    between atoms: C_28  and  C_33
REMARK    9  A    between atoms: C_30  and  C_32
REMARK                            x       y       z     vdW  Elec       q    Type
REMARK                         _______ _______ _______ _____ _____    ______ ____
ROOT
ATOM      1  O   UNL     1     112.086 126.686 136.260  0.00  0.00    +0.000 OA
ATOM      2  O   UNL     1     109.620 125.941 134.950  0.00  0.00    +0.000 OA
ATOM      3  O   UNL     1     110.514 124.940 135.480  0.00  0.00    +0.000 OA
ATOM      4  C   UNL     1     110.499 127.965 135.341  0.00  0.00    +0.000 A 
ATOM      5  C   UNL     1     111.222 127.734 135.744  0.00  0.00    +0.000 A 
ATOM      6  C   UNL     1     109.954 127.358 135.070  0.00  0.00    +0.000 A 
ATOM      7  C   UNL     1     111.390 126.901 135.872  0.00  0.00    +0.000 A 
ATOM      8  C   UNL     1     110.866 126.320 135.612  0.00  0.00    +0.000 A 
ATOM      9  C   UNL     1     110.139 126.530 135.206  0.00  0.00    +0.000 A 
ATOM     10  C   UNL     1     111.038 125.523 135.739  0.00  0.00    +0.000 A 
ATOM     11  C   UNL     1     112.257 125.890 136.388  0.00  0.00    +0.000 A 
ATOM     12  C   UNL     1     111.734 125.308 136.127  0.00  0.00    +0.000 A 
ENDROOT
BRANCH  11  14
ATOM     13  O   UNL     1     115.040 125.030 137.940  0.00  0.00    +0.000 OA
ATOM     14  C   UNL     1     112.953 125.675 136.775  0.00  0.00    +0.000 A 
ATOM     15  C   UNL     1     113.051 125.854 137.575  0.00  0.00    +0.000 A 
ATOM     16  C   UNL     1     113.550 125.281 136.364  0.00  0.00    +0.000 A 
ATOM     17  C   UNL     1     113.747 125.639 137.963  0.00  0.00    +0.000 A 
ATOM     18  C   UNL     1     114.245 125.067 136.753  0.00  0.00    +0.000 A 
ATOM     19  C   UNL     1     114.344 125.245 137.552  0.00  0.00    +0.000 A 
BRANCH  17  20
ATOM     20  O   UNL     1     113.845 125.817 138.763  0.00  0.00    +0.000 OA
ATOM     21  C   UNL     1     113.676 126.575 139.040  0.00  0.00    +0.000 C 
ENDBRANCH  17  20
ENDBRANCH  11  14
BRANCH   4  22
ATOM     22  O   UNL     1     110.330 128.762 135.214  0.00  0.00    +0.000 OA
BRANCH  22  31
ATOM     23  O   UNL     1     109.867 129.027 136.540  0.00  0.00    +0.000 OA
ATOM     24  O   UNL     1     108.303 130.365 137.267  0.00  0.00    +0.000 OA
ATOM     25  O   UNL     1     108.214 130.635 135.642  0.00  0.00    +0.000 OA
ATOM     26  O   UNL     1     109.227 129.834 134.615  0.00  0.00    +0.000 OA
ATOM     27  C   UNL     1     108.810 129.963 136.754  0.00  0.00    +0.000 C 
ATOM     28  C   UNL     1     108.765 130.099 135.941  0.00  0.00    +0.000 C 
ATOM     29  C   UNL     1     109.361 129.428 137.053  0.00  0.00    +0.000 C 
ATOM     30  C   UNL     1     109.272 129.698 135.428  0.00  0.00    +0.000 C 
ATOM     31  C   UNL     1     109.823 129.162 135.727  0.00  0.00    +0.000 C 
BRANCH  29  32
ATOM     32  C   UNL     1     109.405 129.293 137.866  0.00  0.00    +0.000 C 
BRANCH  32  33
ATOM     33  O   UNL     1     109.395 128.522 138.158  0.00  0.00    +0.000 OA
BRANCH  33  35
ATOM     34  O   UNL     1     109.160 128.758 139.547  0.00  0.00    +0.000 OA
ATOM     35  C   UNL     1     109.581 128.377 138.948  0.00  0.00    +0.000 C 
BRANCH  35  36
ATOM     36  C   UNL     1     110.186 127.851 139.140  0.00  0.00    +0.000 C 
BRANCH  36  39
ATOM     37  O   UNL     1     109.961 126.440 139.160  0.00  0.00    +0.000 OA
ATOM     38  O   UNL     1     109.903 127.191 140.375  0.00  0.00    +0.000 OA
ATOM     39  C   UNL     1     110.017 127.161 139.558  0.00  0.00    +0.000 C 
ENDBRANCH  36  39
ENDBRANCH  35  36
ENDBRANCH  33  35
ENDBRANCH  32  33
ENDBRANCH  29  32
ENDBRANCH  22  31
ENDBRANCH   4  22
TORSDOF 9
ENDMDL
MODEL 4
REMARK VINA RESULT:      -9.0      1.582      3.559
REMARK  Name = 44258201
REMARK  9 active torsions:
REMARK  status: ('A' for Active; 'I' for Inactive)
REMARK    1  A    between atoms: O_3  and  C_19
REMARK    2  A    between atoms: O_3  and  C_21
REMARK    3  A    between atoms: O_6  and  C_20
REMARK    4  A    between atoms: O_6  and  C_24
REMARK    5  A    between atoms: O_13  and  C_36
REMARK    6  A    between atoms: C_17  and  C_20
REMARK    7  A    between atoms: C_24  and  C_28
REMARK    8  A    between atoms: C_28  and  C_33
REMARK    9  A    between atoms: C_30  and  C_32
REMARK                            x       y       z     vdW  Elec       q    Type
REMARK                         _______ _______ _______ _____ _____    ______ ____
ROOT
ATOM      1  O   UNL     1     112.795 127.646 137.001  0.00  0.00    +0.000 OA
ATOM      2  O   UNL     1     114.020 129.888 135.650  0.00  0.00    +0.000 OA
ATOM      3  O   UNL     1     114.421 128.533 135.359  0.00  0.00    +0.000 OA
ATOM      4  C   UNL     1     112.414 129.838 137.212  0.00  0.00    +0.000 A 
ATOM      5  C   UNL     1     112.354 128.989 137.333  0.00  0.00    +0.000 A 
ATOM      6  C   UNL     1     112.979 130.145 136.642  0.00  0.00    +0.000 A 
ATOM      7  C   UNL     1     112.858 128.460 136.881  0.00  0.00    +0.000 A 
ATOM      8  C   UNL     1     113.400 128.755 136.334  0.00  0.00    +0.000 A 
ATOM      9  C   UNL     1     113.475 129.601 136.200  0.00  0.00    +0.000 A 
ATOM     10  C   UNL     1     113.879 128.237 135.907  0.00  0.00    +0.000 A 
ATOM     11  C   UNL     1     113.274 127.128 136.574  0.00  0.00    +0.000 A 
ATOM     12  C   UNL     1     113.816 127.423 136.026  0.00  0.00    +0.000 A 
ENDROOT
BRANCH  11  14
ATOM     13  O   UNL     1     113.023 123.872 137.052  0.00  0.00    +0.000 OA
ATOM     14  C   UNL     1     113.212 126.314 136.693  0.00  0.00    +0.000 A 
ATOM     15  C   UNL     1     112.514 125.920 136.493  0.00  0.00    +0.000 A 
ATOM     16  C   UNL     1     113.846 125.894 137.013  0.00  0.00    +0.000 A 
ATOM     17  C   UNL     1     112.451 125.106 136.613  0.00  0.00    +0.000 A 
ATOM     18  C   UNL     1     113.782 125.080 137.132  0.00  0.00    +0.000 A 
ATOM     19  C   UNL     1     113.085 124.686 136.932  0.00  0.00    +0.000 A 
BRANCH  17  20
ATOM     20  O   UNL     1     111.754 124.713 136.414  0.00  0.00    +0.000 OA
ATOM     21  C   UNL     1     111.340 124.926 135.733  0.00  0.00    +0.000 C 
ENDBRANCH  17  20
ENDBRANCH  11  14
BRANCH   4  22
ATOM     22  O   UNL     1     111.934 130.354 137.641  0.00  0.00    +0.000 OA
BRANCH  22  31
ATOM     23  O   UNL     1     110.708 130.211 136.920  0.00  0.00    +0.000 OA
ATOM     24  O   UNL     1     109.281 131.706 136.218  0.00  0.00    +0.000 OA
ATOM     25  O   UNL     1     110.406 132.667 136.948  0.00  0.00    +0.000 OA
ATOM     26  O   UNL     1     111.732 131.991 137.660  0.00  0.00    +0.000 OA
ATOM     27  C   UNL     1     109.945 131.367 136.574  0.00  0.00    +0.000 C 
ATOM     28  C   UNL     1     110.507 131.848 136.939  0.00  0.00    +0.000 C 
ATOM     29  C   UNL     1     110.046 130.549 136.564  0.00  0.00    +0.000 C 
ATOM     30  C   UNL     1     111.170 131.510 137.295  0.00  0.00    +0.000 C 
ATOM     31  C   UNL     1     111.271 130.691 137.285  0.00  0.00    +0.000 C 
BRANCH  29  32
ATOM     32  C   UNL     1     109.483 130.068 136.199  0.00  0.00    +0.000 C 
BRANCH  32  33
ATOM     33  O   UNL     1     109.366 129.296 136.461  0.00  0.00    +0.000 OA
BRANCH  33  35
ATOM     34  O   UNL     1     108.104 129.052 135.837  0.00  0.00    +0.000 OA
ATOM     35  C   UNL     1     108.858 128.792 136.051  0.00  0.00    +0.000 C 
BRANCH  35  36
ATOM     36  C   UNL     1     109.102 128.029 135.854  0.00  0.00    +0.000 C 
BRANCH  36  39
ATOM     37  O   UNL     1     109.004 127.119 136.951  0.00  0.00    +0.000 OA
ATOM     38  O   UNL     1     108.130 126.983 135.828  0.00  0.00    +0.000 OA
ATOM     39  C   UNL     1     108.745 127.377 136.211  0.00  0.00    +0.000 C 
ENDBRANCH  36  39
ENDBRANCH  35  36
ENDBRANCH  33  35
ENDBRANCH  32  33
ENDBRANCH  29  32
ENDBRANCH  22  31
ENDBRANCH   4  22
TORSDOF 9
ENDMDL
MODEL 5
REMARK VINA RESULT:      -8.9      2.296      4.056
REMARK  Name = 44258201
REMARK  9 active torsions:
REMARK  status: ('A' for Active; 'I' for Inactive)
REMARK    1  A    between atoms: O_3  and  C_19
REMARK    2  A    between atoms: O_3  and  C_21
REMARK    3  A    between atoms: O_6  and  C_20
REMARK    4  A    between atoms: O_6  and  C_24
REMARK    5  A    between atoms: O_13  and  C_36
REMARK    6  A    between atoms: C_17  and  C_20
REMARK    7  A    between atoms: C_24  and  C_28
REMARK    8  A    between atoms: C_28  and  C_33
REMARK    9  A    between atoms: C_30  and  C_32
REMARK                            x       y       z     vdW  Elec       q    Type
REMARK                         _______ _______ _______ _____ _____    ______ ____
ROOT
ATOM      1  O   UNL     1     112.043 126.589 137.551  0.00  0.00    +0.000 OA
ATOM      2  O   UNL     1     114.565 125.842 138.747  0.00  0.00    +0.000 OA
ATOM      3  O   UNL     1     114.077 125.179 137.563  0.00  0.00    +0.000 OA
ATOM      4  C   UNL     1     113.077 127.401 139.359  0.00  0.00    +0.000 A 
ATOM      5  C   UNL     1     112.487 127.290 138.743  0.00  0.00    +0.000 A 
ATOM      6  C   UNL     1     113.782 126.911 139.362  0.00  0.00    +0.000 A 
ATOM      7  C   UNL     1     112.612 126.691 138.140  0.00  0.00    +0.000 A 
ATOM      8  C   UNL     1     113.290 126.221 138.144  0.00  0.00    +0.000 A 
ATOM      9  C   UNL     1     113.890 126.318 138.751  0.00  0.00    +0.000 A 
ATOM     10  C   UNL     1     113.399 125.649 137.559  0.00  0.00    +0.000 A 
ATOM     11  C   UNL     1     112.152 126.017 136.966  0.00  0.00    +0.000 A 
ATOM     12  C   UNL     1     112.830 125.548 136.971  0.00  0.00    +0.000 A 
ENDROOT
BRANCH  11  14
ATOM     13  O   UNL     1     109.876 125.611 134.612  0.00  0.00    +0.000 OA
ATOM     14  C   UNL     1     111.583 125.916 136.378  0.00  0.00    +0.000 A 
ATOM     15  C   UNL     1     111.487 126.490 135.793  0.00  0.00    +0.000 A 
ATOM     16  C   UNL     1     111.109 125.240 136.374  0.00  0.00    +0.000 A 
ATOM     17  C   UNL     1     110.918 126.388 135.204  0.00  0.00    +0.000 A 
ATOM     18  C   UNL     1     110.541 125.139 135.786  0.00  0.00    +0.000 A 
ATOM     19  C   UNL     1     110.445 125.712 135.201  0.00  0.00    +0.000 A 
BRANCH  17  20
ATOM     20  O   UNL     1     110.823 126.962 134.619  0.00  0.00    +0.000 OA
ATOM     21  C   UNL     1     110.828 127.762 134.821  0.00  0.00    +0.000 C 
ENDBRANCH  17  20
ENDBRANCH  11  14
BRANCH   4  22
ATOM     22  O   UNL     1     112.965 127.974 139.942  0.00  0.00    +0.000 OA
BRANCH  22  31
ATOM     23  O   UNL     1     113.340 129.082 139.122  0.00  0.00    +0.000 OA
ATOM     24  O   UNL     1     114.354 130.950 139.620  0.00  0.00    +0.000 OA
ATOM     25  O   UNL     1     114.299 130.221 141.099  0.00  0.00    +0.000 OA
ATOM     26  O   UNL     1     113.604 128.733 141.260  0.00  0.00    +0.000 OA
ATOM     27  C   UNL     1     114.007 130.205 139.700  0.00  0.00    +0.000 C 
ATOM     28  C   UNL     1     113.979 129.842 140.440  0.00  0.00    +0.000 C 
ATOM     29  C   UNL     1     113.687 129.826 139.041  0.00  0.00    +0.000 C 
ATOM     30  C   UNL     1     113.632 129.097 140.521  0.00  0.00    +0.000 C 
ATOM     31  C   UNL     1     113.312 128.717 139.861  0.00  0.00    +0.000 C 
BRANCH  29  32
ATOM     32  C   UNL     1     113.715 130.191 138.302  0.00  0.00    +0.000 C 
BRANCH  32  33
ATOM     33  O   UNL     1     113.821 129.737 137.621  0.00  0.00    +0.000 OA
BRANCH  33  35
ATOM     34  O   UNL     1     113.149 130.620 136.721  0.00  0.00    +0.000 OA
ATOM     35  C   UNL     1     113.760 130.089 136.877  0.00  0.00    +0.000 C 
BRANCH  35  36
ATOM     36  C   UNL     1     114.310 129.909 136.289  0.00  0.00    +0.000 C 
BRANCH  36  39
ATOM     37  O   UNL     1     114.254 128.609 135.698  0.00  0.00    +0.000 OA
ATOM     38  O   UNL     1     113.728 129.737 134.996  0.00  0.00    +0.000 OA
ATOM     39  C   UNL     1     114.097 129.419 135.662  0.00  0.00    +0.000 C 
ENDBRANCH  36  39
ENDBRANCH  35  36
ENDBRANCH  33  35
ENDBRANCH  32  33
ENDBRANCH  29  32
ENDBRANCH  22  31
ENDBRANCH   4  22
TORSDOF 9
ENDMDL
MODEL 6
REMARK VINA RESULT:      -8.9      1.429      2.966
REMARK  Name = 44258201
REMARK  9 active torsions:
REMARK  status: ('A' for Active; 'I' for Inactive)
REMARK    1  A    between atoms: O_3  and  C_19
REMARK    2  A    between atoms: O_3  and  C_21
REMARK    3  A    between atoms: O_6  and  C_20
REMARK    4  A    between atoms: O_6  and  C_24
REMARK    5  A    between atoms: O_13  and  C_36
REMARK    6  A    between atoms: C_17  and  C_20
REMARK    7  A    between atoms: C_24  and  C_28
REMARK    8  A    between atoms: C_28  and  C_33
REMARK    9  A    between atoms: C_30  and  C_32
REMARK                            x       y       z     vdW  Elec       q    Type
REMARK                         _______ _______ _______ _____ _____    ______ ____
ROOT
ATOM      1  O   UNL     1     111.564 127.124 136.097  0.00  0.00    +0.000 OA
ATOM      2  O   UNL     1     113.429 129.272 135.587  0.00  0.00    +0.000 OA
ATOM      3  O   UNL     1     113.878 128.005 136.111  0.00  0.00    +0.000 OA
ATOM      4  C   UNL     1     111.209 129.182 135.300  0.00  0.00    +0.000 A 
ATOM      5  C   UNL     1     111.059 128.379 135.569  0.00  0.00    +0.000 A 
ATOM      6  C   UNL     1     112.012 129.487 135.305  0.00  0.00    +0.000 A 
ATOM      7  C   UNL     1     111.714 127.894 135.840  0.00  0.00    +0.000 A 
ATOM      8  C   UNL     1     112.485 128.187 135.844  0.00  0.00    +0.000 A 
ATOM      9  C   UNL     1     112.654 128.986 135.579  0.00  0.00    +0.000 A 
ATOM     10  C   UNL     1     113.106 127.712 136.106  0.00  0.00    +0.000 A 
ATOM     11  C   UNL     1     112.185 126.649 136.359  0.00  0.00    +0.000 A 
ATOM     12  C   UNL     1     112.956 126.942 136.364  0.00  0.00    +0.000 A 
ENDROOT
BRANCH  11  14
ATOM     13  O   UNL     1     111.585 123.572 137.390  0.00  0.00    +0.000 OA
ATOM     14  C   UNL     1     112.035 125.879 136.617  0.00  0.00    +0.000 A 
ATOM     15  C   UNL     1     111.700 125.752 137.360  0.00  0.00    +0.000 A 
ATOM     16  C   UNL     1     112.220 125.238 136.132  0.00  0.00    +0.000 A 
ATOM     17  C   UNL     1     111.550 124.982 137.618  0.00  0.00    +0.000 A 
ATOM     18  C   UNL     1     112.070 124.470 136.390  0.00  0.00    +0.000 A 
ATOM     19  C   UNL     1     111.735 124.341 137.133  0.00  0.00    +0.000 A 
BRANCH  17  20
ATOM     20  O   UNL     1     111.215 124.854 138.361  0.00  0.00    +0.000 OA
ATOM     21  C   UNL     1     110.800 125.460 138.736  0.00  0.00    +0.000 C 
ENDBRANCH  17  20
ENDBRANCH  11  14
BRANCH   4  22
ATOM     22  O   UNL     1     110.586 129.655 135.038  0.00  0.00    +0.000 OA
BRANCH  22  31
ATOM     23  O   UNL     1     110.301 130.236 136.312  0.00  0.00    +0.000 OA
ATOM     24  O   UNL     1     108.411 130.865 137.205  0.00  0.00    +0.000 OA
ATOM     25  O   UNL     1     107.894 130.309 135.740  0.00  0.00    +0.000 OA
ATOM     26  O   UNL     1     108.981 129.704 134.656  0.00  0.00    +0.000 OA
ATOM     27  C   UNL     1     108.955 130.562 136.663  0.00  0.00    +0.000 C 
ATOM     28  C   UNL     1     108.696 130.285 135.931  0.00  0.00    +0.000 C 
ATOM     29  C   UNL     1     109.757 130.538 136.854  0.00  0.00    +0.000 C 
ATOM     30  C   UNL     1     109.240 129.982 135.389  0.00  0.00    +0.000 C 
ATOM     31  C   UNL     1     110.043 129.958 135.579  0.00  0.00    +0.000 C 
BRANCH  29  32
ATOM     32  C   UNL     1     110.015 130.816 137.587  0.00  0.00    +0.000 C 
BRANCH  32  33
ATOM     33  O   UNL     1     110.810 130.755 137.795  0.00  0.00    +0.000 OA
BRANCH  33  35
ATOM     34  O   UNL     1     110.867 131.625 138.927  0.00  0.00    +0.000 OA
ATOM     35  C   UNL     1     111.047 130.902 138.572  0.00  0.00    +0.000 C 
BRANCH  35  36
ATOM     36  C   UNL     1     111.462 130.328 138.993  0.00  0.00    +0.000 C 
BRANCH  36  39
ATOM     37  O   UNL     1     112.858 130.530 138.759  0.00  0.00    +0.000 OA
ATOM     38  O   UNL     1     112.335 130.620 140.085  0.00  0.00    +0.000 OA
ATOM     39  C   UNL     1     112.218 130.493 139.279  0.00  0.00    +0.000 C 
ENDBRANCH  36  39
ENDBRANCH  35  36
ENDBRANCH  33  35
ENDBRANCH  32  33
ENDBRANCH  29  32
ENDBRANCH  22  31
ENDBRANCH   4  22
TORSDOF 9
ENDMDL
MODEL 7
REMARK VINA RESULT:      -8.8      1.868      2.947
REMARK  Name = 44258201
REMARK  9 active torsions:
REMARK  status: ('A' for Active; 'I' for Inactive)
REMARK    1  A    between atoms: O_3  and  C_19
REMARK    2  A    between atoms: O_3  and  C_21
REMARK    3  A    between atoms: O_6  and  C_20
REMARK    4  A    between atoms: O_6  and  C_24
REMARK    5  A    between atoms: O_13  and  C_36
REMARK    6  A    between atoms: C_17  and  C_20
REMARK    7  A    between atoms: C_24  and  C_28
REMARK    8  A    between atoms: C_28  and  C_33
REMARK    9  A    between atoms: C_30  and  C_32
REMARK                            x       y       z     vdW  Elec       q    Type
REMARK                         _______ _______ _______ _____ _____    ______ ____
ROOT
ATOM      1  O   UNL     1     110.348 127.819 135.904  0.00  0.00    +0.000 OA
ATOM      2  O   UNL     1     107.835 129.238 135.762  0.00  0.00    +0.000 OA
ATOM      3  O   UNL     1     107.873 127.798 135.844  0.00  0.00    +0.000 OA
ATOM      4  C   UNL     1     109.938 130.012 135.770  0.00  0.00    +0.000 A 
ATOM      5  C   UNL     1     110.367 129.268 135.823  0.00  0.00    +0.000 A 
ATOM      6  C   UNL     1     109.079 130.004 135.749  0.00  0.00    +0.000 A 
ATOM      7  C   UNL     1     109.931 128.529 135.854  0.00  0.00    +0.000 A 
ATOM      8  C   UNL     1     109.106 128.522 135.834  0.00  0.00    +0.000 A 
ATOM      9  C   UNL     1     108.660 129.254 135.781  0.00  0.00    +0.000 A 
ATOM     10  C   UNL     1     108.699 127.805 135.864  0.00  0.00    +0.000 A 
ATOM     11  C   UNL     1     109.940 127.102 135.934  0.00  0.00    +0.000 A 
ATOM     12  C   UNL     1     109.116 127.095 135.914  0.00  0.00    +0.000 A 
ENDROOT
BRANCH  11  14
ATOM     13  O   UNL     1     111.609 124.262 136.137  0.00  0.00    +0.000 OA
ATOM     14  C   UNL     1     110.358 126.392 135.985  0.00  0.00    +0.000 A 
ATOM     15  C   UNL     1     110.681 126.154 136.706  0.00  0.00    +0.000 A 
ATOM     16  C   UNL     1     110.451 125.920 135.315  0.00  0.00    +0.000 A 
ATOM     17  C   UNL     1     111.098 125.444 136.756  0.00  0.00    +0.000 A 
ATOM     18  C   UNL     1     110.868 125.210 135.366  0.00  0.00    +0.000 A 
ATOM     19  C   UNL     1     111.192 124.972 136.086  0.00  0.00    +0.000 A 
BRANCH  17  20
ATOM     20  O   UNL     1     111.422 125.206 137.477  0.00  0.00    +0.000 OA
ATOM     21  C   UNL     1     111.017 125.354 138.180  0.00  0.00    +0.000 C 
ENDBRANCH  17  20
ENDBRANCH  11  14
BRANCH   4  22
ATOM     22  O   UNL     1     110.348 130.727 135.740  0.00  0.00    +0.000 OA
BRANCH  22  31
ATOM     23  O   UNL     1     110.769 130.857 137.100  0.00  0.00    +0.000 OA
ATOM     24  O   UNL     1     110.678 132.555 138.468  0.00  0.00    +0.000 OA
ATOM     25  O   UNL     1     110.001 133.210 137.113  0.00  0.00    +0.000 OA
ATOM     26  O   UNL     1     109.836 132.295 135.749  0.00  0.00    +0.000 OA
ATOM     27  C   UNL     1     110.596 132.098 137.785  0.00  0.00    +0.000 C 
ATOM     28  C   UNL     1     110.257 132.425 137.108  0.00  0.00    +0.000 C 
ATOM     29  C   UNL     1     110.852 131.313 137.781  0.00  0.00    +0.000 C 
ATOM     30  C   UNL     1     110.174 131.968 136.426  0.00  0.00    +0.000 C 
ATOM     31  C   UNL     1     110.430 131.183 136.422  0.00  0.00    +0.000 C 
BRANCH  29  32
ATOM     32  C   UNL     1     111.190 130.987 138.459  0.00  0.00    +0.000 C 
BRANCH  32  33
ATOM     33  O   UNL     1     111.725 130.362 138.394  0.00  0.00    +0.000 OA
BRANCH  33  35
ATOM     34  O   UNL     1     112.435 130.425 139.632  0.00  0.00    +0.000 OA
ATOM     35  C   UNL     1     112.011 129.991 139.073  0.00  0.00    +0.000 C 
BRANCH  35  36
ATOM     36  C   UNL     1     111.874 129.187 139.193  0.00  0.00    +0.000 C 
BRANCH  36  39
ATOM     37  O   UNL     1     112.815 128.448 139.975  0.00  0.00    +0.000 OA
ATOM     38  O   UNL     1     112.839 128.353 138.549  0.00  0.00    +0.000 OA
ATOM     39  C   UNL     1     112.509 128.663 139.239  0.00  0.00    +0.000 C 
ENDBRANCH  36  39
ENDBRANCH  35  36
ENDBRANCH  33  35
ENDBRANCH  32  33
ENDBRANCH  29  32
ENDBRANCH  22  31
ENDBRANCH   4  22
TORSDOF 9
ENDMDL
MODEL 8
REMARK VINA RESULT:      -8.8      1.646      4.835
REMARK  Name = 44258201
REMARK  9 active torsions:
REMARK  status: ('A' for Active; 'I' for Inactive)
REMARK    1  A    between atoms: O_3  and  C_19
REMARK    2  A    between atoms: O_3  and  C_21
REMARK    3  A    between atoms: O_6  and  C_20
REMARK    4  A    between atoms: O_6  and  C_24
REMARK    5  A    between atoms: O_13  and  C_36
REMARK    6  A    between atoms: C_17  and  C_20
REMARK    7  A    between atoms: C_24  and  C_28
REMARK    8  A    between atoms: C_28  and  C_33
REMARK    9  A    between atoms: C_30  and  C_32
REMARK                            x       y       z     vdW  Elec       q    Type
REMARK                         _______ _______ _______ _____ _____    ______ ____
ROOT
ATOM      1  O   UNL     1     112.678 128.251 135.444  0.00  0.00    +0.000 OA
ATOM      2  O   UNL     1     109.905 128.342 134.637  0.00  0.00    +0.000 OA
ATOM      3  O   UNL     1     110.727 129.527 134.612  0.00  0.00    +0.000 OA
ATOM      4  C   UNL     1     111.147 126.625 135.364  0.00  0.00    +0.000 A 
ATOM      5  C   UNL     1     111.896 127.028 135.488  0.00  0.00    +0.000 A 
ATOM      6  C   UNL     1     110.470 127.068 135.075  0.00  0.00    +0.000 A 
ATOM      7  C   UNL     1     111.957 127.869 135.322  0.00  0.00    +0.000 A 
ATOM      8  C   UNL     1     111.307 128.294 135.045  0.00  0.00    +0.000 A 
ATOM      9  C   UNL     1     110.551 127.908 134.915  0.00  0.00    +0.000 A 
ATOM     10  C   UNL     1     111.377 129.101 134.889  0.00  0.00    +0.000 A 
ATOM     11  C   UNL     1     112.749 129.058 135.288  0.00  0.00    +0.000 A 
ATOM     12  C   UNL     1     112.099 129.483 135.011  0.00  0.00    +0.000 A 
ENDROOT
BRANCH  11  14
ATOM     13  O   UNL     1     115.633 130.586 135.773  0.00  0.00    +0.000 OA
ATOM     14  C   UNL     1     113.470 129.440 135.409  0.00  0.00    +0.000 A 
ATOM     15  C   UNL     1     113.637 129.784 136.141  0.00  0.00    +0.000 A 
ATOM     16  C   UNL     1     114.024 129.479 134.799  0.00  0.00    +0.000 A 
ATOM     17  C   UNL     1     114.358 130.166 136.262  0.00  0.00    +0.000 A 
ATOM     18  C   UNL     1     114.745 129.861 134.921  0.00  0.00    +0.000 A 
ATOM     19  C   UNL     1     114.912 130.204 135.652  0.00  0.00    +0.000 A 
BRANCH  17  20
ATOM     20  O   UNL     1     114.525 130.510 136.993  0.00  0.00    +0.000 OA
ATOM     21  C   UNL     1     113.928 130.591 137.557  0.00  0.00    +0.000 C 
ENDBRANCH  17  20
ENDBRANCH  11  14
BRANCH   4  22
ATOM     22  O   UNL     1     111.079 125.818 135.521  0.00  0.00    +0.000 OA
BRANCH  22  31
ATOM     23  O   UNL     1     110.695 125.975 136.888  0.00  0.00    +0.000 OA
ATOM     24  O   UNL     1     111.101 124.735 138.638  0.00  0.00    +0.000 OA
ATOM     25  O   UNL     1     111.880 123.879 137.462  0.00  0.00    +0.000 OA
ATOM     26  O   UNL     1     111.870 124.421 135.903  0.00  0.00    +0.000 OA
ATOM     27  C   UNL     1     111.095 125.006 137.858  0.00  0.00    +0.000 C 
ATOM     28  C   UNL     1     111.485 124.578 137.271  0.00  0.00    +0.000 C 
ATOM     29  C   UNL     1     110.700 125.704 137.667  0.00  0.00    +0.000 C 
ATOM     30  C   UNL     1     111.480 124.849 136.491  0.00  0.00    +0.000 C 
ATOM     31  C   UNL     1     111.085 125.547 136.300  0.00  0.00    +0.000 C 
BRANCH  29  32
ATOM     32  C   UNL     1     110.311 126.132 138.255  0.00  0.00    +0.000 C 
BRANCH  32  33
ATOM     33  O   UNL     1     110.401 126.950 138.300  0.00  0.00    +0.000 OA
BRANCH  33  35
ATOM     34  O   UNL     1     109.125 127.125 138.920  0.00  0.00    +0.000 OA
ATOM     35  C   UNL     1     109.889 127.397 138.768  0.00  0.00    +0.000 C 
BRANCH  35  36
ATOM     36  C   UNL     1     110.141 128.116 139.084  0.00  0.00    +0.000 C 
BRANCH  36  39
ATOM     37  O   UNL     1     109.145 129.124 139.268  0.00  0.00    +0.000 OA
ATOM     38  O   UNL     1     110.066 129.219 138.180  0.00  0.00    +0.000 OA
ATOM     39  C   UNL     1     109.784 128.819 138.845  0.00  0.00    +0.000 C 
ENDBRANCH  36  39
ENDBRANCH  35  36
ENDBRANCH  33  35
ENDBRANCH  32  33
ENDBRANCH  29  32
ENDBRANCH  22  31
ENDBRANCH   4  22
TORSDOF 9
ENDMDL
MODEL 9
REMARK VINA RESULT:      -8.8      3.019      4.333
REMARK  Name = 44258201
REMARK  9 active torsions:
REMARK  status: ('A' for Active; 'I' for Inactive)
REMARK    1  A    between atoms: O_3  and  C_19
REMARK    2  A    between atoms: O_3  and  C_21
REMARK    3  A    between atoms: O_6  and  C_20
REMARK    4  A    between atoms: O_6  and  C_24
REMARK    5  A    between atoms: O_13  and  C_36
REMARK    6  A    between atoms: C_17  and  C_20
REMARK    7  A    between atoms: C_24  and  C_28
REMARK    8  A    between atoms: C_28  and  C_33
REMARK    9  A    between atoms: C_30  and  C_32
REMARK                            x       y       z     vdW  Elec       q    Type
REMARK                         _______ _______ _______ _____ _____    ______ ____
ROOT
ATOM      1  O   UNL     1     112.727 127.120 138.164  0.00  0.00    +0.000 OA
ATOM      2  O   UNL     1     111.957 129.820 137.480  0.00  0.00    +0.000 OA
ATOM      3  O   UNL     1     111.418 128.688 136.765  0.00  0.00    +0.000 OA
ATOM      4  C   UNL     1     113.363 129.069 139.055  0.00  0.00    +0.000 A 
ATOM      5  C   UNL     1     113.299 128.222 138.915  0.00  0.00    +0.000 A 
ATOM      6  C   UNL     1     112.908 129.612 138.569  0.00  0.00    +0.000 A 
ATOM      7  C   UNL     1     112.783 127.933 138.293  0.00  0.00    +0.000 A 
ATOM      8  C   UNL     1     112.347 128.455 137.827  0.00  0.00    +0.000 A 
ATOM      9  C   UNL     1     112.397 129.304 137.951  0.00  0.00    +0.000 A 
ATOM     10  C   UNL     1     111.855 128.165 137.232  0.00  0.00    +0.000 A 
ATOM     11  C   UNL     1     112.234 126.830 137.569  0.00  0.00    +0.000 A 
ATOM     12  C   UNL     1     111.798 127.352 137.103  0.00  0.00    +0.000 A 
ENDROOT
BRANCH  11  14
ATOM     13  O   UNL     1     112.009 123.578 137.053  0.00  0.00    +0.000 OA
ATOM     14  C   UNL     1     112.178 126.017 137.440  0.00  0.00    +0.000 A 
ATOM     15  C   UNL     1     112.752 125.630 136.990  0.00  0.00    +0.000 A 
ATOM     16  C   UNL     1     111.548 125.591 137.761  0.00  0.00    +0.000 A 
ATOM     17  C   UNL     1     112.695 124.817 136.861  0.00  0.00    +0.000 A 
ATOM     18  C   UNL     1     111.492 124.778 137.631  0.00  0.00    +0.000 A 
ATOM     19  C   UNL     1     112.065 124.391 137.182  0.00  0.00    +0.000 A 
BRANCH  17  20
ATOM     20  O   UNL     1     113.268 124.430 136.412  0.00  0.00    +0.000 OA
ATOM     21  C   UNL     1     114.050 124.695 136.422  0.00  0.00    +0.000 C 
ENDBRANCH  17  20
ENDBRANCH  11  14
BRANCH   4  22
ATOM     22  O   UNL     1     113.856 129.356 139.650  0.00  0.00    +0.000 OA
BRANCH  22  31
ATOM     23  O   UNL     1     112.933 129.193 140.729  0.00  0.00    +0.000 OA
ATOM     24  O   UNL     1     112.561 130.429 142.490  0.00  0.00    +0.000 OA
ATOM     25  O   UNL     1     113.759 131.291 141.752  0.00  0.00    +0.000 OA
ATOM     26  O   UNL     1     114.406 130.754 140.332  0.00  0.00    +0.000 OA
ATOM     27  C   UNL     1     112.885 130.160 141.779  0.00  0.00    +0.000 C 
ATOM     28  C   UNL     1     113.484 130.592 141.411  0.00  0.00    +0.000 C 
ATOM     29  C   UNL     1     112.610 129.461 141.439  0.00  0.00    +0.000 C 
ATOM     30  C   UNL     1     113.808 130.323 140.700  0.00  0.00    +0.000 C 
ATOM     31  C   UNL     1     113.532 129.624 140.360  0.00  0.00    +0.000 C 
BRANCH  29  32
ATOM     32  C   UNL     1     112.011 129.031 141.809  0.00  0.00    +0.000 C 
BRANCH  32  33
ATOM     33  O   UNL     1     111.915 128.229 141.642  0.00  0.00    +0.000 OA
BRANCH  33  35
ATOM     34  O   UNL     1     111.017 127.853 142.688  0.00  0.00    +0.000 OA
ATOM     35  C   UNL     1     111.236 127.833 141.893  0.00  0.00    +0.000 C 
BRANCH  35  36
ATOM     36  C   UNL     1     110.777 127.417 141.350  0.00  0.00    +0.000 C 
BRANCH  36  39
ATOM     37  O   UNL     1     110.056 126.249 141.748  0.00  0.00    +0.000 OA
ATOM     38  O   UNL     1     111.325 126.121 141.104  0.00  0.00    +0.000 OA
ATOM     39  C   UNL     1     110.719 126.596 141.401  0.00  0.00    +0.000 C 
ENDBRANCH  36  39
ENDBRANCH  35  36
ENDBRANCH  33  35
ENDBRANCH  32  33
ENDBRANCH  29  32
ENDBRANCH  22  31
ENDBRANCH   4  22
TORSDOF 9
ENDMDL
MODEL 10
REMARK VINA RESULT:      -8.7      1.472      5.486
REMARK  Name = 44258201
REMARK  9 active torsions:
REMARK  status: ('A' for Active; 'I' for Inactive)
REMARK    1  A    between atoms: O_3  and  C_19
REMARK    2  A    between atoms: O_3  and  C_21
REMARK    3  A    between atoms: O_6  and  C_20
REMARK    4  A    between atoms: O_6  and  C_24
REMARK    5  A    between atoms: O_13  and  C_36
REMARK    6  A    between atoms: C_17  and  C_20
REMARK    7  A    between atoms: C_24  and  C_28
REMARK    8  A    between atoms: C_28  and  C_33
REMARK    9  A    between atoms: C_30  and  C_32
REMARK                            x       y       z     vdW  Elec       q    Type
REMARK                         _______ _______ _______ _____ _____    ______ ____
ROOT
ATOM      1  O   UNL     1     112.251 129.173 136.930  0.00  0.00    +0.000 OA
ATOM      2  O   UNL     1     114.502 128.107 135.465  0.00  0.00    +0.000 OA
ATOM      3  O   UNL     1     114.034 129.452 135.235  0.00  0.00    +0.000 OA
ATOM      4  C   UNL     1     113.219 127.161 137.039  0.00  0.00    +0.000 A 
ATOM      5  C   UNL     1     112.681 127.813 137.200  0.00  0.00    +0.000 A 
ATOM      6  C   UNL     1     113.837 127.258 136.451  0.00  0.00    +0.000 A 
ATOM      7  C   UNL     1     112.770 128.551 136.771  0.00  0.00    +0.000 A 
ATOM      8  C   UNL     1     113.364 128.644 136.206  0.00  0.00    +0.000 A 
ATOM      9  C   UNL     1     113.910 128.005 136.032  0.00  0.00    +0.000 A 
ATOM     10  C   UNL     1     113.440 129.358 135.800  0.00  0.00    +0.000 A 
ATOM     11  C   UNL     1     112.327 129.887 136.524  0.00  0.00    +0.000 A 
ATOM     12  C   UNL     1     112.921 129.980 135.959  0.00  0.00    +0.000 A 
ENDROOT
BRANCH  11  14
ATOM     13  O   UNL     1     110.251 132.373 137.159  0.00  0.00    +0.000 OA
ATOM     14  C   UNL     1     111.808 130.509 136.683  0.00  0.00    +0.000 A 
ATOM     15  C   UNL     1     111.046 130.501 136.365  0.00  0.00    +0.000 A 
ATOM     16  C   UNL     1     112.051 131.138 137.158  0.00  0.00    +0.000 A 
ATOM     17  C   UNL     1     110.527 131.122 136.524  0.00  0.00    +0.000 A 
ATOM     18  C   UNL     1     111.532 131.759 137.316  0.00  0.00    +0.000 A 
ATOM     19  C   UNL     1     110.770 131.751 137.000  0.00  0.00    +0.000 A 
BRANCH  17  20
ATOM     20  O   UNL     1     109.765 131.115 136.208  0.00  0.00    +0.000 OA
ATOM     21  C   UNL     1     109.643 130.858 135.433  0.00  0.00    +0.000 C 
ENDBRANCH  17  20
ENDBRANCH  11  14
BRANCH   4  22
ATOM     22  O   UNL     1     113.141 126.448 137.446  0.00  0.00    +0.000 OA
BRANCH  22  31
ATOM     23  O   UNL     1     112.063 125.933 136.662  0.00  0.00    +0.000 OA
ATOM     24  O   UNL     1     111.604 123.896 136.026  0.00  0.00    +0.000 OA
ATOM     25  O   UNL     1     112.991 123.650 136.885  0.00  0.00    +0.000 OA
ATOM     26  O   UNL     1     113.759 124.925 137.595  0.00  0.00    +0.000 OA
ATOM     27  C   UNL     1     111.988 124.535 136.382  0.00  0.00    +0.000 C 
ATOM     28  C   UNL     1     112.681 124.411 136.811  0.00  0.00    +0.000 C 
ATOM     29  C   UNL     1     111.679 125.296 136.307  0.00  0.00    +0.000 C 
ATOM     30  C   UNL     1     113.066 125.049 137.166  0.00  0.00    +0.000 C 
ATOM     31  C   UNL     1     112.757 125.810 137.092  0.00  0.00    +0.000 C 
BRANCH  29  32
ATOM     32  C   UNL     1     110.985 125.418 135.878  0.00  0.00    +0.000 C 
BRANCH  32  33
ATOM     33  O   UNL     1     110.427 125.965 136.142  0.00  0.00    +0.000 OA
BRANCH  33  35
ATOM     34  O   UNL     1     109.467 125.686 135.120  0.00  0.00    +0.000 OA
ATOM     35  C   UNL     1     109.827 126.220 135.636  0.00  0.00    +0.000 C 
BRANCH  35  36
ATOM     36  C   UNL     1     109.587 127.009 135.645  0.00  0.00    +0.000 C 
BRANCH  36  39
ATOM     37  O   UNL     1     109.040 127.605 136.823  0.00  0.00    +0.000 OA
ATOM     38  O   UNL     1     108.171 127.094 135.810  0.00  0.00    +0.000 OA
ATOM     39  C   UNL     1     108.933 127.236 136.093  0.00  0.00    +0.000 C 
ENDBRANCH  36  39
ENDBRANCH  35  36
ENDBRANCH  33  35
ENDBRANCH  32  33
ENDBRANCH  29  32
ENDBRANCH  22  31
ENDBRANCH   4  22
TORSDOF 9
ENDMDL
