MODEL 1
REMARK VINA RESULT:      -8.5      0.000      0.000
REMARK  Name = 15715157
REMARK  3 active torsions:
REMARK  status: ('A' for Active; 'I' for Inactive)
REMARK    1  A    between atoms: O_2  and  C_11
REMARK    2  A    between atoms: O_5  and  C_21
REMARK    3  A    between atoms: C_10  and  C_15
REMARK                            x       y       z     vdW  Elec       q    Type
REMARK                         _______ _______ _______ _____ _____    ______ ____
ROOT
ATOM      1  O   UNL     1     104.988 124.328 147.466  0.00  0.00    +0.000 OA
ATOM      2  O   UNL     1     107.352 125.517 146.297  0.00  0.00    +0.000 OA
ATOM      3  O   UNL     1     106.174 125.356 145.480  0.00  0.00    +0.000 OA
ATOM      4  C   UNL     1     106.186 124.930 146.877  0.00  0.00    +0.000 A 
ATOM      5  C   UNL     1     105.803 124.595 147.526  0.00  0.00    +0.000 A 
ATOM      6  C   UNL     1     107.367 125.102 147.664  0.00  0.00    +0.000 A 
ATOM      7  C   UNL     1     106.968 125.183 146.946  0.00  0.00    +0.000 A 
ATOM      8  C   UNL     1     104.568 124.410 146.722  0.00  0.00    +0.000 A 
ATOM      9  C   UNL     1     106.983 124.767 148.313  0.00  0.00    +0.000 A 
ATOM     10  C   UNL     1     106.200 124.514 148.244  0.00  0.00    +0.000 A 
ATOM     11  C   UNL     1     105.782 125.020 146.124  0.00  0.00    +0.000 A 
ATOM     12  C   UNL     1     104.968 124.758 146.046  0.00  0.00    +0.000 A 
ATOM     13  C   UNL     1     108.148 125.355 147.733  0.00  0.00    +0.000 C 
ENDROOT
BRANCH   8  14
ATOM     14  C   UNL     1     103.786 124.156 146.655  0.00  0.00    +0.000 A 
ATOM     15  C   UNL     1     103.615 123.431 146.302  0.00  0.00    +0.000 A 
ATOM     16  C   UNL     1     103.173 124.628 146.943  0.00  0.00    +0.000 A 
ATOM     17  C   UNL     1     102.833 123.177 146.236  0.00  0.00    +0.000 A 
ATOM     18  C   UNL     1     102.390 124.375 146.877  0.00  0.00    +0.000 A 
ATOM     19  C   UNL     1     102.221 123.649 146.524  0.00  0.00    +0.000 A 
BRANCH  19  20
ATOM     20  O   UNL     1     101.439 123.395 146.458  0.00  0.00    +0.000 OA
ATOM     21  C   UNL     1     100.990 123.608 145.799  0.00  0.00    +0.000 C 
ENDBRANCH  19  20
ENDBRANCH   8  14
BRANCH   9  22
ATOM     22  O   UNL     1     107.381 124.685 149.031  0.00  0.00    +0.000 OA
ATOM     23  C   UNL     1     107.085 124.179 149.611  0.00  0.00    +0.000 C 
ENDBRANCH   9  22
TORSDOF 3
ENDMDL
MODEL 2
REMARK VINA RESULT:      -8.3      8.091      9.902
REMARK  Name = 15715157
REMARK  3 active torsions:
REMARK  status: ('A' for Active; 'I' for Inactive)
REMARK    1  A    between atoms: O_2  and  C_11
REMARK    2  A    between atoms: O_5  and  C_21
REMARK    3  A    between atoms: C_10  and  C_15
REMARK                            x       y       z     vdW  Elec       q    Type
REMARK                         _______ _______ _______ _____ _____    ______ ____
ROOT
ATOM      1  O   UNL     1     104.490 123.665 138.057  0.00  0.00    +0.000 OA
ATOM      2  O   UNL     1     101.859 123.086 137.001  0.00  0.00    +0.000 OA
ATOM      3  O   UNL     1     101.989 123.450 138.390  0.00  0.00    +0.000 OA
ATOM      4  C   UNL     1     103.159 123.371 137.520  0.00  0.00    +0.000 A 
ATOM      5  C   UNL     1     103.973 123.441 137.408  0.00  0.00    +0.000 A 
ATOM      6  C   UNL     1     103.001 123.009 136.146  0.00  0.00    +0.000 A 
ATOM      7  C   UNL     1     102.673 123.155 136.889  0.00  0.00    +0.000 A 
ATOM      8  C   UNL     1     104.154 123.819 138.833  0.00  0.00    +0.000 A 
ATOM      9  C   UNL     1     103.816 123.078 136.035  0.00  0.00    +0.000 A 
ATOM     10  C   UNL     1     104.302 123.294 136.666  0.00  0.00    +0.000 A 
ATOM     11  C   UNL     1     102.805 123.522 138.288  0.00  0.00    +0.000 A 
ATOM     12  C   UNL     1     103.306 123.747 138.949  0.00  0.00    +0.000 A 
ATOM     13  C   UNL     1     102.516 122.793 135.516  0.00  0.00    +0.000 C 
ENDROOT
BRANCH   8  14
ATOM     14  C   UNL     1     104.642 124.035 139.462  0.00  0.00    +0.000 A 
ATOM     15  C   UNL     1     104.827 124.828 139.587  0.00  0.00    +0.000 A 
ATOM     16  C   UNL     1     104.945 123.456 139.966  0.00  0.00    +0.000 A 
ATOM     17  C   UNL     1     105.316 125.044 140.216  0.00  0.00    +0.000 A 
ATOM     18  C   UNL     1     105.433 123.671 140.595  0.00  0.00    +0.000 A 
ATOM     19  C   UNL     1     105.619 124.466 140.720  0.00  0.00    +0.000 A 
BRANCH  19  20
ATOM     20  O   UNL     1     106.107 124.682 141.349  0.00  0.00    +0.000 OA
ATOM     21  C   UNL     1     105.814 124.672 142.121  0.00  0.00    +0.000 C 
ENDBRANCH  19  20
ENDBRANCH   8  14
BRANCH   9  22
ATOM     22  O   UNL     1     104.145 122.931 135.293  0.00  0.00    +0.000 OA
ATOM     23  C   UNL     1     104.655 123.482 134.951  0.00  0.00    +0.000 C 
ENDBRANCH   9  22
TORSDOF 3
ENDMDL
MODEL 3
REMARK VINA RESULT:      -8.3      7.640      8.562
REMARK  Name = 15715157
REMARK  3 active torsions:
REMARK  status: ('A' for Active; 'I' for Inactive)
REMARK    1  A    between atoms: O_2  and  C_11
REMARK    2  A    between atoms: O_5  and  C_21
REMARK    3  A    between atoms: C_10  and  C_15
REMARK                            x       y       z     vdW  Elec       q    Type
REMARK                         _______ _______ _______ _____ _____    ______ ____
ROOT
ATOM      1  O   UNL     1     103.033 130.530 142.289  0.00  0.00    +0.000 OA
ATOM      2  O   UNL     1     103.889 128.303 140.652  0.00  0.00    +0.000 OA
ATOM      3  O   UNL     1     102.936 129.241 140.112  0.00  0.00    +0.000 OA
ATOM      4  C   UNL     1     103.468 129.401 141.463  0.00  0.00    +0.000 A 
ATOM      5  C   UNL     1     103.502 129.819 142.173  0.00  0.00    +0.000 A 
ATOM      6  C   UNL     1     104.411 128.457 141.974  0.00  0.00    +0.000 A 
ATOM      7  C   UNL     1     103.922 128.721 141.363  0.00  0.00    +0.000 A 
ATOM      8  C   UNL     1     102.523 130.809 141.657  0.00  0.00    +0.000 A 
ATOM      9  C   UNL     1     104.445 128.874 142.684  0.00  0.00    +0.000 A 
ATOM     10  C   UNL     1     103.990 129.556 142.784  0.00  0.00    +0.000 A 
ATOM     11  C   UNL     1     102.964 129.666 140.819  0.00  0.00    +0.000 A 
ATOM     12  C   UNL     1     102.488 130.374 140.917  0.00  0.00    +0.000 A 
ATOM     13  C   UNL     1     104.865 127.776 141.874  0.00  0.00    +0.000 C 
ENDROOT
BRANCH   8  14
ATOM     14  C   UNL     1     102.070 131.491 141.759  0.00  0.00    +0.000 A 
ATOM     15  C   UNL     1     101.287 131.432 142.011  0.00  0.00    +0.000 A 
ATOM     16  C   UNL     1     102.400 132.232 141.610  0.00  0.00    +0.000 A 
ATOM     17  C   UNL     1     100.833 132.114 142.113  0.00  0.00    +0.000 A 
ATOM     18  C   UNL     1     101.947 132.915 141.713  0.00  0.00    +0.000 A 
ATOM     19  C   UNL     1     101.163 132.855 141.964  0.00  0.00    +0.000 A 
BRANCH  19  20
ATOM     20  O   UNL     1     100.710 133.537 142.067  0.00  0.00    +0.000 OA
ATOM     21  C   UNL     1     100.889 134.219 141.640  0.00  0.00    +0.000 C 
ENDBRANCH  19  20
ENDBRANCH   8  14
BRANCH   9  22
ATOM     22  O   UNL     1     104.932 128.612 143.295  0.00  0.00    +0.000 OA
ATOM     23  C   UNL     1     104.991 129.047 143.993  0.00  0.00    +0.000 C 
ENDBRANCH   9  22
TORSDOF 3
ENDMDL
MODEL 4
REMARK VINA RESULT:      -7.8     12.772     14.552
REMARK  Name = 15715157
REMARK  3 active torsions:
REMARK  status: ('A' for Active; 'I' for Inactive)
REMARK    1  A    between atoms: O_2  and  C_11
REMARK    2  A    between atoms: O_5  and  C_21
REMARK    3  A    between atoms: C_10  and  C_15
REMARK                            x       y       z     vdW  Elec       q    Type
REMARK                         _______ _______ _______ _____ _____    ______ ____
ROOT
ATOM      1  O   UNL     1     113.864 127.381 136.401  0.00  0.00    +0.000 OA
ATOM      2  O   UNL     1     111.479 125.748 136.271  0.00  0.00    +0.000 OA
ATOM      3  O   UNL     1     111.401 127.132 135.871  0.00  0.00    +0.000 OA
ATOM      4  C   UNL     1     112.658 126.551 136.336  0.00  0.00    +0.000 A 
ATOM      5  C   UNL     1     113.460 126.630 136.510  0.00  0.00    +0.000 A 
ATOM      6  C   UNL     1     112.707 125.178 136.726  0.00  0.00    +0.000 A 
ATOM      7  C   UNL     1     112.281 125.826 136.444  0.00  0.00    +0.000 A 
ATOM      8  C   UNL     1     113.426 128.059 136.108  0.00  0.00    +0.000 A 
ATOM      9  C   UNL     1     113.509 125.256 136.900  0.00  0.00    +0.000 A 
ATOM     10  C   UNL     1     113.887 125.982 136.792  0.00  0.00    +0.000 A 
ATOM     11  C   UNL     1     112.203 127.219 136.042  0.00  0.00    +0.000 A 
ATOM     12  C   UNL     1     112.590 127.978 135.927  0.00  0.00    +0.000 A 
ATOM     13  C   UNL     1     112.330 124.452 136.834  0.00  0.00    +0.000 C 
ENDROOT
BRANCH   8  14
ATOM     14  C   UNL     1     113.805 128.784 136.001  0.00  0.00    +0.000 A 
ATOM     15  C   UNL     1     113.744 129.371 136.577  0.00  0.00    +0.000 A 
ATOM     16  C   UNL     1     114.245 128.921 135.317  0.00  0.00    +0.000 A 
ATOM     17  C   UNL     1     114.124 130.095 136.470  0.00  0.00    +0.000 A 
ATOM     18  C   UNL     1     114.625 129.646 135.209  0.00  0.00    +0.000 A 
ATOM     19  C   UNL     1     114.564 130.233 135.786  0.00  0.00    +0.000 A 
BRANCH  19  20
ATOM     20  O   UNL     1     114.943 130.958 135.679  0.00  0.00    +0.000 OA
ATOM     21  C   UNL     1     115.501 131.047 135.077  0.00  0.00    +0.000 C 
ENDBRANCH  19  20
ENDBRANCH   8  14
BRANCH   9  22
ATOM     22  O   UNL     1     113.936 124.608 137.182  0.00  0.00    +0.000 OA
ATOM     23  C   UNL     1     114.729 124.695 137.391  0.00  0.00    +0.000 C 
ENDBRANCH   9  22
TORSDOF 3
ENDMDL
MODEL 5
REMARK VINA RESULT:      -7.8     12.766     14.272
REMARK  Name = 15715157
REMARK  3 active torsions:
REMARK  status: ('A' for Active; 'I' for Inactive)
REMARK    1  A    between atoms: O_2  and  C_11
REMARK    2  A    between atoms: O_5  and  C_21
REMARK    3  A    between atoms: C_10  and  C_15
REMARK                            x       y       z     vdW  Elec       q    Type
REMARK                         _______ _______ _______ _____ _____    ______ ____
ROOT
ATOM      1  O   UNL     1     112.651 127.117 136.105  0.00  0.00    +0.000 OA
ATOM      2  O   UNL     1     113.306 124.439 136.984  0.00  0.00    +0.000 OA
ATOM      3  O   UNL     1     114.283 125.488 137.150  0.00  0.00    +0.000 OA
ATOM      4  C   UNL     1     112.980 125.760 136.549  0.00  0.00    +0.000 A 
ATOM      5  C   UNL     1     112.446 126.289 136.208  0.00  0.00    +0.000 A 
ATOM      6  C   UNL     1     112.031 124.703 136.396  0.00  0.00    +0.000 A 
ATOM      7  C   UNL     1     112.772 124.968 136.643  0.00  0.00    +0.000 A 
ATOM      8  C   UNL     1     113.421 127.398 136.360  0.00  0.00    +0.000 A 
ATOM      9  C   UNL     1     111.497 125.231 136.055  0.00  0.00    +0.000 A 
ATOM     10  C   UNL     1     111.705 126.025 135.961  0.00  0.00    +0.000 A 
ATOM     11  C   UNL     1     113.756 126.024 136.810  0.00  0.00    +0.000 A 
ATOM     12  C   UNL     1     113.977 126.848 136.715  0.00  0.00    +0.000 A 
ATOM     13  C   UNL     1     111.823 123.911 136.490  0.00  0.00    +0.000 C 
ENDROOT
BRANCH   8  14
ATOM     14  C   UNL     1     113.626 128.192 136.264  0.00  0.00    +0.000 A 
ATOM     15  C   UNL     1     113.410 128.746 136.836  0.00  0.00    +0.000 A 
ATOM     16  C   UNL     1     114.047 128.432 135.597  0.00  0.00    +0.000 A 
ATOM     17  C   UNL     1     113.615 129.539 136.741  0.00  0.00    +0.000 A 
ATOM     18  C   UNL     1     114.253 129.225 135.501  0.00  0.00    +0.000 A 
ATOM     19  C   UNL     1     114.037 129.779 136.073  0.00  0.00    +0.000 A 
BRANCH  19  20
ATOM     20  O   UNL     1     114.241 130.572 135.978  0.00  0.00    +0.000 OA
ATOM     21  C   UNL     1     115.022 130.779 135.809  0.00  0.00    +0.000 C 
ENDBRANCH  19  20
ENDBRANCH   8  14
BRANCH   9  22
ATOM     22  O   UNL     1     110.756 124.968 135.808  0.00  0.00    +0.000 OA
ATOM     23  C   UNL     1     110.279 125.453 135.341  0.00  0.00    +0.000 C 
ENDBRANCH   9  22
TORSDOF 3
ENDMDL
MODEL 6
REMARK VINA RESULT:      -7.7     11.822     12.848
REMARK  Name = 15715157
REMARK  3 active torsions:
REMARK  status: ('A' for Active; 'I' for Inactive)
REMARK    1  A    between atoms: O_2  and  C_11
REMARK    2  A    between atoms: O_5  and  C_21
REMARK    3  A    between atoms: C_10  and  C_15
REMARK                            x       y       z     vdW  Elec       q    Type
REMARK                         _______ _______ _______ _____ _____    ______ ____
ROOT
ATOM      1  O   UNL     1     110.623 127.303 136.227  0.00  0.00    +0.000 OA
ATOM      2  O   UNL     1     108.072 128.597 135.792  0.00  0.00    +0.000 OA
ATOM      3  O   UNL     1     108.109 127.165 135.959  0.00  0.00    +0.000 OA
ATOM      4  C   UNL     1     109.332 127.961 136.006  0.00  0.00    +0.000 A 
ATOM      5  C   UNL     1     110.151 128.009 136.093  0.00  0.00    +0.000 A 
ATOM      6  C   UNL     1     109.267 129.379 135.838  0.00  0.00    +0.000 A 
ATOM      7  C   UNL     1     108.891 128.646 135.879  0.00  0.00    +0.000 A 
ATOM      8  C   UNL     1     110.236 126.537 136.270  0.00  0.00    +0.000 A 
ATOM      9  C   UNL     1     110.086 129.427 135.925  0.00  0.00    +0.000 A 
ATOM     10  C   UNL     1     110.529 128.742 136.053  0.00  0.00    +0.000 A 
ATOM     11  C   UNL     1     108.928 127.203 136.047  0.00  0.00    +0.000 A 
ATOM     12  C   UNL     1     109.384 126.487 136.180  0.00  0.00    +0.000 A 
ATOM     13  C   UNL     1     108.825 130.063 135.711  0.00  0.00    +0.000 C 
ENDROOT
BRANCH   8  14
ATOM     14  C   UNL     1     110.681 125.854 136.398  0.00  0.00    +0.000 A 
ATOM     15  C   UNL     1     110.913 125.387 135.759  0.00  0.00    +0.000 A 
ATOM     16  C   UNL     1     110.894 125.638 137.165  0.00  0.00    +0.000 A 
ATOM     17  C   UNL     1     111.357 124.704 135.887  0.00  0.00    +0.000 A 
ATOM     18  C   UNL     1     111.339 124.955 137.293  0.00  0.00    +0.000 A 
ATOM     19  C   UNL     1     111.570 124.488 136.654  0.00  0.00    +0.000 A 
BRANCH  19  20
ATOM     20  O   UNL     1     112.015 123.805 136.782  0.00  0.00    +0.000 OA
ATOM     21  C   UNL     1     112.838 123.848 136.811  0.00  0.00    +0.000 C 
ENDBRANCH  19  20
ENDBRANCH   8  14
BRANCH   9  22
ATOM     22  O   UNL     1     110.463 130.159 135.884  0.00  0.00    +0.000 OA
ATOM     23  C   UNL     1     111.237 130.241 136.158  0.00  0.00    +0.000 C 
ENDBRANCH   9  22
TORSDOF 3
ENDMDL
MODEL 7
REMARK VINA RESULT:      -7.7      1.036      2.091
REMARK  Name = 15715157
REMARK  3 active torsions:
REMARK  status: ('A' for Active; 'I' for Inactive)
REMARK    1  A    between atoms: O_2  and  C_11
REMARK    2  A    between atoms: O_5  and  C_21
REMARK    3  A    between atoms: C_10  and  C_15
REMARK                            x       y       z     vdW  Elec       q    Type
REMARK                         _______ _______ _______ _____ _____    ______ ____
ROOT
ATOM      1  O   UNL     1     104.259 124.459 146.022  0.00  0.00    +0.000 OA
ATOM      2  O   UNL     1     106.047 125.168 148.184  0.00  0.00    +0.000 OA
ATOM      3  O   UNL     1     104.798 124.517 148.495  0.00  0.00    +0.000 OA
ATOM      4  C   UNL     1     105.166 124.819 147.115  0.00  0.00    +0.000 A 
ATOM      5  C   UNL     1     104.993 124.802 146.308  0.00  0.00    +0.000 A 
ATOM      6  C   UNL     1     106.410 125.465 146.835  0.00  0.00    +0.000 A 
ATOM      7  C   UNL     1     105.874 125.151 147.378  0.00  0.00    +0.000 A 
ATOM      8  C   UNL     1     103.698 124.130 146.583  0.00  0.00    +0.000 A 
ATOM      9  C   UNL     1     106.237 125.448 146.028  0.00  0.00    +0.000 A 
ATOM     10  C   UNL     1     105.528 125.116 145.765  0.00  0.00    +0.000 A 
ATOM     11  C   UNL     1     104.616 124.495 147.691  0.00  0.00    +0.000 A 
ATOM     12  C   UNL     1     103.878 124.148 147.423  0.00  0.00    +0.000 A 
ATOM     13  C   UNL     1     107.117 125.797 147.097  0.00  0.00    +0.000 C 
ENDROOT
BRANCH   8  14
ATOM     14  C   UNL     1     102.990 123.799 146.317  0.00  0.00    +0.000 A 
ATOM     15  C   UNL     1     102.995 123.071 145.931  0.00  0.00    +0.000 A 
ATOM     16  C   UNL     1     102.278 124.197 146.437  0.00  0.00    +0.000 A 
ATOM     17  C   UNL     1     102.287 122.740 145.665  0.00  0.00    +0.000 A 
ATOM     18  C   UNL     1     101.570 123.867 146.172  0.00  0.00    +0.000 A 
ATOM     19  C   UNL     1     101.575 123.138 145.786  0.00  0.00    +0.000 A 
BRANCH  19  20
ATOM     20  O   UNL     1     100.867 122.807 145.520  0.00  0.00    +0.000 OA
ATOM     21  C   UNL     1     100.714 122.757 144.711  0.00  0.00    +0.000 C 
ENDBRANCH  19  20
ENDBRANCH   8  14
BRANCH   9  22
ATOM     22  O   UNL     1     106.772 125.762 145.484  0.00  0.00    +0.000 OA
ATOM     23  C   UNL     1     106.496 126.154 144.813  0.00  0.00    +0.000 C 
ENDBRANCH   9  22
TORSDOF 3
ENDMDL
MODEL 8
REMARK VINA RESULT:      -7.6      1.025      4.613
REMARK  Name = 15715157
REMARK  3 active torsions:
REMARK  status: ('A' for Active; 'I' for Inactive)
REMARK    1  A    between atoms: O_2  and  C_11
REMARK    2  A    between atoms: O_5  and  C_21
REMARK    3  A    between atoms: C_10  and  C_15
REMARK                            x       y       z     vdW  Elec       q    Type
REMARK                         _______ _______ _______ _____ _____    ______ ____
ROOT
ATOM      1  O   UNL     1     103.926 124.408 147.309  0.00  0.00    +0.000 OA
ATOM      2  O   UNL     1     102.468 123.107 145.175  0.00  0.00    +0.000 OA
ATOM      3  O   UNL     1     103.890 123.297 145.034  0.00  0.00    +0.000 OA
ATOM      4  C   UNL     1     103.185 123.749 146.230  0.00  0.00    +0.000 A 
ATOM      5  C   UNL     1     103.193 124.111 146.972  0.00  0.00    +0.000 A 
ATOM      6  C   UNL     1     101.775 123.548 146.344  0.00  0.00    +0.000 A 
ATOM      7  C   UNL     1     102.476 123.468 145.917  0.00  0.00    +0.000 A 
ATOM      8  C   UNL     1     104.659 124.328 146.868  0.00  0.00    +0.000 A 
ATOM      9  C   UNL     1     101.783 123.909 147.086  0.00  0.00    +0.000 A 
ATOM     10  C   UNL     1     102.493 124.191 147.400  0.00  0.00    +0.000 A 
ATOM     11  C   UNL     1     103.909 123.660 145.775  0.00  0.00    +0.000 A 
ATOM     12  C   UNL     1     104.650 123.952 146.096  0.00  0.00    +0.000 A 
ATOM     13  C   UNL     1     101.066 123.266 146.031  0.00  0.00    +0.000 C 
ENDROOT
BRANCH   8  14
ATOM     14  C   UNL     1     105.366 124.610 147.184  0.00  0.00    +0.000 A 
ATOM     15  C   UNL     1     105.808 125.172 146.772  0.00  0.00    +0.000 A 
ATOM     16  C   UNL     1     105.633 124.331 147.913  0.00  0.00    +0.000 A 
ATOM     17  C   UNL     1     106.516 125.454 147.088  0.00  0.00    +0.000 A 
ATOM     18  C   UNL     1     106.341 124.614 148.230  0.00  0.00    +0.000 A 
ATOM     19  C   UNL     1     106.782 125.175 147.817  0.00  0.00    +0.000 A 
BRANCH  19  20
ATOM     20  O   UNL     1     107.490 125.458 148.133  0.00  0.00    +0.000 OA
ATOM     21  C   UNL     1     108.168 124.988 148.111  0.00  0.00    +0.000 C 
ENDBRANCH  19  20
ENDBRANCH   8  14
BRANCH   9  22
ATOM     22  O   UNL     1     101.083 123.989 147.514  0.00  0.00    +0.000 OA
ATOM     23  C   UNL     1     101.105 124.244 148.299  0.00  0.00    +0.000 C 
ENDBRANCH   9  22
TORSDOF 3
ENDMDL
MODEL 9
REMARK VINA RESULT:      -7.6     12.959     14.028
REMARK  Name = 15715157
REMARK  3 active torsions:
REMARK  status: ('A' for Active; 'I' for Inactive)
REMARK    1  A    between atoms: O_2  and  C_11
REMARK    2  A    between atoms: O_5  and  C_21
REMARK    3  A    between atoms: C_10  and  C_15
REMARK                            x       y       z     vdW  Elec       q    Type
REMARK                         _______ _______ _______ _____ _____    ______ ____
ROOT
ATOM      1  O   UNL     1     113.466 127.019 136.575  0.00  0.00    +0.000 OA
ATOM      2  O   UNL     1     111.443 125.000 136.123  0.00  0.00    +0.000 OA
ATOM      3  O   UNL     1     111.141 126.374 135.806  0.00  0.00    +0.000 OA
ATOM      4  C   UNL     1     112.443 125.994 136.347  0.00  0.00    +0.000 A 
ATOM      5  C   UNL     1     113.201 126.201 136.598  0.00  0.00    +0.000 A 
ATOM      6  C   UNL     1     112.716 124.625 136.652  0.00  0.00    +0.000 A 
ATOM      7  C   UNL     1     112.201 125.207 136.374  0.00  0.00    +0.000 A 
ATOM      8  C   UNL     1     112.934 127.628 136.287  0.00  0.00    +0.000 A 
ATOM      9  C   UNL     1     113.474 124.832 136.904  0.00  0.00    +0.000 A 
ATOM     10  C   UNL     1     113.717 125.620 136.877  0.00  0.00    +0.000 A 
ATOM     11  C   UNL     1     111.897 126.591 136.055  0.00  0.00    +0.000 A 
ATOM     12  C   UNL     1     112.144 127.413 136.025  0.00  0.00    +0.000 A 
ATOM     13  C   UNL     1     112.473 123.837 136.679  0.00  0.00    +0.000 C 
ENDROOT
BRANCH   8  14
ATOM     14  C   UNL     1     113.179 128.415 136.261  0.00  0.00    +0.000 A 
ATOM     15  C   UNL     1     113.610 128.693 135.614  0.00  0.00    +0.000 A 
ATOM     16  C   UNL     1     112.994 128.926 136.882  0.00  0.00    +0.000 A 
ATOM     17  C   UNL     1     113.855 129.480 135.589  0.00  0.00    +0.000 A 
ATOM     18  C   UNL     1     113.239 129.714 136.857  0.00  0.00    +0.000 A 
ATOM     19  C   UNL     1     113.670 129.990 136.210  0.00  0.00    +0.000 A 
BRANCH  19  20
ATOM     20  O   UNL     1     113.915 130.778 136.184  0.00  0.00    +0.000 OA
ATOM     21  C   UNL     1     113.694 131.299 136.784  0.00  0.00    +0.000 C 
ENDBRANCH  19  20
ENDBRANCH   8  14
BRANCH   9  22
ATOM     22  O   UNL     1     113.990 124.251 137.182  0.00  0.00    +0.000 OA
ATOM     23  C   UNL     1     114.743 124.460 137.445  0.00  0.00    +0.000 C 
ENDBRANCH   9  22
TORSDOF 3
ENDMDL
MODEL 10
REMARK VINA RESULT:      -7.6      8.846     10.065
REMARK  Name = 15715157
REMARK  3 active torsions:
REMARK  status: ('A' for Active; 'I' for Inactive)
REMARK    1  A    between atoms: O_2  and  C_11
REMARK    2  A    between atoms: O_5  and  C_21
REMARK    3  A    between atoms: C_10  and  C_15
REMARK                            x       y       z     vdW  Elec       q    Type
REMARK                         _______ _______ _______ _____ _____    ______ ____
ROOT
ATOM      1  O   UNL     1     103.026 131.765 141.301  0.00  0.00    +0.000 OA
ATOM      2  O   UNL     1     100.756 133.389 142.065  0.00  0.00    +0.000 OA
ATOM      3  O   UNL     1     100.710 131.968 142.305  0.00  0.00    +0.000 OA
ATOM      4  C   UNL     1     101.878 132.590 141.687  0.00  0.00    +0.000 A 
ATOM      5  C   UNL     1     102.632 132.528 141.359  0.00  0.00    +0.000 A 
ATOM      6  C   UNL     1     101.897 134.001 141.461  0.00  0.00    +0.000 A 
ATOM      7  C   UNL     1     101.511 133.327 141.738  0.00  0.00    +0.000 A 
ATOM      8  C   UNL     1     102.628 131.060 141.587  0.00  0.00    +0.000 A 
ATOM      9  C   UNL     1     102.652 133.938 141.133  0.00  0.00    +0.000 A 
ATOM     10  C   UNL     1     103.020 133.201 141.082  0.00  0.00    +0.000 A 
ATOM     11  C   UNL     1     101.464 131.895 141.979  0.00  0.00    +0.000 A 
ATOM     12  C   UNL     1     101.842 131.125 141.929  0.00  0.00    +0.000 A 
ATOM     13  C   UNL     1     101.530 134.737 141.512  0.00  0.00    +0.000 C 
ENDROOT
BRANCH   8  14
ATOM     14  C   UNL     1     102.998 130.324 141.535  0.00  0.00    +0.000 A 
ATOM     15  C   UNL     1     102.900 129.860 140.861  0.00  0.00    +0.000 A 
ATOM     16  C   UNL     1     103.466 130.053 142.158  0.00  0.00    +0.000 A 
ATOM     17  C   UNL     1     103.270 129.124 140.809  0.00  0.00    +0.000 A 
ATOM     18  C   UNL     1     103.836 129.317 142.107  0.00  0.00    +0.000 A 
ATOM     19  C   UNL     1     103.738 128.853 141.432  0.00  0.00    +0.000 A 
BRANCH  19  20
ATOM     20  O   UNL     1     104.108 128.118 141.380  0.00  0.00    +0.000 OA
ATOM     21  C   UNL     1     104.841 127.998 141.740  0.00  0.00    +0.000 C 
ENDBRANCH  19  20
ENDBRANCH   8  14
BRANCH   9  22
ATOM     22  O   UNL     1     103.039 134.612 140.856  0.00  0.00    +0.000 OA
ATOM     23  C   UNL     1     103.678 134.538 140.340  0.00  0.00    +0.000 C 
ENDBRANCH   9  22
TORSDOF 3
ENDMDL
