MODEL 1
REMARK VINA RESULT:     -10.7      0.000      0.000
REMARK  Name = 44259494
REMARK  11 active torsions:
REMARK  status: ('A' for Active; 'I' for Inactive)
REMARK    1  A    between atoms: O_2  and  C_28
REMARK    2  A    between atoms: O_2  and  C_32
REMARK    3  A    between atoms: O_5  and  C_30
REMARK    4  A    between atoms: O_5  and  C_41
REMARK    5  A    between atoms: O_12  and  C_38
REMARK    6  A    between atoms: O_12  and  C_44
REMARK    7  A    between atoms: O_20  and  C_53
REMARK    8  A    between atoms: O_21  and  C_54
REMARK    9  A    between atoms: C_23  and  C_32
REMARK   10  A    between atoms: C_37  and  C_40
REMARK   11  A    between atoms: C_42  and  C_50
REMARK                            x       y       z     vdW  Elec       q    Type
REMARK                         _______ _______ _______ _____ _____    ______ ____
ROOT
ATOM      1  O   UNL     1     112.839 128.584 138.157  0.00  0.00    +0.000 OA
ATOM      2  O   UNL     1     114.126 128.526 140.270  0.00  0.00    +0.000 OA
ATOM      3  O   UNL     1     113.712 127.166 140.519  0.00  0.00    +0.000 OA
ATOM      4  C   UNL     1     113.696 129.228 139.103  0.00  0.00    +0.000 A 
ATOM      5  C   UNL     1     113.266 129.247 138.399  0.00  0.00    +0.000 A 
ATOM      6  C   UNL     1     113.697 128.545 139.566  0.00  0.00    +0.000 A 
ATOM      7  C   UNL     1     112.391 126.502 138.836  0.00  0.00    +0.000 A 
ATOM      8  C   UNL     1     113.271 127.881 139.325  0.00  0.00    +0.000 A 
ATOM      9  C   UNL     1     112.842 127.901 138.621  0.00  0.00    +0.000 A 
ATOM     10  C   UNL     1     112.393 127.217 138.359  0.00  0.00    +0.000 A 
ATOM     11  C   UNL     1     112.838 126.482 139.570  0.00  0.00    +0.000 A 
ATOM     12  C   UNL     1     113.281 127.177 139.816  0.00  0.00    +0.000 A 
ENDROOT
BRANCH   5  14
ATOM     13  O   UNL     1     113.259 131.976 136.544  0.00  0.00    +0.000 OA
ATOM     14  C   UNL     1     113.264 129.929 137.936  0.00  0.00    +0.000 A 
ATOM     15  C   UNL     1     113.908 130.098 137.447  0.00  0.00    +0.000 A 
ATOM     16  C   UNL     1     112.619 130.443 137.960  0.00  0.00    +0.000 A 
ATOM     17  C   UNL     1     112.618 131.125 137.496  0.00  0.00    +0.000 A 
ATOM     18  C   UNL     1     113.905 130.780 136.983  0.00  0.00    +0.000 A 
ATOM     19  C   UNL     1     113.260 131.294 137.008  0.00  0.00    +0.000 A 
BRANCH  17  20
ATOM     20  O   UNL     1     111.973 131.639 137.520  0.00  0.00    +0.000 OA
ATOM     21  C   UNL     1     111.204 131.337 137.524  0.00  0.00    +0.000 C 
ENDBRANCH  17  20
BRANCH  18  22
ATOM     22  O   UNL     1     114.549 130.949 136.495  0.00  0.00    +0.000 OA
ATOM     23  C   UNL     1     114.841 130.372 135.983  0.00  0.00    +0.000 C 
ENDBRANCH  18  22
ENDBRANCH   5  14
BRANCH   4  24
ATOM     24  O   UNL     1     114.122 129.891 139.344  0.00  0.00    +0.000 OA
BRANCH  24  33
ATOM     25  O   UNL     1     113.198 130.203 140.389  0.00  0.00    +0.000 OA
ATOM     26  O   UNL     1     113.468 131.305 142.253  0.00  0.00    +0.000 OA
ATOM     27  O   UNL     1     114.989 131.387 141.619  0.00  0.00    +0.000 OA
ATOM     28  O   UNL     1     115.316 130.680 140.165  0.00  0.00    +0.000 OA
ATOM     29  C   UNL     1     113.035 130.557 141.116  0.00  0.00    +0.000 C 
ATOM     30  C   UNL     1     113.632 130.951 141.526  0.00  0.00    +0.000 C 
ATOM     31  C   UNL     1     114.392 130.993 141.210  0.00  0.00    +0.000 C 
ATOM     32  C   UNL     1     114.556 130.639 140.482  0.00  0.00    +0.000 C 
ATOM     33  C   UNL     1     113.959 130.244 140.072  0.00  0.00    +0.000 C 
BRANCH  29  34
ATOM     34  C   UNL     1     112.275 130.516 141.433  0.00  0.00    +0.000 C 
BRANCH  34  35
ATOM     35  O   UNL     1     111.631 130.792 140.997  0.00  0.00    +0.000 OA
BRANCH  35  41
ATOM     36  O   UNL     1     110.785 129.683 141.307  0.00  0.00    +0.000 OA
ATOM     37  O   UNL     1     110.311 131.779 140.923  0.00  0.00    +0.000 OA
ATOM     38  O   UNL     1     108.804 131.163 141.196  0.00  0.00    +0.000 OA
ATOM     39  O   UNL     1     108.618 129.560 141.543  0.00  0.00    +0.000 OA
ATOM     40  C   UNL     1     110.217 130.977 141.097  0.00  0.00    +0.000 C 
ATOM     41  C   UNL     1     110.877 130.484 141.133  0.00  0.00    +0.000 C 
ATOM     42  C   UNL     1     109.465 130.669 141.233  0.00  0.00    +0.000 C 
ATOM     43  C   UNL     1     109.371 129.868 141.406  0.00  0.00    +0.000 C 
ATOM     44  C   UNL     1     110.031 129.375 141.443  0.00  0.00    +0.000 C 
ATOM     45  C   UNL     1     109.939 128.574 141.617  0.00  0.00    +0.000 C 
ENDBRANCH  35  41
ENDBRANCH  34  35
ENDBRANCH  29  34
ENDBRANCH  24  33
ENDBRANCH   4  24
BRANCH   7  46
ATOM     46  O   UNL     1     111.963 125.840 138.592  0.00  0.00    +0.000 OA
BRANCH  46  55
ATOM     47  O   UNL     1     113.057 125.183 137.949  0.00  0.00    +0.000 OA
ATOM     48  O   UNL     1     111.512 124.288 136.235  0.00  0.00    +0.000 OA
ATOM     49  O   UNL     1     113.121 123.930 136.164  0.00  0.00    +0.000 OA
ATOM     50  O   UNL     1     110.933 125.243 137.449  0.00  0.00    +0.000 OA
ATOM     51  C   UNL     1     112.027 124.586 136.806  0.00  0.00    +0.000 C 
ATOM     52  C   UNL     1     112.832 124.407 136.771  0.00  0.00    +0.000 C 
ATOM     53  C   UNL     1     111.737 125.064 137.414  0.00  0.00    +0.000 C 
ATOM     54  C   UNL     1     113.347 124.706 137.343  0.00  0.00    +0.000 C 
ATOM     55  C   UNL     1     112.252 125.363 137.985  0.00  0.00    +0.000 C 
BRANCH  54  57
ATOM     56  O   UNL     1     114.705 125.133 137.234  0.00  0.00    +0.000 OA
ATOM     57  C   UNL     1     114.151 124.526 137.307  0.00  0.00    +0.000 C 
ENDBRANCH  54  57
ENDBRANCH  46  55
ENDBRANCH   7  46
TORSDOF 11
ENDMDL
MODEL 2
REMARK VINA RESULT:     -10.5      1.588      4.932
REMARK  Name = 44259494
REMARK  11 active torsions:
REMARK  status: ('A' for Active; 'I' for Inactive)
REMARK    1  A    between atoms: O_2  and  C_28
REMARK    2  A    between atoms: O_2  and  C_32
REMARK    3  A    between atoms: O_5  and  C_30
REMARK    4  A    between atoms: O_5  and  C_41
REMARK    5  A    between atoms: O_12  and  C_38
REMARK    6  A    between atoms: O_12  and  C_44
REMARK    7  A    between atoms: O_20  and  C_53
REMARK    8  A    between atoms: O_21  and  C_54
REMARK    9  A    between atoms: C_23  and  C_32
REMARK   10  A    between atoms: C_37  and  C_40
REMARK   11  A    between atoms: C_42  and  C_50
REMARK                            x       y       z     vdW  Elec       q    Type
REMARK                         _______ _______ _______ _____ _____    ______ ____
ROOT
ATOM      1  O   UNL     1     111.684 130.455 138.817  0.00  0.00    +0.000 OA
ATOM      2  O   UNL     1     114.092 130.421 138.248  0.00  0.00    +0.000 OA
ATOM      3  O   UNL     1     114.427 129.934 139.565  0.00  0.00    +0.000 OA
ATOM      4  C   UNL     1     112.737 130.679 137.877  0.00  0.00    +0.000 A 
ATOM      5  C   UNL     1     111.934 130.690 138.067  0.00  0.00    +0.000 A 
ATOM      6  C   UNL     1     113.290 130.433 138.438  0.00  0.00    +0.000 A 
ATOM      7  C   UNL     1     112.535 129.708 140.744  0.00  0.00    +0.000 A 
ATOM      8  C   UNL     1     113.040 130.197 139.188  0.00  0.00    +0.000 A 
ATOM      9  C   UNL     1     112.238 130.209 139.378  0.00  0.00    +0.000 A 
ATOM     10  C   UNL     1     111.965 129.966 140.155  0.00  0.00    +0.000 A 
ATOM     11  C   UNL     1     113.372 129.696 140.546  0.00  0.00    +0.000 A 
ATOM     12  C   UNL     1     113.626 129.943 139.763  0.00  0.00    +0.000 A 
ENDROOT
BRANCH   5  14
ATOM     13  O   UNL     1     109.720 131.674 135.827  0.00  0.00    +0.000 OA
ATOM     14  C   UNL     1     111.381 130.937 137.507  0.00  0.00    +0.000 A 
ATOM     15  C   UNL     1     110.930 130.378 137.100  0.00  0.00    +0.000 A 
ATOM     16  C   UNL     1     111.278 131.741 137.355  0.00  0.00    +0.000 A 
ATOM     17  C   UNL     1     110.724 131.986 136.794  0.00  0.00    +0.000 A 
ATOM     18  C   UNL     1     110.377 130.625 136.540  0.00  0.00    +0.000 A 
ATOM     19  C   UNL     1     110.274 131.429 136.387  0.00  0.00    +0.000 A 
BRANCH  17  20
ATOM     20  O   UNL     1     110.621 132.791 136.642  0.00  0.00    +0.000 OA
ATOM     21  C   UNL     1     110.470 133.313 137.263  0.00  0.00    +0.000 C 
ENDBRANCH  17  20
BRANCH  18  22
ATOM     22  O   UNL     1     109.926 130.066 136.132  0.00  0.00    +0.000 OA
ATOM     23  C   UNL     1     109.649 129.394 136.523  0.00  0.00    +0.000 C 
ENDBRANCH  18  22
ENDBRANCH   5  14
BRANCH   4  24
ATOM     24  O   UNL     1     112.987 130.914 137.128  0.00  0.00    +0.000 OA
BRANCH  24  33
ATOM     25  O   UNL     1     113.184 129.595 136.615  0.00  0.00    +0.000 OA
ATOM     26  O   UNL     1     114.662 128.813 135.213  0.00  0.00    +0.000 OA
ATOM     27  O   UNL     1     115.106 130.400 135.280  0.00  0.00    +0.000 OA
ATOM     28  O   UNL     1     114.268 131.451 136.238  0.00  0.00    +0.000 OA
ATOM     29  C   UNL     1     113.603 129.070 136.136  0.00  0.00    +0.000 C 
ATOM     30  C   UNL     1     114.243 129.338 135.691  0.00  0.00    +0.000 C 
ATOM     31  C   UNL     1     114.466 130.132 135.725  0.00  0.00    +0.000 C 
ATOM     32  C   UNL     1     114.047 130.657 136.204  0.00  0.00    +0.000 C 
ATOM     33  C   UNL     1     113.405 130.389 136.649  0.00  0.00    +0.000 C 
BRANCH  29  34
ATOM     34  C   UNL     1     113.381 128.276 136.102  0.00  0.00    +0.000 C 
BRANCH  34  35
ATOM     35  O   UNL     1     113.243 127.857 136.799  0.00  0.00    +0.000 OA
BRANCH  35  41
ATOM     36  O   UNL     1     112.272 126.995 136.202  0.00  0.00    +0.000 OA
ATOM     37  O   UNL     1     113.618 126.677 137.890  0.00  0.00    +0.000 OA
ATOM     38  O   UNL     1     112.836 125.226 137.838  0.00  0.00    +0.000 OA
ATOM     39  O   UNL     1     111.677 124.954 136.695  0.00  0.00    +0.000 OA
ATOM     40  C   UNL     1     113.039 126.541 137.319  0.00  0.00    +0.000 C 
ATOM     41  C   UNL     1     112.851 127.130 136.773  0.00  0.00    +0.000 C 
ATOM     42  C   UNL     1     112.648 125.816 137.293  0.00  0.00    +0.000 C 
ATOM     43  C   UNL     1     112.068 125.679 136.721  0.00  0.00    +0.000 C 
ATOM     44  C   UNL     1     111.881 126.268 136.176  0.00  0.00    +0.000 C 
ATOM     45  C   UNL     1     111.302 126.133 135.604  0.00  0.00    +0.000 C 
ENDBRANCH  35  41
ENDBRANCH  34  35
ENDBRANCH  29  34
ENDBRANCH  24  33
ENDBRANCH   4  24
BRANCH   7  46
ATOM     46  O   UNL     1     112.283 129.473 141.494  0.00  0.00    +0.000 OA
BRANCH  46  55
ATOM     47  O   UNL     1     112.097 128.086 141.206  0.00  0.00    +0.000 OA
ATOM     48  O   UNL     1     110.059 128.067 142.611  0.00  0.00    +0.000 OA
ATOM     49  O   UNL     1     110.554 126.686 141.854  0.00  0.00    +0.000 OA
ATOM     50  O   UNL     1     110.924 129.460 142.430  0.00  0.00    +0.000 OA
ATOM     51  C   UNL     1     110.739 128.073 142.142  0.00  0.00    +0.000 C 
ATOM     52  C   UNL     1     110.986 127.383 141.764  0.00  0.00    +0.000 C 
ATOM     53  C   UNL     1     111.171 128.770 142.052  0.00  0.00    +0.000 C 
ATOM     54  C   UNL     1     111.666 127.389 141.296  0.00  0.00    +0.000 C 
ATOM     55  C   UNL     1     111.850 128.777 141.584  0.00  0.00    +0.000 C 
BRANCH  54  57
ATOM     56  O   UNL     1     112.675 126.410 141.044  0.00  0.00    +0.000 OA
ATOM     57  C   UNL     1     111.913 126.699 140.918  0.00  0.00    +0.000 C 
ENDBRANCH  54  57
ENDBRANCH  46  55
ENDBRANCH   7  46
TORSDOF 11
ENDMDL
MODEL 3
REMARK VINA RESULT:     -10.2      1.589      3.106
REMARK  Name = 44259494
REMARK  11 active torsions:
REMARK  status: ('A' for Active; 'I' for Inactive)
REMARK    1  A    between atoms: O_2  and  C_28
REMARK    2  A    between atoms: O_2  and  C_32
REMARK    3  A    between atoms: O_5  and  C_30
REMARK    4  A    between atoms: O_5  and  C_41
REMARK    5  A    between atoms: O_12  and  C_38
REMARK    6  A    between atoms: O_12  and  C_44
REMARK    7  A    between atoms: O_20  and  C_53
REMARK    8  A    between atoms: O_21  and  C_54
REMARK    9  A    between atoms: C_23  and  C_32
REMARK   10  A    between atoms: C_37  and  C_40
REMARK   11  A    between atoms: C_42  and  C_50
REMARK                            x       y       z     vdW  Elec       q    Type
REMARK                         _______ _______ _______ _____ _____    ______ ____
ROOT
ATOM      1  O   UNL     1     111.900 128.710 137.733  0.00  0.00    +0.000 OA
ATOM      2  O   UNL     1     109.938 129.968 136.901  0.00  0.00    +0.000 OA
ATOM      3  O   UNL     1     109.103 128.796 137.012  0.00  0.00    +0.000 OA
ATOM      4  C   UNL     1     111.320 129.926 137.256  0.00  0.00    +0.000 A 
ATOM      5  C   UNL     1     111.975 129.507 137.534  0.00  0.00    +0.000 A 
ATOM      6  C   UNL     1     110.592 129.548 137.178  0.00  0.00    +0.000 A 
ATOM      7  C   UNL     1     110.349 127.101 137.785  0.00  0.00    +0.000 A 
ATOM      8  C   UNL     1     110.516 128.751 137.377  0.00  0.00    +0.000 A 
ATOM      9  C   UNL     1     111.171 128.332 137.654  0.00  0.00    +0.000 A 
ATOM     10  C   UNL     1     111.106 127.502 137.864  0.00  0.00    +0.000 A 
ATOM     11  C   UNL     1     109.667 127.538 137.496  0.00  0.00    +0.000 A 
ATOM     12  C   UNL     1     109.752 128.369 137.290  0.00  0.00    +0.000 A 
ENDROOT
BRANCH   5  14
ATOM     13  O   UNL     1     114.893 131.017 137.846  0.00  0.00    +0.000 OA
ATOM     14  C   UNL     1     112.704 129.885 137.612  0.00  0.00    +0.000 A 
ATOM     15  C   UNL     1     113.169 130.025 136.945  0.00  0.00    +0.000 A 
ATOM     16  C   UNL     1     112.968 130.122 138.357  0.00  0.00    +0.000 A 
ATOM     17  C   UNL     1     113.698 130.499 138.435  0.00  0.00    +0.000 A 
ATOM     18  C   UNL     1     113.899 130.402 137.024  0.00  0.00    +0.000 A 
ATOM     19  C   UNL     1     114.163 130.639 137.769  0.00  0.00    +0.000 A 
BRANCH  17  20
ATOM     20  O   UNL     1     113.962 130.736 139.179  0.00  0.00    +0.000 OA
ATOM     21  C   UNL     1     113.867 130.236 139.830  0.00  0.00    +0.000 C 
ENDBRANCH  17  20
BRANCH  18  22
ATOM     22  O   UNL     1     114.364 130.543 136.356  0.00  0.00    +0.000 OA
ATOM     23  C   UNL     1     114.496 129.938 135.811  0.00  0.00    +0.000 C 
ENDBRANCH  18  22
ENDBRANCH   5  14
BRANCH   4  24
ATOM     24  O   UNL     1     111.395 130.723 137.058  0.00  0.00    +0.000 OA
BRANCH  24  33
ATOM     25  O   UNL     1     110.686 131.154 138.221  0.00  0.00    +0.000 OA
ATOM     26  O   UNL     1     109.577 132.991 138.621  0.00  0.00    +0.000 OA
ATOM     27  O   UNL     1     110.087 133.264 137.075  0.00  0.00    +0.000 OA
ATOM     28  O   UNL     1     110.996 132.130 136.294  0.00  0.00    +0.000 OA
ATOM     29  C   UNL     1     110.231 131.721 138.612  0.00  0.00    +0.000 C 
ATOM     30  C   UNL     1     110.032 132.424 138.230  0.00  0.00    +0.000 C 
ATOM     31  C   UNL     1     110.286 132.561 137.457  0.00  0.00    +0.000 C 
ATOM     32  C   UNL     1     110.741 131.994 137.066  0.00  0.00    +0.000 C 
ATOM     33  C   UNL     1     110.941 131.290 137.449  0.00  0.00    +0.000 C 
BRANCH  29  34
ATOM     34  C   UNL     1     109.977 131.584 139.384  0.00  0.00    +0.000 C 
BRANCH  34  35
ATOM     35  O   UNL     1     110.528 131.428 139.978  0.00  0.00    +0.000 OA
BRANCH  35  41
ATOM     36  O   UNL     1     109.855 130.289 140.517  0.00  0.00    +0.000 OA
ATOM     37  O   UNL     1     111.023 131.852 141.494  0.00  0.00    +0.000 OA
ATOM     38  O   UNL     1     110.597 130.925 142.790  0.00  0.00    +0.000 OA
ATOM     39  O   UNL     1     109.677 129.573 142.571  0.00  0.00    +0.000 OA
ATOM     40  C   UNL     1     110.562 131.176 141.385  0.00  0.00    +0.000 C 
ATOM     41  C   UNL     1     110.315 130.964 140.627  0.00  0.00    +0.000 C 
ATOM     42  C   UNL     1     110.350 130.713 142.032  0.00  0.00    +0.000 C 
ATOM     43  C   UNL     1     109.890 130.036 141.923  0.00  0.00    +0.000 C 
ATOM     44  C   UNL     1     109.642 129.824 141.166  0.00  0.00    +0.000 C 
ATOM     45  C   UNL     1     109.182 129.149 141.055  0.00  0.00    +0.000 C 
ENDBRANCH  35  41
ENDBRANCH  34  35
ENDBRANCH  29  34
ENDBRANCH  24  33
ENDBRANCH   4  24
BRANCH   7  46
ATOM     46  O   UNL     1     110.277 126.304 137.984  0.00  0.00    +0.000 OA
BRANCH  46  55
ATOM     47  O   UNL     1     110.573 125.753 136.700  0.00  0.00    +0.000 OA
ATOM     48  O   UNL     1     111.886 123.951 137.775  0.00  0.00    +0.000 OA
ATOM     49  O   UNL     1     111.743 124.001 136.131  0.00  0.00    +0.000 OA
ATOM     50  O   UNL     1     111.153 125.103 138.701  0.00  0.00    +0.000 OA
ATOM     51  C   UNL     1     111.448 124.552 137.416  0.00  0.00    +0.000 C 
ATOM     52  C   UNL     1     111.377 124.577 136.594  0.00  0.00    +0.000 C 
ATOM     53  C   UNL     1     111.082 125.128 137.879  0.00  0.00    +0.000 C 
ATOM     54  C   UNL     1     110.939 125.178 136.236  0.00  0.00    +0.000 C 
ATOM     55  C   UNL     1     110.644 125.728 137.521  0.00  0.00    +0.000 C 
BRANCH  54  57
ATOM     56  O   UNL     1     110.137 125.366 135.069  0.00  0.00    +0.000 OA
ATOM     57  C   UNL     1     110.868 125.202 135.414  0.00  0.00    +0.000 C 
ENDBRANCH  54  57
ENDBRANCH  46  55
ENDBRANCH   7  46
TORSDOF 11
ENDMDL
MODEL 4
REMARK VINA RESULT:     -10.2      1.900      5.952
REMARK  Name = 44259494
REMARK  11 active torsions:
REMARK  status: ('A' for Active; 'I' for Inactive)
REMARK    1  A    between atoms: O_2  and  C_28
REMARK    2  A    between atoms: O_2  and  C_32
REMARK    3  A    between atoms: O_5  and  C_30
REMARK    4  A    between atoms: O_5  and  C_41
REMARK    5  A    between atoms: O_12  and  C_38
REMARK    6  A    between atoms: O_12  and  C_44
REMARK    7  A    between atoms: O_20  and  C_53
REMARK    8  A    between atoms: O_21  and  C_54
REMARK    9  A    between atoms: C_23  and  C_32
REMARK   10  A    between atoms: C_37  and  C_40
REMARK   11  A    between atoms: C_42  and  C_50
REMARK                            x       y       z     vdW  Elec       q    Type
REMARK                         _______ _______ _______ _____ _____    ______ ____
ROOT
ATOM      1  O   UNL     1     111.681 125.902 138.947  0.00  0.00    +0.000 OA
ATOM      2  O   UNL     1     109.637 126.955 138.031  0.00  0.00    +0.000 OA
ATOM      3  O   UNL     1     109.336 127.551 139.310  0.00  0.00    +0.000 OA
ATOM      4  C   UNL     1     110.796 126.140 137.851  0.00  0.00    +0.000 A 
ATOM      5  C   UNL     1     111.478 125.789 138.156  0.00  0.00    +0.000 A 
ATOM      6  C   UNL     1     110.319 126.604 138.336  0.00  0.00    +0.000 A 
ATOM      7  C   UNL     1     110.932 126.960 140.768  0.00  0.00    +0.000 A 
ATOM      8  C   UNL     1     110.521 126.718 139.128  0.00  0.00    +0.000 A 
ATOM      9  C   UNL     1     111.203 126.367 139.434  0.00  0.00    +0.000 A 
ATOM     10  C   UNL     1     111.425 126.478 140.256  0.00  0.00    +0.000 A 
ATOM     11  C   UNL     1     110.221 127.326 140.449  0.00  0.00    +0.000 A 
ATOM     12  C   UNL     1     110.015 127.204 139.624  0.00  0.00    +0.000 A 
ENDROOT
BRANCH   5  14
ATOM     13  O   UNL     1     113.391 123.928 136.215  0.00  0.00    +0.000 OA
ATOM     14  C   UNL     1     111.956 125.324 137.671  0.00  0.00    +0.000 A 
ATOM     15  C   UNL     1     111.729 124.552 137.485  0.00  0.00    +0.000 A 
ATOM     16  C   UNL     1     112.661 125.630 137.371  0.00  0.00    +0.000 A 
ATOM     17  C   UNL     1     113.139 125.165 136.885  0.00  0.00    +0.000 A 
ATOM     18  C   UNL     1     112.208 124.088 137.000  0.00  0.00    +0.000 A 
ATOM     19  C   UNL     1     112.913 124.394 136.700  0.00  0.00    +0.000 A 
BRANCH  17  20
ATOM     20  O   UNL     1     113.844 125.471 136.586  0.00  0.00    +0.000 OA
ATOM     21  C   UNL     1     114.259 126.044 137.011  0.00  0.00    +0.000 C 
ENDBRANCH  17  20
BRANCH  18  22
ATOM     22  O   UNL     1     111.981 123.316 136.814  0.00  0.00    +0.000 OA
ATOM     23  C   UNL     1     111.835 122.772 137.417  0.00  0.00    +0.000 C 
ENDBRANCH  18  22
ENDBRANCH   5  14
BRANCH   4  24
ATOM     24  O   UNL     1     110.594 126.026 137.060  0.00  0.00    +0.000 OA
BRANCH  24  33
ATOM     25  O   UNL     1     111.063 127.306 136.631  0.00  0.00    +0.000 OA
ATOM     26  O   UNL     1     110.379 128.614 135.023  0.00  0.00    +0.000 OA
ATOM     27  O   UNL     1     109.333 127.348 134.862  0.00  0.00    +0.000 OA
ATOM     28  O   UNL     1     109.440 126.054 135.880  0.00  0.00    +0.000 OA
ATOM     29  C   UNL     1     111.009 127.953 136.122  0.00  0.00    +0.000 C 
ATOM     30  C   UNL     1     110.433 127.967 135.532  0.00  0.00    +0.000 C 
ATOM     31  C   UNL     1     109.909 127.334 135.451  0.00  0.00    +0.000 C 
ATOM     32  C   UNL     1     109.963 126.687 135.960  0.00  0.00    +0.000 C 
ATOM     33  C   UNL     1     110.540 126.673 136.551  0.00  0.00    +0.000 C 
BRANCH  29  34
ATOM     34  C   UNL     1     111.532 128.585 136.202  0.00  0.00    +0.000 C 
BRANCH  34  35
ATOM     35  O   UNL     1     111.604 128.970 136.928  0.00  0.00    +0.000 OA
BRANCH  35  41
ATOM     36  O   UNL     1     112.898 129.456 136.565  0.00  0.00    +0.000 OA
ATOM     37  O   UNL     1     111.574 130.009 138.210  0.00  0.00    +0.000 OA
ATOM     38  O   UNL     1     112.853 131.014 138.487  0.00  0.00    +0.000 OA
ATOM     39  O   UNL     1     114.162 130.981 137.482  0.00  0.00    +0.000 OA
ATOM     40  C   UNL     1     112.229 129.993 137.708  0.00  0.00    +0.000 C 
ATOM     41  C   UNL     1     112.244 129.473 137.067  0.00  0.00    +0.000 C 
ATOM     42  C   UNL     1     112.868 130.495 137.846  0.00  0.00    +0.000 C 
ATOM     43  C   UNL     1     113.523 130.479 137.344  0.00  0.00    +0.000 C 
ATOM     44  C   UNL     1     113.537 129.959 136.703  0.00  0.00    +0.000 C 
ATOM     45  C   UNL     1     114.191 129.942 136.201  0.00  0.00    +0.000 C 
ENDBRANCH  35  41
ENDBRANCH  34  35
ENDBRANCH  29  34
ENDBRANCH  24  33
ENDBRANCH   4  24
BRANCH   7  46
ATOM     46  O   UNL     1     111.137 127.073 141.559  0.00  0.00    +0.000 OA
BRANCH  46  55
ATOM     47  O   UNL     1     112.149 128.067 141.391  0.00  0.00    +0.000 OA
ATOM     48  O   UNL     1     111.241 129.318 143.324  0.00  0.00    +0.000 OA
ATOM     49  O   UNL     1     112.556 129.896 142.510  0.00  0.00    +0.000 OA
ATOM     50  O   UNL     1     110.532 127.906 142.848  0.00  0.00    +0.000 OA
ATOM     51  C   UNL     1     111.544 128.901 142.679  0.00  0.00    +0.000 C 
ATOM     52  C   UNL     1     112.201 129.190 142.272  0.00  0.00    +0.000 C 
ATOM     53  C   UNL     1     111.189 128.195 142.441  0.00  0.00    +0.000 C 
ATOM     54  C   UNL     1     112.504 128.773 141.628  0.00  0.00    +0.000 C 
ATOM     55  C   UNL     1     111.492 127.778 141.797  0.00  0.00    +0.000 C 
BRANCH  54  57
ATOM     56  O   UNL     1     113.810 128.570 141.085  0.00  0.00    +0.000 OA
ATOM     57  C   UNL     1     113.161 129.062 141.222  0.00  0.00    +0.000 C 
ENDBRANCH  54  57
ENDBRANCH  46  55
ENDBRANCH   7  46
TORSDOF 11
ENDMDL
MODEL 5
REMARK VINA RESULT:     -10.2      1.702      3.517
REMARK  Name = 44259494
REMARK  11 active torsions:
REMARK  status: ('A' for Active; 'I' for Inactive)
REMARK    1  A    between atoms: O_2  and  C_28
REMARK    2  A    between atoms: O_2  and  C_32
REMARK    3  A    between atoms: O_5  and  C_30
REMARK    4  A    between atoms: O_5  and  C_41
REMARK    5  A    between atoms: O_12  and  C_38
REMARK    6  A    between atoms: O_12  and  C_44
REMARK    7  A    between atoms: O_20  and  C_53
REMARK    8  A    between atoms: O_21  and  C_54
REMARK    9  A    between atoms: C_23  and  C_32
REMARK   10  A    between atoms: C_37  and  C_40
REMARK   11  A    between atoms: C_42  and  C_50
REMARK                            x       y       z     vdW  Elec       q    Type
REMARK                         _______ _______ _______ _____ _____    ______ ____
ROOT
ATOM      1  O   UNL     1     110.759 129.022 136.733  0.00  0.00    +0.000 OA
ATOM      2  O   UNL     1     109.202 128.331 138.528  0.00  0.00    +0.000 OA
ATOM      3  O   UNL     1     109.335 126.945 138.150  0.00  0.00    +0.000 OA
ATOM      4  C   UNL     1     109.905 129.358 137.828  0.00  0.00    +0.000 A 
ATOM      5  C   UNL     1     110.424 129.588 137.230  0.00  0.00    +0.000 A 
ATOM      6  C   UNL     1     109.721 128.561 137.930  0.00  0.00    +0.000 A 
ATOM      7  C   UNL     1     110.741 126.810 136.411  0.00  0.00    +0.000 A 
ATOM      8  C   UNL     1     110.055 127.993 137.433  0.00  0.00    +0.000 A 
ATOM      9  C   UNL     1     110.574 128.223 136.835  0.00  0.00    +0.000 A 
ATOM     10  C   UNL     1     110.929 127.642 136.311  0.00  0.00    +0.000 A 
ATOM     11  C   UNL     1     110.200 126.570 137.035  0.00  0.00    +0.000 A 
ATOM     12  C   UNL     1     109.855 127.166 137.549  0.00  0.00    +0.000 A 
ENDROOT
BRANCH   5  14
ATOM     13  O   UNL     1     111.167 132.778 136.822  0.00  0.00    +0.000 OA
ATOM     14  C   UNL     1     110.610 130.386 137.127  0.00  0.00    +0.000 A 
ATOM     15  C   UNL     1     111.351 130.669 137.355  0.00  0.00    +0.000 A 
ATOM     16  C   UNL     1     110.055 130.900 136.798  0.00  0.00    +0.000 A 
ATOM     17  C   UNL     1     110.241 131.697 136.696  0.00  0.00    +0.000 A 
ATOM     18  C   UNL     1     111.536 131.466 137.253  0.00  0.00    +0.000 A 
ATOM     19  C   UNL     1     110.981 131.980 136.924  0.00  0.00    +0.000 A 
BRANCH  17  20
ATOM     20  O   UNL     1     109.686 132.211 136.367  0.00  0.00    +0.000 OA
ATOM     21  C   UNL     1     109.288 132.000 135.674  0.00  0.00    +0.000 C 
ENDBRANCH  17  20
BRANCH  18  22
ATOM     22  O   UNL     1     112.277 131.750 137.481  0.00  0.00    +0.000 OA
ATOM     23  C   UNL     1     112.960 131.340 137.266  0.00  0.00    +0.000 C 
ENDBRANCH  18  22
ENDBRANCH   5  14
BRANCH   4  24
ATOM     24  O   UNL     1     109.571 129.925 138.325  0.00  0.00    +0.000 OA
BRANCH  24  33
ATOM     25  O   UNL     1     110.403 129.616 139.445  0.00  0.00    +0.000 OA
ATOM     26  O   UNL     1     110.010 129.725 141.589  0.00  0.00    +0.000 OA
ATOM     27  O   UNL     1     108.567 130.243 140.981  0.00  0.00    +0.000 OA
ATOM     28  O   UNL     1     108.347 130.343 139.349  0.00  0.00    +0.000 OA
ATOM     29  C   UNL     1     110.512 129.566 140.261  0.00  0.00    +0.000 C 
ATOM     30  C   UNL     1     109.901 129.775 140.773  0.00  0.00    +0.000 C 
ATOM     31  C   UNL     1     109.178 130.034 140.470  0.00  0.00    +0.000 C 
ATOM     32  C   UNL     1     109.069 130.084 139.653  0.00  0.00    +0.000 C 
ATOM     33  C   UNL     1     109.681 129.875 139.141  0.00  0.00    +0.000 C 
BRANCH  29  34
ATOM     34  C   UNL     1     111.234 129.307 140.565  0.00  0.00    +0.000 C 
BRANCH  34  35
ATOM     35  O   UNL     1     111.931 129.701 140.364  0.00  0.00    +0.000 OA
BRANCH  35  41
ATOM     36  O   UNL     1     112.713 128.511 140.482  0.00  0.00    +0.000 OA
ATOM     37  O   UNL     1     113.285 130.614 140.599  0.00  0.00    +0.000 OA
ATOM     38  O   UNL     1     114.744 129.880 140.834  0.00  0.00    +0.000 OA
ATOM     39  O   UNL     1     114.849 128.234 140.835  0.00  0.00    +0.000 OA
ATOM     40  C   UNL     1     113.338 129.791 140.599  0.00  0.00    +0.000 C 
ATOM     41  C   UNL     1     112.661 129.334 140.482  0.00  0.00    +0.000 C 
ATOM     42  C   UNL     1     114.067 129.424 140.717  0.00  0.00    +0.000 C 
ATOM     43  C   UNL     1     114.120 128.600 140.718  0.00  0.00    +0.000 C 
ATOM     44  C   UNL     1     113.443 128.144 140.600  0.00  0.00    +0.000 C 
ATOM     45  C   UNL     1     113.495 127.321 140.601  0.00  0.00    +0.000 C 
ENDBRANCH  35  41
ENDBRANCH  34  35
ENDBRANCH  29  34
ENDBRANCH  24  33
ENDBRANCH   4  24
BRANCH   7  46
ATOM     46  O   UNL     1     111.077 126.244 135.913  0.00  0.00    +0.000 OA
BRANCH  46  55
ATOM     47  O   UNL     1     112.328 126.035 136.571  0.00  0.00    +0.000 OA
ATOM     48  O   UNL     1     112.046 123.588 136.328  0.00  0.00    +0.000 OA
ATOM     49  O   UNL     1     113.392 124.195 137.067  0.00  0.00    +0.000 OA
ATOM     50  O   UNL     1     110.889 124.613 135.751  0.00  0.00    +0.000 OA
ATOM     51  C   UNL     1     112.140 124.404 136.409  0.00  0.00    +0.000 C 
ATOM     52  C   UNL     1     112.813 124.708 136.778  0.00  0.00    +0.000 C 
ATOM     53  C   UNL     1     111.562 124.916 136.120  0.00  0.00    +0.000 C 
ATOM     54  C   UNL     1     112.907 125.523 136.859  0.00  0.00    +0.000 C 
ATOM     55  C   UNL     1     111.655 125.732 136.201  0.00  0.00    +0.000 C 
BRANCH  54  57
ATOM     56  O   UNL     1     114.006 126.436 136.871  0.00  0.00    +0.000 OA
ATOM     57  C   UNL     1     113.579 125.827 137.228  0.00  0.00    +0.000 C 
ENDBRANCH  54  57
ENDBRANCH  46  55
ENDBRANCH   7  46
TORSDOF 11
ENDMDL
MODEL 6
REMARK VINA RESULT:     -10.1      1.775      3.586
REMARK  Name = 44259494
REMARK  11 active torsions:
REMARK  status: ('A' for Active; 'I' for Inactive)
REMARK    1  A    between atoms: O_2  and  C_28
REMARK    2  A    between atoms: O_2  and  C_32
REMARK    3  A    between atoms: O_5  and  C_30
REMARK    4  A    between atoms: O_5  and  C_41
REMARK    5  A    between atoms: O_12  and  C_38
REMARK    6  A    between atoms: O_12  and  C_44
REMARK    7  A    between atoms: O_20  and  C_53
REMARK    8  A    between atoms: O_21  and  C_54
REMARK    9  A    between atoms: C_23  and  C_32
REMARK   10  A    between atoms: C_37  and  C_40
REMARK   11  A    between atoms: C_42  and  C_50
REMARK                            x       y       z     vdW  Elec       q    Type
REMARK                         _______ _______ _______ _____ _____    ______ ____
ROOT
ATOM      1  O   UNL     1     113.057 128.540 138.553  0.00  0.00    +0.000 OA
ATOM      2  O   UNL     1     111.266 129.776 137.373  0.00  0.00    +0.000 OA
ATOM      3  O   UNL     1     111.369 128.896 136.234  0.00  0.00    +0.000 OA
ATOM      4  C   UNL     1     112.099 129.600 138.520  0.00  0.00    +0.000 A 
ATOM      5  C   UNL     1     112.696 129.188 138.913  0.00  0.00    +0.000 A 
ATOM      6  C   UNL     1     111.863 129.364 137.767  0.00  0.00    +0.000 A 
ATOM      7  C   UNL     1     112.961 127.374 136.649  0.00  0.00    +0.000 A 
ATOM      8  C   UNL     1     112.223 128.715 137.405  0.00  0.00    +0.000 A 
ATOM      9  C   UNL     1     112.819 128.303 137.799  0.00  0.00    +0.000 A 
ATOM     10  C   UNL     1     113.202 127.626 137.434  0.00  0.00    +0.000 A 
ATOM     11  C   UNL     1     112.338 127.803 136.239  0.00  0.00    +0.000 A 
ATOM     12  C   UNL     1     111.967 128.478 136.620  0.00  0.00    +0.000 A 
ENDROOT
BRANCH   5  14
ATOM     13  O   UNL     1     113.647 130.135 141.928  0.00  0.00    +0.000 OA
ATOM     14  C   UNL     1     112.933 129.425 139.667  0.00  0.00    +0.000 A 
ATOM     15  C   UNL     1     113.425 130.082 139.757  0.00  0.00    +0.000 A 
ATOM     16  C   UNL     1     112.680 129.005 140.331  0.00  0.00    +0.000 A 
ATOM     17  C   UNL     1     112.918 129.242 141.084  0.00  0.00    +0.000 A 
ATOM     18  C   UNL     1     113.662 130.318 140.511  0.00  0.00    +0.000 A 
ATOM     19  C   UNL     1     113.409 129.898 141.175  0.00  0.00    +0.000 A 
BRANCH  17  20
ATOM     20  O   UNL     1     112.664 128.822 141.748  0.00  0.00    +0.000 OA
ATOM     21  C   UNL     1     112.646 127.997 141.732  0.00  0.00    +0.000 C 
ENDBRANCH  17  20
BRANCH  18  22
ATOM     22  O   UNL     1     114.154 130.975 140.602  0.00  0.00    +0.000 OA
ATOM     23  C   UNL     1     114.918 130.964 140.291  0.00  0.00    +0.000 C 
ENDBRANCH  18  22
ENDBRANCH   5  14
BRANCH   4  24
ATOM     24  O   UNL     1     111.740 130.248 138.881  0.00  0.00    +0.000 OA
BRANCH  24  33
ATOM     25  O   UNL     1     110.541 129.559 139.240  0.00  0.00    +0.000 OA
ATOM     26  O   UNL     1     108.478 130.257 139.383  0.00  0.00    +0.000 OA
ATOM     27  O   UNL     1     109.244 131.641 138.915  0.00  0.00    +0.000 OA
ATOM     28  O   UNL     1     110.875 131.637 138.664  0.00  0.00    +0.000 OA
ATOM     29  C   UNL     1     109.725 129.561 139.366  0.00  0.00    +0.000 C 
ATOM     30  C   UNL     1     109.293 130.255 139.258  0.00  0.00    +0.000 C 
ATOM     31  C   UNL     1     109.676 130.947 139.023  0.00  0.00    +0.000 C 
ATOM     32  C   UNL     1     110.491 130.945 138.898  0.00  0.00    +0.000 C 
ATOM     33  C   UNL     1     110.924 130.251 139.006  0.00  0.00    +0.000 C 
BRANCH  29  34
ATOM     34  C   UNL     1     109.343 128.869 139.600  0.00  0.00    +0.000 C 
BRANCH  34  35
ATOM     35  O   UNL     1     109.436 128.586 140.369  0.00  0.00    +0.000 OA
BRANCH  35  41
ATOM     36  O   UNL     1     109.574 127.219 139.979  0.00  0.00    +0.000 OA
ATOM     37  O   UNL     1     108.746 128.111 141.790  0.00  0.00    +0.000 OA
ATOM     38  O   UNL     1     108.538 126.505 142.110  0.00  0.00    +0.000 OA
ATOM     39  O   UNL     1     109.021 125.375 141.009  0.00  0.00    +0.000 OA
ATOM     40  C   UNL     1     108.987 127.545 141.240  0.00  0.00    +0.000 C 
ATOM     41  C   UNL     1     109.332 127.783 140.530  0.00  0.00    +0.000 C 
ATOM     42  C   UNL     1     108.883 126.743 141.400  0.00  0.00    +0.000 C 
ATOM     43  C   UNL     1     109.125 126.177 140.849  0.00  0.00    +0.000 C 
ATOM     44  C   UNL     1     109.470 126.415 140.139  0.00  0.00    +0.000 C 
ATOM     45  C   UNL     1     109.712 125.851 139.588  0.00  0.00    +0.000 C 
ENDBRANCH  35  41
ENDBRANCH  34  35
ENDBRANCH  29  34
ENDBRANCH  24  33
ENDBRANCH   4  24
BRANCH   7  46
ATOM     46  O   UNL     1     113.322 126.724 136.290  0.00  0.00    +0.000 OA
BRANCH  46  55
ATOM     47  O   UNL     1     112.260 125.770 136.347  0.00  0.00    +0.000 OA
ATOM     48  O   UNL     1     113.847 124.053 137.161  0.00  0.00    +0.000 OA
ATOM     49  O   UNL     1     112.255 123.671 136.946  0.00  0.00    +0.000 OA
ATOM     50  O   UNL     1     114.380 125.580 136.833  0.00  0.00    +0.000 OA
ATOM     51  C   UNL     1     113.318 124.625 136.889  0.00  0.00    +0.000 C 
ATOM     52  C   UNL     1     112.522 124.435 136.782  0.00  0.00    +0.000 C 
ATOM     53  C   UNL     1     113.584 125.389 136.726  0.00  0.00    +0.000 C 
ATOM     54  C   UNL     1     111.993 125.007 136.510  0.00  0.00    +0.000 C 
ATOM     55  C   UNL     1     113.056 125.961 136.454  0.00  0.00    +0.000 C 
BRANCH  54  57
ATOM     56  O   UNL     1     110.823 125.000 135.691  0.00  0.00    +0.000 OA
ATOM     57  C   UNL     1     111.198 124.816 136.403  0.00  0.00    +0.000 C 
ENDBRANCH  54  57
ENDBRANCH  46  55
ENDBRANCH   7  46
TORSDOF 11
ENDMDL
MODEL 7
REMARK VINA RESULT:     -10.1      1.964      5.349
REMARK  Name = 44259494
REMARK  11 active torsions:
REMARK  status: ('A' for Active; 'I' for Inactive)
REMARK    1  A    between atoms: O_2  and  C_28
REMARK    2  A    between atoms: O_2  and  C_32
REMARK    3  A    between atoms: O_5  and  C_30
REMARK    4  A    between atoms: O_5  and  C_41
REMARK    5  A    between atoms: O_12  and  C_38
REMARK    6  A    between atoms: O_12  and  C_44
REMARK    7  A    between atoms: O_20  and  C_53
REMARK    8  A    between atoms: O_21  and  C_54
REMARK    9  A    between atoms: C_23  and  C_32
REMARK   10  A    between atoms: C_37  and  C_40
REMARK   11  A    between atoms: C_42  and  C_50
REMARK                            x       y       z     vdW  Elec       q    Type
REMARK                         _______ _______ _______ _____ _____    ______ ____
ROOT
ATOM      1  O   UNL     1     113.287 129.726 137.968  0.00  0.00    +0.000 OA
ATOM      2  O   UNL     1     110.950 130.417 137.535  0.00  0.00    +0.000 OA
ATOM      3  O   UNL     1     110.718 130.622 138.944  0.00  0.00    +0.000 OA
ATOM      4  C   UNL     1     112.219 129.974 137.051  0.00  0.00    +0.000 A 
ATOM      5  C   UNL     1     112.998 129.744 137.196  0.00  0.00    +0.000 A 
ATOM      6  C   UNL     1     111.729 130.187 137.679  0.00  0.00    +0.000 A 
ATOM      7  C   UNL     1     112.602 130.136 140.056  0.00  0.00    +0.000 A 
ATOM      8  C   UNL     1     112.017 130.169 138.452  0.00  0.00    +0.000 A 
ATOM      9  C   UNL     1     112.795 129.939 138.597  0.00  0.00    +0.000 A 
ATOM     10  C   UNL     1     113.107 129.916 139.397  0.00  0.00    +0.000 A 
ATOM     11  C   UNL     1     111.790 130.376 139.905  0.00  0.00    +0.000 A 
ATOM     12  C   UNL     1     111.496 130.393 139.098  0.00  0.00    +0.000 A 
ENDROOT
BRANCH   5  14
ATOM     13  O   UNL     1     114.963 128.895 134.684  0.00  0.00    +0.000 OA
ATOM     14  C   UNL     1     113.489 129.531 136.568  0.00  0.00    +0.000 A 
ATOM     15  C   UNL     1     113.835 130.116 136.099  0.00  0.00    +0.000 A 
ATOM     16  C   UNL     1     113.634 128.735 136.409  0.00  0.00    +0.000 A 
ATOM     17  C   UNL     1     114.126 128.523 135.781  0.00  0.00    +0.000 A 
ATOM     18  C   UNL     1     114.326 129.903 135.471  0.00  0.00    +0.000 A 
ATOM     19  C   UNL     1     114.471 129.107 135.312  0.00  0.00    +0.000 A 
BRANCH  17  20
ATOM     20  O   UNL     1     114.271 127.727 135.621  0.00  0.00    +0.000 OA
ATOM     21  C   UNL     1     114.311 127.183 136.241  0.00  0.00    +0.000 C 
ENDBRANCH  17  20
BRANCH  18  22
ATOM     22  O   UNL     1     114.672 130.488 135.002  0.00  0.00    +0.000 OA
ATOM     23  C   UNL     1     115.141 131.072 135.350  0.00  0.00    +0.000 C 
ENDBRANCH  18  22
ENDBRANCH   5  14
BRANCH   4  24
ATOM     24  O   UNL     1     111.931 129.992 136.279  0.00  0.00    +0.000 OA
BRANCH  24  33
ATOM     25  O   UNL     1     111.210 128.759 136.330  0.00  0.00    +0.000 OA
ATOM     26  O   UNL     1     109.293 128.187 135.460  0.00  0.00    +0.000 OA
ATOM     27  O   UNL     1     109.414 129.751 134.947  0.00  0.00    +0.000 OA
ATOM     28  O   UNL     1     110.733 130.653 135.357  0.00  0.00    +0.000 OA
ATOM     29  C   UNL     1     110.551 128.308 136.125  0.00  0.00    +0.000 C 
ATOM     30  C   UNL     1     109.952 128.639 135.665  0.00  0.00    +0.000 C 
ATOM     31  C   UNL     1     110.013 129.421 135.408  0.00  0.00    +0.000 C 
ATOM     32  C   UNL     1     110.672 129.872 135.613  0.00  0.00    +0.000 C 
ATOM     33  C   UNL     1     111.272 129.541 136.074  0.00  0.00    +0.000 C 
BRANCH  29  34
ATOM     34  C   UNL     1     110.490 127.527 136.382  0.00  0.00    +0.000 C 
BRANCH  34  35
ATOM     35  O   UNL     1     110.644 127.339 137.170  0.00  0.00    +0.000 OA
BRANCH  35  41
ATOM     36  O   UNL     1     111.067 126.023 136.808  0.00  0.00    +0.000 OA
ATOM     37  O   UNL     1     110.494 126.858 138.742  0.00  0.00    +0.000 OA
ATOM     38  O   UNL     1     110.843 125.302 139.165  0.00  0.00    +0.000 OA
ATOM     39  O   UNL     1     111.341 124.226 138.018  0.00  0.00    +0.000 OA
ATOM     40  C   UNL     1     110.743 126.320 138.168  0.00  0.00    +0.000 C 
ATOM     41  C   UNL     1     110.818 126.560 137.382  0.00  0.00    +0.000 C 
ATOM     42  C   UNL     1     110.918 125.542 138.380  0.00  0.00    +0.000 C 
ATOM     43  C   UNL     1     111.167 125.004 137.806  0.00  0.00    +0.000 C 
ATOM     44  C   UNL     1     111.242 125.244 137.020  0.00  0.00    +0.000 C 
ATOM     45  C   UNL     1     111.491 124.707 136.446  0.00  0.00    +0.000 C 
ENDBRANCH  35  41
ENDBRANCH  34  35
ENDBRANCH  29  34
ENDBRANCH  24  33
ENDBRANCH   4  24
BRANCH   7  46
ATOM     46  O   UNL     1     112.893 130.117 140.828  0.00  0.00    +0.000 OA
BRANCH  46  55
ATOM     47  O   UNL     1     112.519 128.784 141.183  0.00  0.00    +0.000 OA
ATOM     48  O   UNL     1     111.756 129.587 143.396  0.00  0.00    +0.000 OA
ATOM     49  O   UNL     1     111.636 127.986 143.012  0.00  0.00    +0.000 OA
ATOM     50  O   UNL     1     112.385 130.652 142.304  0.00  0.00    +0.000 OA
ATOM     51  C   UNL     1     112.010 129.320 142.658  0.00  0.00    +0.000 C 
ATOM     52  C   UNL     1     111.951 128.519 142.466  0.00  0.00    +0.000 C 
ATOM     53  C   UNL     1     112.324 129.852 142.112  0.00  0.00    +0.000 C 
ATOM     54  C   UNL     1     112.205 128.251 141.728  0.00  0.00    +0.000 C 
ATOM     55  C   UNL     1     112.579 129.584 141.374  0.00  0.00    +0.000 C 
BRANCH  54  57
ATOM     56  O   UNL     1     112.794 127.055 141.217  0.00  0.00    +0.000 OA
ATOM     57  C   UNL     1     112.145 127.451 141.537  0.00  0.00    +0.000 C 
ENDBRANCH  54  57
ENDBRANCH  46  55
ENDBRANCH   7  46
TORSDOF 11
ENDMDL
MODEL 8
REMARK VINA RESULT:     -10.1      1.790      5.540
REMARK  Name = 44259494
REMARK  11 active torsions:
REMARK  status: ('A' for Active; 'I' for Inactive)
REMARK    1  A    between atoms: O_2  and  C_28
REMARK    2  A    between atoms: O_2  and  C_32
REMARK    3  A    between atoms: O_5  and  C_30
REMARK    4  A    between atoms: O_5  and  C_41
REMARK    5  A    between atoms: O_12  and  C_38
REMARK    6  A    between atoms: O_12  and  C_44
REMARK    7  A    between atoms: O_20  and  C_53
REMARK    8  A    between atoms: O_21  and  C_54
REMARK    9  A    between atoms: C_23  and  C_32
REMARK   10  A    between atoms: C_37  and  C_40
REMARK   11  A    between atoms: C_42  and  C_50
REMARK                            x       y       z     vdW  Elec       q    Type
REMARK                         _______ _______ _______ _____ _____    ______ ____
ROOT
ATOM      1  O   UNL     1     111.177 130.075 138.762  0.00  0.00    +0.000 OA
ATOM      2  O   UNL     1     113.618 129.824 138.436  0.00  0.00    +0.000 OA
ATOM      3  O   UNL     1     113.756 129.205 139.733  0.00  0.00    +0.000 OA
ATOM      4  C   UNL     1     112.344 130.254 137.955  0.00  0.00    +0.000 A 
ATOM      5  C   UNL     1     111.530 130.338 138.064  0.00  0.00    +0.000 A 
ATOM      6  C   UNL     1     112.804 129.908 138.545  0.00  0.00    +0.000 A 
ATOM      7  C   UNL     1     111.734 129.097 140.692  0.00  0.00    +0.000 A 
ATOM      8  C   UNL     1     112.453 129.645 139.243  0.00  0.00    +0.000 A 
ATOM      9  C   UNL     1     111.639 129.728 139.352  0.00  0.00    +0.000 A 
ATOM     10  C   UNL     1     111.260 129.459 140.074  0.00  0.00    +0.000 A 
ATOM     11  C   UNL     1     112.582 129.009 140.579  0.00  0.00    +0.000 A 
ATOM     12  C   UNL     1     112.944 129.285 139.850  0.00  0.00    +0.000 A 
ENDROOT
BRANCH   5  14
ATOM     13  O   UNL     1     109.684 131.727 135.707  0.00  0.00    +0.000 OA
ATOM     14  C   UNL     1     111.069 130.685 137.475  0.00  0.00    +0.000 A 
ATOM     15  C   UNL     1     111.071 131.505 137.378  0.00  0.00    +0.000 A 
ATOM     16  C   UNL     1     110.605 130.213 136.982  0.00  0.00    +0.000 A 
ATOM     17  C   UNL     1     110.143 130.560 136.393  0.00  0.00    +0.000 A 
ATOM     18  C   UNL     1     110.609 131.851 136.789  0.00  0.00    +0.000 A 
ATOM     19  C   UNL     1     110.145 131.379 136.296  0.00  0.00    +0.000 A 
BRANCH  17  20
ATOM     20  O   UNL     1     109.680 130.088 135.900  0.00  0.00    +0.000 OA
ATOM     21  C   UNL     1     109.187 129.511 136.225  0.00  0.00    +0.000 C 
ENDBRANCH  17  20
BRANCH  18  22
ATOM     22  O   UNL     1     110.611 132.671 136.693  0.00  0.00    +0.000 OA
ATOM     23  C   UNL     1     110.447 133.163 137.335  0.00  0.00    +0.000 C 
ENDBRANCH  18  22
ENDBRANCH   5  14
BRANCH   4  24
ATOM     24  O   UNL     1     112.696 130.517 137.258  0.00  0.00    +0.000 OA
BRANCH  24  33
ATOM     25  O   UNL     1     112.901 129.201 136.740  0.00  0.00    +0.000 OA
ATOM     26  O   UNL     1     114.428 128.418 135.392  0.00  0.00    +0.000 OA
ATOM     27  O   UNL     1     114.884 130.000 135.494  0.00  0.00    +0.000 OA
ATOM     28  O   UNL     1     114.018 131.050 136.427  0.00  0.00    +0.000 OA
ATOM     29  C   UNL     1     113.334 128.676 136.273  0.00  0.00    +0.000 C 
ATOM     30  C   UNL     1     113.995 128.943 135.858  0.00  0.00    +0.000 C 
ATOM     31  C   UNL     1     114.224 129.734 135.909  0.00  0.00    +0.000 C 
ATOM     32  C   UNL     1     113.791 130.259 136.376  0.00  0.00    +0.000 C 
ATOM     33  C   UNL     1     113.129 129.992 136.791  0.00  0.00    +0.000 C 
BRANCH  29  34
ATOM     34  C   UNL     1     113.106 127.886 136.222  0.00  0.00    +0.000 C 
BRANCH  34  35
ATOM     35  O   UNL     1     112.320 127.693 136.064  0.00  0.00    +0.000 OA
BRANCH  35  41
ATOM     36  O   UNL     1     112.342 126.481 136.821  0.00  0.00    +0.000 OA
ATOM     37  O   UNL     1     111.200 127.036 135.046  0.00  0.00    +0.000 OA
ATOM     38  O   UNL     1     110.662 125.496 135.293  0.00  0.00    +0.000 OA
ATOM     39  O   UNL     1     111.245 124.612 136.559  0.00  0.00    +0.000 OA
ATOM     40  C   UNL     1     111.491 126.594 135.679  0.00  0.00    +0.000 C 
ATOM     41  C   UNL     1     112.051 126.922 136.188  0.00  0.00    +0.000 C 
ATOM     42  C   UNL     1     111.222 125.824 135.802  0.00  0.00    +0.000 C 
ATOM     43  C   UNL     1     111.513 125.382 136.435  0.00  0.00    +0.000 C 
ATOM     44  C   UNL     1     112.073 125.710 136.945  0.00  0.00    +0.000 C 
ATOM     45  C   UNL     1     112.364 125.269 137.578  0.00  0.00    +0.000 C 
ENDBRANCH  35  41
ENDBRANCH  34  35
ENDBRANCH  29  34
ENDBRANCH  24  33
ENDBRANCH   4  24
BRANCH   7  46
ATOM     46  O   UNL     1     111.379 128.835 141.389  0.00  0.00    +0.000 OA
BRANCH  46  55
ATOM     47  O   UNL     1     111.570 130.073 142.077  0.00  0.00    +0.000 OA
ATOM     48  O   UNL     1     111.681 128.860 144.232  0.00  0.00    +0.000 OA
ATOM     49  O   UNL     1     111.834 130.503 144.200  0.00  0.00    +0.000 OA
ATOM     50  O   UNL     1     111.453 128.026 142.826  0.00  0.00    +0.000 OA
ATOM     51  C   UNL     1     111.644 129.264 143.513  0.00  0.00    +0.000 C 
ATOM     52  C   UNL     1     111.720 130.086 143.497  0.00  0.00    +0.000 C 
ATOM     53  C   UNL     1     111.530 128.847 142.810  0.00  0.00    +0.000 C 
ATOM     54  C   UNL     1     111.683 130.490 142.779  0.00  0.00    +0.000 C 
ATOM     55  C   UNL     1     111.493 129.252 142.092  0.00  0.00    +0.000 C 
BRANCH  54  57
ATOM     56  O   UNL     1     111.209 131.769 142.353  0.00  0.00    +0.000 OA
ATOM     57  C   UNL     1     111.760 131.312 142.764  0.00  0.00    +0.000 C 
ENDBRANCH  54  57
ENDBRANCH  46  55
ENDBRANCH   7  46
TORSDOF 11
ENDMDL
MODEL 9
REMARK VINA RESULT:     -10.1      1.444      4.333
REMARK  Name = 44259494
REMARK  11 active torsions:
REMARK  status: ('A' for Active; 'I' for Inactive)
REMARK    1  A    between atoms: O_2  and  C_28
REMARK    2  A    between atoms: O_2  and  C_32
REMARK    3  A    between atoms: O_5  and  C_30
REMARK    4  A    between atoms: O_5  and  C_41
REMARK    5  A    between atoms: O_12  and  C_38
REMARK    6  A    between atoms: O_12  and  C_44
REMARK    7  A    between atoms: O_20  and  C_53
REMARK    8  A    between atoms: O_21  and  C_54
REMARK    9  A    between atoms: C_23  and  C_32
REMARK   10  A    between atoms: C_37  and  C_40
REMARK   11  A    between atoms: C_42  and  C_50
REMARK                            x       y       z     vdW  Elec       q    Type
REMARK                         _______ _______ _______ _____ _____    ______ ____
ROOT
ATOM      1  O   UNL     1     111.895 128.364 140.042  0.00  0.00    +0.000 OA
ATOM      2  O   UNL     1     109.996 129.311 138.768  0.00  0.00    +0.000 OA
ATOM      3  O   UNL     1     109.715 128.026 138.175  0.00  0.00    +0.000 OA
ATOM      4  C   UNL     1     111.073 129.480 139.691  0.00  0.00    +0.000 A 
ATOM      5  C   UNL     1     111.706 129.164 140.115  0.00  0.00    +0.000 A 
ATOM      6  C   UNL     1     110.629 128.996 139.192  0.00  0.00    +0.000 A 
ATOM      7  C   UNL     1     111.197 126.539 138.957  0.00  0.00    +0.000 A 
ATOM      8  C   UNL     1     110.817 128.196 139.118  0.00  0.00    +0.000 A 
ATOM      9  C   UNL     1     111.450 127.880 139.543  0.00  0.00    +0.000 A 
ATOM     10  C   UNL     1     111.656 127.049 139.474  0.00  0.00    +0.000 A 
ATOM     11  C   UNL     1     110.537 126.868 138.514  0.00  0.00    +0.000 A 
ATOM     12  C   UNL     1     110.346 127.702 138.596  0.00  0.00    +0.000 A 
ENDROOT
BRANCH   5  14
ATOM     13  O   UNL     1     113.484 131.098 142.112  0.00  0.00    +0.000 OA
ATOM     14  C   UNL     1     112.151 129.647 140.614  0.00  0.00    +0.000 A 
ATOM     15  C   UNL     1     111.863 129.844 141.362  0.00  0.00    +0.000 A 
ATOM     16  C   UNL     1     112.883 129.935 140.365  0.00  0.00    +0.000 A 
ATOM     17  C   UNL     1     113.327 130.418 140.865  0.00  0.00    +0.000 A 
ATOM     18  C   UNL     1     112.307 130.327 141.861  0.00  0.00    +0.000 A 
ATOM     19  C   UNL     1     113.040 130.615 141.612  0.00  0.00    +0.000 A 
BRANCH  17  20
ATOM     20  O   UNL     1     114.059 130.706 140.616  0.00  0.00    +0.000 OA
ATOM     21  C   UNL     1     114.590 130.205 140.231  0.00  0.00    +0.000 C 
ENDBRANCH  17  20
BRANCH  18  22
ATOM     22  O   UNL     1     112.019 130.524 142.609  0.00  0.00    +0.000 OA
ATOM     23  C   UNL     1     111.749 129.931 143.116  0.00  0.00    +0.000 C 
ENDBRANCH  18  22
ENDBRANCH   5  14
BRANCH   4  24
ATOM     24  O   UNL     1     110.885 130.279 139.765  0.00  0.00    +0.000 OA
BRANCH  24  33
ATOM     25  O   UNL     1     111.375 130.604 138.462  0.00  0.00    +0.000 OA
ATOM     26  O   UNL     1     110.837 132.216 137.094  0.00  0.00    +0.000 OA
ATOM     27  O   UNL     1     109.832 132.536 138.363  0.00  0.00    +0.000 OA
ATOM     28  O   UNL     1     109.856 131.567 139.698  0.00  0.00    +0.000 OA
ATOM     29  C   UNL     1     111.363 131.088 137.794  0.00  0.00    +0.000 C 
ATOM     30  C   UNL     1     110.849 131.732 137.761  0.00  0.00    +0.000 C 
ATOM     31  C   UNL     1     110.346 131.892 138.396  0.00  0.00    +0.000 C 
ATOM     32  C   UNL     1     110.358 131.408 139.063  0.00  0.00    +0.000 C 
ATOM     33  C   UNL     1     110.873 130.763 139.097  0.00  0.00    +0.000 C 
BRANCH  29  34
ATOM     34  C   UNL     1     111.865 130.928 137.160  0.00  0.00    +0.000 C 
BRANCH  34  35
ATOM     35  O   UNL     1     112.671 130.815 137.292  0.00  0.00    +0.000 OA
BRANCH  35  41
ATOM     36  O   UNL     1     112.791 129.660 136.459  0.00  0.00    +0.000 OA
ATOM     37  O   UNL     1     114.199 131.276 136.871  0.00  0.00    +0.000 OA
ATOM     38  O   UNL     1     115.082 130.352 135.828  0.00  0.00    +0.000 OA
ATOM     39  O   UNL     1     114.438 128.966 135.206  0.00  0.00    +0.000 OA
ATOM     40  C   UNL     1     113.877 130.583 136.560  0.00  0.00    +0.000 C 
ATOM     41  C   UNL     1     113.114 130.352 136.770  0.00  0.00    +0.000 C 
ATOM     42  C   UNL     1     114.319 130.121 136.039  0.00  0.00    +0.000 C 
ATOM     43  C   UNL     1     113.997 129.428 135.727  0.00  0.00    +0.000 C 
ATOM     44  C   UNL     1     113.234 129.197 135.938  0.00  0.00    +0.000 C 
ATOM     45  C   UNL     1     112.911 128.504 135.627  0.00  0.00    +0.000 C 
ENDBRANCH  35  41
ENDBRANCH  34  35
ENDBRANCH  29  34
ENDBRANCH  24  33
ENDBRANCH   4  24
BRANCH   7  46
ATOM     46  O   UNL     1     111.388 125.739 138.885  0.00  0.00    +0.000 OA
BRANCH  46  55
ATOM     47  O   UNL     1     112.678 125.752 138.270  0.00  0.00    +0.000 OA
ATOM     48  O   UNL     1     111.858 124.211 136.516  0.00  0.00    +0.000 OA
ATOM     49  O   UNL     1     113.421 124.738 136.487  0.00  0.00    +0.000 OA
ATOM     50  O   UNL     1     110.841 124.712 137.715  0.00  0.00    +0.000 OA
ATOM     51  C   UNL     1     112.131 124.725 137.101  0.00  0.00    +0.000 C 
ATOM     52  C   UNL     1     112.913 124.988 137.087  0.00  0.00    +0.000 C 
ATOM     53  C   UNL     1     111.623 124.975 137.700  0.00  0.00    +0.000 C 
ATOM     54  C   UNL     1     113.186 125.502 137.671  0.00  0.00    +0.000 C 
ATOM     55  C   UNL     1     111.896 125.489 138.285  0.00  0.00    +0.000 C 
BRANCH  54  57
ATOM     56  O   UNL     1     114.425 125.739 138.343  0.00  0.00    +0.000 OA
ATOM     57  C   UNL     1     113.968 125.765 137.656  0.00  0.00    +0.000 C 
ENDBRANCH  54  57
ENDBRANCH  46  55
ENDBRANCH   7  46
TORSDOF 11
ENDMDL
MODEL 10
REMARK VINA RESULT:     -10.1      2.010      5.671
REMARK  Name = 44259494
REMARK  11 active torsions:
REMARK  status: ('A' for Active; 'I' for Inactive)
REMARK    1  A    between atoms: O_2  and  C_28
REMARK    2  A    between atoms: O_2  and  C_32
REMARK    3  A    between atoms: O_5  and  C_30
REMARK    4  A    between atoms: O_5  and  C_41
REMARK    5  A    between atoms: O_12  and  C_38
REMARK    6  A    between atoms: O_12  and  C_44
REMARK    7  A    between atoms: O_20  and  C_53
REMARK    8  A    between atoms: O_21  and  C_54
REMARK    9  A    between atoms: C_23  and  C_32
REMARK   10  A    between atoms: C_37  and  C_40
REMARK   11  A    between atoms: C_42  and  C_50
REMARK                            x       y       z     vdW  Elec       q    Type
REMARK                         _______ _______ _______ _____ _____    ______ ____
ROOT
ATOM      1  O   UNL     1     110.901 127.099 138.362  0.00  0.00    +0.000 OA
ATOM      2  O   UNL     1     113.041 128.329 138.182  0.00  0.00    +0.000 OA
ATOM      3  O   UNL     1     112.821 128.959 139.461  0.00  0.00    +0.000 OA
ATOM      4  C   UNL     1     112.093 127.410 137.637  0.00  0.00    +0.000 A 
ATOM      5  C   UNL     1     111.380 127.000 137.698  0.00  0.00    +0.000 A 
ATOM      6  C   UNL     1     112.328 127.919 138.242  0.00  0.00    +0.000 A 
ATOM      7  C   UNL     1     110.868 128.234 140.287  0.00  0.00    +0.000 A 
ATOM      8  C   UNL     1     111.850 128.019 138.907  0.00  0.00    +0.000 A 
ATOM      9  C   UNL     1     111.136 127.609 138.967  0.00  0.00    +0.000 A 
ATOM     10  C   UNL     1     110.630 127.705 139.654  0.00  0.00    +0.000 A 
ATOM     11  C   UNL     1     111.612 128.661 140.225  0.00  0.00    +0.000 A 
ATOM     12  C   UNL     1     112.106 128.553 139.529  0.00  0.00    +0.000 A 
ENDROOT
BRANCH   5  14
ATOM     13  O   UNL     1     110.435 124.962 135.279  0.00  0.00    +0.000 OA
ATOM     14  C   UNL     1     111.144 126.490 137.093  0.00  0.00    +0.000 A 
ATOM     15  C   UNL     1     110.544 126.717 136.574  0.00  0.00    +0.000 A 
ATOM     16  C   UNL     1     111.508 125.755 137.008  0.00  0.00    +0.000 A 
ATOM     17  C   UNL     1     111.271 125.246 136.403  0.00  0.00    +0.000 A 
ATOM     18  C   UNL     1     110.308 126.207 135.969  0.00  0.00    +0.000 A 
ATOM     19  C   UNL     1     110.672 125.472 135.884  0.00  0.00    +0.000 A 
BRANCH  17  20
ATOM     20  O   UNL     1     111.635 124.510 136.318  0.00  0.00    +0.000 OA
ATOM     21  C   UNL     1     111.764 124.034 136.981  0.00  0.00    +0.000 C 
ENDBRANCH  17  20
BRANCH  18  22
ATOM     22  O   UNL     1     109.708 126.434 135.450  0.00  0.00    +0.000 OA
ATOM     23  C   UNL     1     109.012 126.766 135.743  0.00  0.00    +0.000 C 
ENDBRANCH  18  22
ENDBRANCH   5  14
BRANCH   4  24
ATOM     24  O   UNL     1     112.571 127.310 136.973  0.00  0.00    +0.000 OA
BRANCH  24  33
ATOM     25  O   UNL     1     112.249 128.589 136.423  0.00  0.00    +0.000 OA
ATOM     26  O   UNL     1     113.397 129.919 135.129  0.00  0.00    +0.000 OA
ATOM     27  O   UNL     1     114.456 128.666 135.306  0.00  0.00    +0.000 OA
ATOM     28  O   UNL     1     114.043 127.361 136.229  0.00  0.00    +0.000 OA
ATOM     29  C   UNL     1     112.455 129.241 135.962  0.00  0.00    +0.000 C 
ATOM     30  C   UNL     1     113.190 129.267 135.590  0.00  0.00    +0.000 C 
ATOM     31  C   UNL     1     113.720 128.640 135.678  0.00  0.00    +0.000 C 
ATOM     32  C   UNL     1     113.514 127.988 136.139  0.00  0.00    +0.000 C 
ATOM     33  C   UNL     1     112.777 127.962 136.512  0.00  0.00    +0.000 C 
BRANCH  29  34
ATOM     34  C   UNL     1     111.926 129.867 135.873  0.00  0.00    +0.000 C 
BRANCH  34  35
ATOM     35  O   UNL     1     111.139 129.717 135.677  0.00  0.00    +0.000 OA
BRANCH  35  41
ATOM     36  O   UNL     1     110.651 130.907 136.301  0.00  0.00    +0.000 OA
ATOM     37  O   UNL     1     109.879 129.759 134.612  0.00  0.00    +0.000 OA
ATOM     38  O   UNL     1     108.761 130.969 134.703  0.00  0.00    +0.000 OA
ATOM     39  O   UNL     1     108.903 132.138 135.859  0.00  0.00    +0.000 OA
ATOM     40  C   UNL     1     109.949 130.343 135.190  0.00  0.00    +0.000 C 
ATOM     41  C   UNL     1     110.579 130.323 135.723  0.00  0.00    +0.000 C 
ATOM     42  C   UNL     1     109.391 130.948 135.236  0.00  0.00    +0.000 C 
ATOM     43  C   UNL     1     109.461 131.533 135.814  0.00  0.00    +0.000 C 
ATOM     44  C   UNL     1     110.091 131.512 136.346  0.00  0.00    +0.000 C 
ATOM     45  C   UNL     1     110.163 132.096 136.924  0.00  0.00    +0.000 C 
ENDBRANCH  35  41
ENDBRANCH  34  35
ENDBRANCH  29  34
ENDBRANCH  24  33
ENDBRANCH   4  24
BRANCH   7  46
ATOM     46  O   UNL     1     110.388 128.332 140.951  0.00  0.00    +0.000 OA
BRANCH  46  55
ATOM     47  O   UNL     1     109.699 129.520 140.558  0.00  0.00    +0.000 OA
ATOM     48  O   UNL     1     107.574 128.567 141.396  0.00  0.00    +0.000 OA
ATOM     49  O   UNL     1     107.595 130.074 140.723  0.00  0.00    +0.000 OA
ATOM     50  O   UNL     1     108.971 127.696 141.510  0.00  0.00    +0.000 OA
ATOM     51  C   UNL     1     108.283 128.885 141.117  0.00  0.00    +0.000 C 
ATOM     52  C   UNL     1     108.293 129.638 140.780  0.00  0.00    +0.000 C 
ATOM     53  C   UNL     1     108.981 128.449 141.174  0.00  0.00    +0.000 C 
ATOM     54  C   UNL     1     109.001 129.956 140.501  0.00  0.00    +0.000 C 
ATOM     55  C   UNL     1     109.689 128.767 140.894  0.00  0.00    +0.000 C 
BRANCH  54  57
ATOM     56  O   UNL     1     109.526 131.284 140.456  0.00  0.00    +0.000 OA
ATOM     57  C   UNL     1     109.011 130.709 140.164  0.00  0.00    +0.000 C 
ENDBRANCH  54  57
ENDBRANCH  46  55
ENDBRANCH   7  46
TORSDOF 11
ENDMDL
