MODEL 1
REMARK VINA RESULT:     -10.0      0.000      0.000
REMARK  Name = 44259757
REMARK  8 active torsions:
REMARK  status: ('A' for Active; 'I' for Inactive)
REMARK    1  A    between atoms: O_3  and  C_17
REMARK    2  A    between atoms: O_3  and  C_32
REMARK    3  A    between atoms: O_4  and  C_23
REMARK    4  A    between atoms: O_4  and  C_29
REMARK    5  A    between atoms: O_7  and  C_26
REMARK    6  A    between atoms: O_7  and  C_30
REMARK    7  A    between atoms: O_12  and  C_36
REMARK    8  A    between atoms: C_37  and  C_39
REMARK                            x       y       z     vdW  Elec       q    Type
REMARK                         _______ _______ _______ _____ _____    ______ ____
ROOT
ATOM      1  O   UNL     1     112.099 128.249 138.219  0.00  0.00    +0.000 OA
ATOM      2  O   UNL     1     113.703 128.153 135.818  0.00  0.00    +0.000 OA
ATOM      3  O   UNL     1     113.825 127.138 136.835  0.00  0.00    +0.000 OA
ATOM      4  C   UNL     1     112.159 129.639 136.470  0.00  0.00    +0.000 A 
ATOM      5  C   UNL     1     113.032 127.184 138.023  0.00  0.00    +0.000 A 
ATOM      6  C   UNL     1     112.892 128.202 137.031  0.00  0.00    +0.000 A 
ATOM      7  C   UNL     1     112.316 128.572 137.492  0.00  0.00    +0.000 A 
ATOM      8  C   UNL     1     111.936 129.296 137.227  0.00  0.00    +0.000 A 
ATOM      9  C   UNL     1     113.249 127.508 137.296  0.00  0.00    +0.000 A 
ATOM     10  C   UNL     1     112.757 129.253 135.990  0.00  0.00    +0.000 A 
ATOM     11  C   UNL     1     112.456 127.554 138.484  0.00  0.00    +0.000 A 
ATOM     12  C   UNL     1     113.127 128.530 136.273  0.00  0.00    +0.000 A 
ENDROOT
BRANCH  11  14
ATOM     13  O   UNL     1     111.586 126.257 141.391  0.00  0.00    +0.000 OA
ATOM     14  C   UNL     1     112.239 127.230 139.211  0.00  0.00    +0.000 A 
ATOM     15  C   UNL     1     112.752 127.281 139.855  0.00  0.00    +0.000 A 
ATOM     16  C   UNL     1     111.509 126.855 139.294  0.00  0.00    +0.000 A 
ATOM     17  C   UNL     1     112.535 126.956 140.582  0.00  0.00    +0.000 A 
ATOM     18  C   UNL     1     111.292 126.531 140.021  0.00  0.00    +0.000 A 
ATOM     19  C   UNL     1     111.804 126.581 140.665  0.00  0.00    +0.000 A 
ENDBRANCH  11  14
BRANCH  10  20
ATOM     20  O   UNL     1     112.977 129.575 135.263  0.00  0.00    +0.000 OA
ATOM     21  C   UNL     1     113.731 129.895 135.164  0.00  0.00    +0.000 C 
ENDBRANCH  10  20
BRANCH   4  22
ATOM     22  O   UNL     1     111.799 130.333 136.207  0.00  0.00    +0.000 OA
BRANCH  22  30
ATOM     23  O   UNL     1     110.501 129.819 135.905  0.00  0.00    +0.000 OA
ATOM     24  O   UNL     1     109.469 131.807 136.957  0.00  0.00    +0.000 OA
ATOM     25  O   UNL     1     111.111 131.659 136.909  0.00  0.00    +0.000 OA
ATOM     26  C   UNL     1     109.336 130.557 136.280  0.00  0.00    +0.000 C 
ATOM     27  C   UNL     1     109.813 131.144 136.607  0.00  0.00    +0.000 C 
ATOM     28  C   UNL     1     110.634 131.071 136.583  0.00  0.00    +0.000 C 
ATOM     29  C   UNL     1     109.680 129.894 135.930  0.00  0.00    +0.000 C 
ATOM     30  C   UNL     1     110.978 130.408 136.232  0.00  0.00    +0.000 C 
ATOM     31  C   UNL     1     109.202 129.305 135.603  0.00  0.00    +0.000 C 
BRANCH  26  32
ATOM     32  O   UNL     1     108.514 130.630 136.304  0.00  0.00    +0.000 OA
BRANCH  32  34
ATOM     33  O   UNL     1     108.261 131.019 134.952  0.00  0.00    +0.000 OA
ATOM     34  C   UNL     1     108.128 131.116 135.761  0.00  0.00    +0.000 C 
ATOM     35  C   UNL     1     107.609 131.701 136.025  0.00  0.00    +0.000 C 
ENDBRANCH  32  34
ENDBRANCH  26  32
ENDBRANCH  22  30
ENDBRANCH   4  22
BRANCH   5  36
ATOM     36  O   UNL     1     113.389 126.489 138.290  0.00  0.00    +0.000 OA
BRANCH  36  45
ATOM     37  O   UNL     1     112.662 125.629 137.411  0.00  0.00    +0.000 OA
ATOM     38  O   UNL     1     114.604 124.099 137.301  0.00  0.00    +0.000 OA
ATOM     39  O   UNL     1     113.230 123.748 136.459  0.00  0.00    +0.000 OA
ATOM     40  O   UNL     1     114.684 125.469 138.217  0.00  0.00    +0.000 OA
ATOM     41  C   UNL     1     113.957 124.609 137.338  0.00  0.00    +0.000 C 
ATOM     42  C   UNL     1     113.269 124.434 136.916  0.00  0.00    +0.000 C 
ATOM     43  C   UNL     1     113.997 125.294 137.795  0.00  0.00    +0.000 C 
ATOM     44  C   UNL     1     112.622 124.944 136.953  0.00  0.00    +0.000 C 
ATOM     45  C   UNL     1     113.349 125.804 137.832  0.00  0.00    +0.000 C 
ATOM     46  C   UNL     1     111.935 124.768 136.532  0.00  0.00    +0.000 C 
ENDBRANCH  36  45
ENDBRANCH   5  36
TORSDOF 8
ENDMDL
MODEL 2
REMARK VINA RESULT:      -9.7      6.813     10.062
REMARK  Name = 44259757
REMARK  8 active torsions:
REMARK  status: ('A' for Active; 'I' for Inactive)
REMARK    1  A    between atoms: O_3  and  C_17
REMARK    2  A    between atoms: O_3  and  C_32
REMARK    3  A    between atoms: O_4  and  C_23
REMARK    4  A    between atoms: O_4  and  C_29
REMARK    5  A    between atoms: O_7  and  C_26
REMARK    6  A    between atoms: O_7  and  C_30
REMARK    7  A    between atoms: O_12  and  C_36
REMARK    8  A    between atoms: C_37  and  C_39
REMARK                            x       y       z     vdW  Elec       q    Type
REMARK                         _______ _______ _______ _____ _____    ______ ____
ROOT
ATOM      1  O   UNL     1     105.117 127.641 142.723  0.00  0.00    +0.000 OA
ATOM      2  O   UNL     1     107.724 127.022 141.641  0.00  0.00    +0.000 OA
ATOM      3  O   UNL     1     107.187 128.359 141.571  0.00  0.00    +0.000 OA
ATOM      4  C   UNL     1     106.231 125.705 142.667  0.00  0.00    +0.000 A 
ATOM      5  C   UNL     1     105.898 128.667 142.105  0.00  0.00    +0.000 A 
ATOM      6  C   UNL     1     106.406 127.334 142.188  0.00  0.00    +0.000 A 
ATOM      7  C   UNL     1     105.717 127.095 142.572  0.00  0.00    +0.000 A 
ATOM      8  C   UNL     1     105.610 126.279 142.821  0.00  0.00    +0.000 A 
ATOM      9  C   UNL     1     106.497 128.120 141.955  0.00  0.00    +0.000 A 
ATOM     10  C   UNL     1     106.949 125.954 142.267  0.00  0.00    +0.000 A 
ATOM     11  C   UNL     1     105.208 128.427 142.489  0.00  0.00    +0.000 A 
ATOM     12  C   UNL     1     107.038 126.774 142.026  0.00  0.00    +0.000 A 
ENDROOT
BRANCH  11  14
ATOM     13  O   UNL     1     102.812 130.614 143.091  0.00  0.00    +0.000 OA
ATOM     14  C   UNL     1     104.609 128.974 142.640  0.00  0.00    +0.000 A 
ATOM     15  C   UNL     1     104.103 129.209 142.032  0.00  0.00    +0.000 A 
ATOM     16  C   UNL     1     104.516 129.286 143.398  0.00  0.00    +0.000 A 
ATOM     17  C   UNL     1     103.503 129.756 142.182  0.00  0.00    +0.000 A 
ATOM     18  C   UNL     1     103.917 129.833 143.548  0.00  0.00    +0.000 A 
ATOM     19  C   UNL     1     103.411 130.068 142.940  0.00  0.00    +0.000 A 
ENDBRANCH  11  14
BRANCH  10  20
ATOM     20  O   UNL     1     107.550 125.409 142.115  0.00  0.00    +0.000 OA
ATOM     21  C   UNL     1     107.685 125.148 141.344  0.00  0.00    +0.000 C 
ENDBRANCH  10  20
BRANCH   4  22
ATOM     22  O   UNL     1     106.138 124.919 142.902  0.00  0.00    +0.000 OA
BRANCH  22  30
ATOM     23  O   UNL     1     106.232 125.122 144.313  0.00  0.00    +0.000 OA
ATOM     24  O   UNL     1     104.426 123.468 144.671  0.00  0.00    +0.000 OA
ATOM     25  O   UNL     1     104.934 123.817 143.140  0.00  0.00    +0.000 OA
ATOM     26  C   UNL     1     105.376 124.396 145.197  0.00  0.00    +0.000 C 
ATOM     27  C   UNL     1     105.028 124.019 144.552  0.00  0.00    +0.000 C 
ATOM     28  C   UNL     1     105.282 124.193 143.786  0.00  0.00    +0.000 C 
ATOM     29  C   UNL     1     105.978 124.947 145.078  0.00  0.00    +0.000 C 
ATOM     30  C   UNL     1     105.884 124.744 143.667  0.00  0.00    +0.000 C 
ATOM     31  C   UNL     1     106.327 125.324 145.724  0.00  0.00    +0.000 C 
BRANCH  26  32
ATOM     32  O   UNL     1     105.123 124.221 145.963  0.00  0.00    +0.000 OA
BRANCH  32  34
ATOM     33  O   UNL     1     104.250 125.343 146.114  0.00  0.00    +0.000 OA
ATOM     34  C   UNL     1     104.421 124.547 146.249  0.00  0.00    +0.000 C 
ATOM     35  C   UNL     1     103.889 124.077 146.669  0.00  0.00    +0.000 C 
ENDBRANCH  32  34
ENDBRANCH  26  32
ENDBRANCH  22  30
ENDBRANCH   4  22
BRANCH   5  36
ATOM     36  O   UNL     1     105.988 129.453 141.872  0.00  0.00    +0.000 OA
BRANCH  36  45
ATOM     37  O   UNL     1     106.890 129.790 142.928  0.00  0.00    +0.000 OA
ATOM     38  O   UNL     1     108.001 131.438 141.453  0.00  0.00    +0.000 OA
ATOM     39  O   UNL     1     108.533 131.226 143.000  0.00  0.00    +0.000 OA
ATOM     40  O   UNL     1     106.728 130.552 140.889  0.00  0.00    +0.000 OA
ATOM     41  C   UNL     1     107.630 130.889 141.945  0.00  0.00    +0.000 C 
ATOM     42  C   UNL     1     107.896 130.782 142.719  0.00  0.00    +0.000 C 
ATOM     43  C   UNL     1     106.994 130.446 141.663  0.00  0.00    +0.000 C 
ATOM     44  C   UNL     1     107.526 130.232 143.210  0.00  0.00    +0.000 C 
ATOM     45  C   UNL     1     106.624 129.896 142.154  0.00  0.00    +0.000 C 
ATOM     46  C   UNL     1     107.792 130.126 143.983  0.00  0.00    +0.000 C 
ENDBRANCH  36  45
ENDBRANCH   5  36
TORSDOF 8
ENDMDL
MODEL 3
REMARK VINA RESULT:      -9.7      2.202      4.833
REMARK  Name = 44259757
REMARK  8 active torsions:
REMARK  status: ('A' for Active; 'I' for Inactive)
REMARK    1  A    between atoms: O_3  and  C_17
REMARK    2  A    between atoms: O_3  and  C_32
REMARK    3  A    between atoms: O_4  and  C_23
REMARK    4  A    between atoms: O_4  and  C_29
REMARK    5  A    between atoms: O_7  and  C_26
REMARK    6  A    between atoms: O_7  and  C_30
REMARK    7  A    between atoms: O_12  and  C_36
REMARK    8  A    between atoms: C_37  and  C_39
REMARK                            x       y       z     vdW  Elec       q    Type
REMARK                         _______ _______ _______ _____ _____    ______ ____
ROOT
ATOM      1  O   UNL     1     111.922 128.052 138.242  0.00  0.00    +0.000 OA
ATOM      2  O   UNL     1     111.099 125.783 139.830  0.00  0.00    +0.000 OA
ATOM      3  O   UNL     1     111.204 125.688 138.394  0.00  0.00    +0.000 OA
ATOM      4  C   UNL     1     111.659 127.860 140.453  0.00  0.00    +0.000 A 
ATOM      5  C   UNL     1     111.611 126.809 137.607  0.00  0.00    +0.000 A 
ATOM      6  C   UNL     1     111.515 126.930 139.028  0.00  0.00    +0.000 A 
ATOM      7  C   UNL     1     111.754 127.718 138.977  0.00  0.00    +0.000 A 
ATOM      8  C   UNL     1     111.832 128.202 139.684  0.00  0.00    +0.000 A 
ATOM      9  C   UNL     1     111.443 126.476 138.343  0.00  0.00    +0.000 A 
ATOM     10  C   UNL     1     111.410 127.040 140.506  0.00  0.00    +0.000 A 
ATOM     11  C   UNL     1     111.850 127.598 137.557  0.00  0.00    +0.000 A 
ATOM     12  C   UNL     1     111.338 126.571 139.788  0.00  0.00    +0.000 A 
ENDROOT
BRANCH  11  14
ATOM     13  O   UNL     1     112.519 128.932 134.614  0.00  0.00    +0.000 OA
ATOM     14  C   UNL     1     112.018 127.931 136.821  0.00  0.00    +0.000 A 
ATOM     15  C   UNL     1     112.800 128.073 136.601  0.00  0.00    +0.000 A 
ATOM     16  C   UNL     1     111.403 128.123 136.306  0.00  0.00    +0.000 A 
ATOM     17  C   UNL     1     112.967 128.407 135.865  0.00  0.00    +0.000 A 
ATOM     18  C   UNL     1     111.570 128.456 135.570  0.00  0.00    +0.000 A 
ATOM     19  C   UNL     1     112.353 128.598 135.350  0.00  0.00    +0.000 A 
ENDBRANCH  11  14
BRANCH  10  20
ATOM     20  O   UNL     1     111.242 126.703 141.240  0.00  0.00    +0.000 OA
ATOM     21  C   UNL     1     110.464 126.518 141.440  0.00  0.00    +0.000 C 
ENDBRANCH  10  20
BRANCH   4  22
ATOM     22  O   UNL     1     111.732 128.316 141.136  0.00  0.00    +0.000 OA
BRANCH  22  30
ATOM     23  O   UNL     1     113.115 128.660 141.034  0.00  0.00    +0.000 OA
ATOM     24  O   UNL     1     112.588 130.983 141.705  0.00  0.00    +0.000 OA
ATOM     25  O   UNL     1     111.380 129.865 141.583  0.00  0.00    +0.000 OA
ATOM     26  C   UNL     1     113.542 129.993 141.318  0.00  0.00    +0.000 C 
ATOM     27  C   UNL     1     112.764 130.209 141.481  0.00  0.00    +0.000 C 
ATOM     28  C   UNL     1     112.159 129.650 141.420  0.00  0.00    +0.000 C 
ATOM     29  C   UNL     1     113.718 129.219 141.095  0.00  0.00    +0.000 C 
ATOM     30  C   UNL     1     112.335 128.876 141.197  0.00  0.00    +0.000 C 
ATOM     31  C   UNL     1     114.498 129.003 140.931  0.00  0.00    +0.000 C 
BRANCH  26  32
ATOM     32  O   UNL     1     114.147 130.552 141.379  0.00  0.00    +0.000 OA
BRANCH  32  34
ATOM     33  O   UNL     1     113.990 131.056 140.050  0.00  0.00    +0.000 OA
ATOM     34  C   UNL     1     114.473 130.881 140.696  0.00  0.00    +0.000 C 
ATOM     35  C   UNL     1     115.282 131.036 140.659  0.00  0.00    +0.000 C 
ENDBRANCH  32  34
ENDBRANCH  26  32
ENDBRANCH  22  30
ENDBRANCH   4  22
BRANCH   5  36
ATOM     36  O   UNL     1     111.540 126.356 136.922  0.00  0.00    +0.000 OA
BRANCH  36  45
ATOM     37  O   UNL     1     112.752 125.626 137.122  0.00  0.00    +0.000 OA
ATOM     38  O   UNL     1     111.739 123.646 136.036  0.00  0.00    +0.000 OA
ATOM     39  O   UNL     1     113.288 123.575 136.598  0.00  0.00    +0.000 OA
ATOM     40  O   UNL     1     110.864 125.036 136.198  0.00  0.00    +0.000 OA
ATOM     41  C   UNL     1     112.076 124.306 136.398  0.00  0.00    +0.000 C 
ATOM     42  C   UNL     1     112.851 124.271 136.679  0.00  0.00    +0.000 C 
ATOM     43  C   UNL     1     111.639 125.001 136.479  0.00  0.00    +0.000 C 
ATOM     44  C   UNL     1     113.189 124.931 137.041  0.00  0.00    +0.000 C 
ATOM     45  C   UNL     1     111.977 125.661 136.841  0.00  0.00    +0.000 C 
ATOM     46  C   UNL     1     113.963 124.895 137.322  0.00  0.00    +0.000 C 
ENDBRANCH  36  45
ENDBRANCH   5  36
TORSDOF 8
ENDMDL
MODEL 4
REMARK VINA RESULT:      -9.6      1.548      3.182
REMARK  Name = 44259757
REMARK  8 active torsions:
REMARK  status: ('A' for Active; 'I' for Inactive)
REMARK    1  A    between atoms: O_3  and  C_17
REMARK    2  A    between atoms: O_3  and  C_32
REMARK    3  A    between atoms: O_4  and  C_23
REMARK    4  A    between atoms: O_4  and  C_29
REMARK    5  A    between atoms: O_7  and  C_26
REMARK    6  A    between atoms: O_7  and  C_30
REMARK    7  A    between atoms: O_12  and  C_36
REMARK    8  A    between atoms: C_37  and  C_39
REMARK                            x       y       z     vdW  Elec       q    Type
REMARK                         _______ _______ _______ _____ _____    ______ ____
ROOT
ATOM      1  O   UNL     1     111.670 129.045 137.186  0.00  0.00    +0.000 OA
ATOM      2  O   UNL     1     110.312 127.238 138.985  0.00  0.00    +0.000 OA
ATOM      3  O   UNL     1     111.445 126.801 138.207  0.00  0.00    +0.000 OA
ATOM      4  C   UNL     1     109.910 129.391 138.518  0.00  0.00    +0.000 A 
ATOM      5  C   UNL     1     112.118 127.693 137.316  0.00  0.00    +0.000 A 
ATOM      6  C   UNL     1     110.998 128.152 138.076  0.00  0.00    +0.000 A 
ATOM      7  C   UNL     1     111.073 128.899 137.735  0.00  0.00    +0.000 A 
ATOM      8  C   UNL     1     110.535 129.536 137.946  0.00  0.00    +0.000 A 
ATOM      9  C   UNL     1     111.520 127.549 137.866  0.00  0.00    +0.000 A 
ATOM     10  C   UNL     1     109.832 128.613 138.872  0.00  0.00    +0.000 A 
ATOM     11  C   UNL     1     112.192 128.442 136.976  0.00  0.00    +0.000 A 
ATOM     12  C   UNL     1     110.380 127.988 138.650  0.00  0.00    +0.000 A 
ENDROOT
BRANCH  11  14
ATOM     13  O   UNL     1     114.584 129.020 134.777  0.00  0.00    +0.000 OA
ATOM     14  C   UNL     1     112.790 128.586 136.426  0.00  0.00    +0.000 A 
ATOM     15  C   UNL     1     112.605 128.661 135.626  0.00  0.00    +0.000 A 
ATOM     16  C   UNL     1     113.573 128.656 136.676  0.00  0.00    +0.000 A 
ATOM     17  C   UNL     1     113.203 128.805 135.075  0.00  0.00    +0.000 A 
ATOM     18  C   UNL     1     114.171 128.800 136.126  0.00  0.00    +0.000 A 
ATOM     19  C   UNL     1     113.986 128.875 135.326  0.00  0.00    +0.000 A 
ENDBRANCH  11  14
BRANCH  10  20
ATOM     20  O   UNL     1     109.235 128.465 139.423  0.00  0.00    +0.000 OA
ATOM     21  C   UNL     1     109.423 128.372 140.221  0.00  0.00    +0.000 C 
ENDBRANCH  10  20
BRANCH   4  22
ATOM     22  O   UNL     1     109.389 129.996 138.726  0.00  0.00    +0.000 OA
BRANCH  22  30
ATOM     23  O   UNL     1     108.819 130.216 137.434  0.00  0.00    +0.000 OA
ATOM     24  O   UNL     1     108.826 132.656 137.846  0.00  0.00    +0.000 OA
ATOM     25  O   UNL     1     109.394 131.623 139.001  0.00  0.00    +0.000 OA
ATOM     26  C   UNL     1     108.538 131.546 136.995  0.00  0.00    +0.000 C 
ATOM     27  C   UNL     1     108.824 131.843 137.709  0.00  0.00    +0.000 C 
ATOM     28  C   UNL     1     109.108 131.327 138.287  0.00  0.00    +0.000 C 
ATOM     29  C   UNL     1     108.536 130.733 136.857  0.00  0.00    +0.000 C 
ATOM     30  C   UNL     1     109.106 130.513 138.149  0.00  0.00    +0.000 C 
ATOM     31  C   UNL     1     108.249 130.436 136.142  0.00  0.00    +0.000 C 
BRANCH  26  32
ATOM     32  O   UNL     1     108.254 132.063 136.417  0.00  0.00    +0.000 OA
BRANCH  32  34
ATOM     33  O   UNL     1     109.476 132.597 135.901  0.00  0.00    +0.000 OA
ATOM     34  C   UNL     1     108.731 132.264 135.774  0.00  0.00    +0.000 C 
ATOM     35  C   UNL     1     108.464 132.133 135.005  0.00  0.00    +0.000 C 
ENDBRANCH  32  34
ENDBRANCH  26  32
ENDBRANCH  22  30
ENDBRANCH   4  22
BRANCH   5  36
ATOM     36  O   UNL     1     112.641 127.091 137.106  0.00  0.00    +0.000 OA
BRANCH  36  45
ATOM     37  O   UNL     1     111.694 126.393 136.294  0.00  0.00    +0.000 OA
ATOM     38  O   UNL     1     112.792 124.248 136.859  0.00  0.00    +0.000 OA
ATOM     39  O   UNL     1     111.480 124.264 135.859  0.00  0.00    +0.000 OA
ATOM     40  O   UNL     1     113.373 125.661 137.482  0.00  0.00    +0.000 OA
ATOM     41  C   UNL     1     112.426 124.963 136.671  0.00  0.00    +0.000 C 
ATOM     42  C   UNL     1     111.770 124.971 136.170  0.00  0.00    +0.000 C 
ATOM     43  C   UNL     1     112.716 125.669 136.982  0.00  0.00    +0.000 C 
ATOM     44  C   UNL     1     111.404 125.686 135.982  0.00  0.00    +0.000 C 
ATOM     45  C   UNL     1     112.350 126.384 136.794  0.00  0.00    +0.000 C 
ATOM     46  C   UNL     1     110.748 125.694 135.482  0.00  0.00    +0.000 C 
ENDBRANCH  36  45
ENDBRANCH   5  36
TORSDOF 8
ENDMDL
MODEL 5
REMARK VINA RESULT:      -9.6      1.431      3.369
REMARK  Name = 44259757
REMARK  8 active torsions:
REMARK  status: ('A' for Active; 'I' for Inactive)
REMARK    1  A    between atoms: O_3  and  C_17
REMARK    2  A    between atoms: O_3  and  C_32
REMARK    3  A    between atoms: O_4  and  C_23
REMARK    4  A    between atoms: O_4  and  C_29
REMARK    5  A    between atoms: O_7  and  C_26
REMARK    6  A    between atoms: O_7  and  C_30
REMARK    7  A    between atoms: O_12  and  C_36
REMARK    8  A    between atoms: C_37  and  C_39
REMARK                            x       y       z     vdW  Elec       q    Type
REMARK                         _______ _______ _______ _____ _____    ______ ____
ROOT
ATOM      1  O   UNL     1     111.787 128.960 135.883  0.00  0.00    +0.000 OA
ATOM      2  O   UNL     1     110.300 126.581 136.575  0.00  0.00    +0.000 OA
ATOM      3  O   UNL     1     111.739 126.558 136.480  0.00  0.00    +0.000 OA
ATOM      4  C   UNL     1     109.586 128.653 136.113  0.00  0.00    +0.000 A 
ATOM      5  C   UNL     1     112.476 127.733 136.138  0.00  0.00    +0.000 A 
ATOM      6  C   UNL     1     111.051 127.784 136.225  0.00  0.00    +0.000 A 
ATOM      7  C   UNL     1     111.067 128.584 136.026  0.00  0.00    +0.000 A 
ATOM      8  C   UNL     1     110.339 129.039 135.965  0.00  0.00    +0.000 A 
ATOM      9  C   UNL     1     111.756 127.358 136.281  0.00  0.00    +0.000 A 
ATOM     10  C   UNL     1     109.569 127.820 136.320  0.00  0.00    +0.000 A 
ATOM     11  C   UNL     1     112.492 128.534 135.939  0.00  0.00    +0.000 A 
ATOM     12  C   UNL     1     110.307 127.382 136.377  0.00  0.00    +0.000 A 
ENDROOT
BRANCH  11  14
ATOM     13  O   UNL     1     115.375 130.034 135.364  0.00  0.00    +0.000 OA
ATOM     14  C   UNL     1     113.212 128.909 135.795  0.00  0.00    +0.000 A 
ATOM     15  C   UNL     1     113.524 129.432 136.353  0.00  0.00    +0.000 A 
ATOM     16  C   UNL     1     113.622 128.762 135.094  0.00  0.00    +0.000 A 
ATOM     17  C   UNL     1     114.245 129.807 136.209  0.00  0.00    +0.000 A 
ATOM     18  C   UNL     1     114.343 129.137 134.951  0.00  0.00    +0.000 A 
ATOM     19  C   UNL     1     114.654 129.659 135.508  0.00  0.00    +0.000 A 
ENDBRANCH  11  14
BRANCH  10  20
ATOM     20  O   UNL     1     108.850 127.442 136.464  0.00  0.00    +0.000 OA
ATOM     21  C   UNL     1     108.543 126.913 135.910  0.00  0.00    +0.000 C 
ENDBRANCH  10  20
BRANCH   4  22
ATOM     22  O   UNL     1     108.883 129.081 136.057  0.00  0.00    +0.000 OA
BRANCH  22  30
ATOM     23  O   UNL     1     109.044 129.958 137.173  0.00  0.00    +0.000 OA
ATOM     24  O   UNL     1     108.253 131.856 135.796  0.00  0.00    +0.000 OA
ATOM     25  O   UNL     1     108.355 130.346 135.139  0.00  0.00    +0.000 OA
ATOM     26  C   UNL     1     108.729 131.346 137.042  0.00  0.00    +0.000 C 
ATOM     27  C   UNL     1     108.516 131.223 136.255  0.00  0.00    +0.000 C 
ATOM     28  C   UNL     1     108.567 130.468 135.926  0.00  0.00    +0.000 C 
ATOM     29  C   UNL     1     108.992 130.713 137.501  0.00  0.00    +0.000 C 
ATOM     30  C   UNL     1     108.831 129.836 136.385  0.00  0.00    +0.000 C 
ATOM     31  C   UNL     1     109.205 130.835 138.290  0.00  0.00    +0.000 C 
BRANCH  26  32
ATOM     32  O   UNL     1     108.677 132.100 137.372  0.00  0.00    +0.000 OA
BRANCH  32  34
ATOM     33  O   UNL     1     109.633 132.915 136.688  0.00  0.00    +0.000 OA
ATOM     34  C   UNL     1     109.343 132.588 137.389  0.00  0.00    +0.000 C 
ATOM     35  C   UNL     1     109.718 132.750 138.105  0.00  0.00    +0.000 C 
ENDBRANCH  32  34
ENDBRANCH  26  32
ENDBRANCH  22  30
ENDBRANCH   4  22
BRANCH   5  36
ATOM     36  O   UNL     1     113.182 127.309 136.193  0.00  0.00    +0.000 OA
BRANCH  36  45
ATOM     37  O   UNL     1     113.178 127.295 137.622  0.00  0.00    +0.000 OA
ATOM     38  O   UNL     1     114.429 125.159 137.603  0.00  0.00    +0.000 OA
ATOM     39  O   UNL     1     114.009 125.856 139.039  0.00  0.00    +0.000 OA
ATOM     40  O   UNL     1     114.016 125.885 136.181  0.00  0.00    +0.000 OA
ATOM     41  C   UNL     1     114.012 125.871 137.610  0.00  0.00    +0.000 C 
ATOM     42  C   UNL     1     113.802 126.220 138.327  0.00  0.00    +0.000 C 
ATOM     43  C   UNL     1     113.805 126.234 136.898  0.00  0.00    +0.000 C 
ATOM     44  C   UNL     1     113.385 126.931 138.334  0.00  0.00    +0.000 C 
ATOM     45  C   UNL     1     113.388 126.946 136.905  0.00  0.00    +0.000 C 
ATOM     46  C   UNL     1     113.175 127.279 139.051  0.00  0.00    +0.000 C 
ENDBRANCH  36  45
ENDBRANCH   5  36
TORSDOF 8
ENDMDL
MODEL 6
REMARK VINA RESULT:      -9.6      7.941     10.775
REMARK  Name = 44259757
REMARK  8 active torsions:
REMARK  status: ('A' for Active; 'I' for Inactive)
REMARK    1  A    between atoms: O_3  and  C_17
REMARK    2  A    between atoms: O_3  and  C_32
REMARK    3  A    between atoms: O_4  and  C_23
REMARK    4  A    between atoms: O_4  and  C_29
REMARK    5  A    between atoms: O_7  and  C_26
REMARK    6  A    between atoms: O_7  and  C_30
REMARK    7  A    between atoms: O_12  and  C_36
REMARK    8  A    between atoms: C_37  and  C_39
REMARK                            x       y       z     vdW  Elec       q    Type
REMARK                         _______ _______ _______ _____ _____    ______ ____
ROOT
ATOM      1  O   UNL     1     105.278 126.840 145.874  0.00  0.00    +0.000 OA
ATOM      2  O   UNL     1     106.137 124.238 144.957  0.00  0.00    +0.000 OA
ATOM      3  O   UNL     1     105.893 124.491 146.356  0.00  0.00    +0.000 OA
ATOM      4  C   UNL     1     105.737 126.119 143.809  0.00  0.00    +0.000 A 
ATOM      5  C   UNL     1     105.469 125.777 146.811  0.00  0.00    +0.000 A 
ATOM      6  C   UNL     1     105.703 125.554 145.419  0.00  0.00    +0.000 A 
ATOM      7  C   UNL     1     105.498 126.336 145.259  0.00  0.00    +0.000 A 
ATOM      8  C   UNL     1     105.509 126.639 144.454  0.00  0.00    +0.000 A 
ATOM      9  C   UNL     1     105.688 125.274 146.196  0.00  0.00    +0.000 A 
ATOM     10  C   UNL     1     105.951 125.305 143.976  0.00  0.00    +0.000 A 
ATOM     11  C   UNL     1     105.263 126.561 146.650  0.00  0.00    +0.000 A 
ATOM     12  C   UNL     1     105.933 125.020 144.788  0.00  0.00    +0.000 A 
ENDROOT
BRANCH  11  14
ATOM     13  O   UNL     1     104.385 128.574 149.112  0.00  0.00    +0.000 OA
ATOM     14  C   UNL     1     105.044 127.064 147.266  0.00  0.00    +0.000 A 
ATOM     15  C   UNL     1     104.307 126.977 147.627  0.00  0.00    +0.000 A 
ATOM     16  C   UNL     1     105.561 127.654 147.520  0.00  0.00    +0.000 A 
ATOM     17  C   UNL     1     104.087 127.480 148.242  0.00  0.00    +0.000 A 
ATOM     18  C   UNL     1     105.341 128.158 148.136  0.00  0.00    +0.000 A 
ATOM     19  C   UNL     1     104.604 128.071 148.497  0.00  0.00    +0.000 A 
ENDBRANCH  11  14
BRANCH  10  20
ATOM     20  O   UNL     1     106.171 124.798 143.363  0.00  0.00    +0.000 OA
ATOM     21  C   UNL     1     105.635 124.242 143.075  0.00  0.00    +0.000 C 
ENDBRANCH  10  20
BRANCH   4  22
ATOM     22  O   UNL     1     105.751 126.401 143.034  0.00  0.00    +0.000 OA
BRANCH  22  30
ATOM     23  O   UNL     1     106.804 127.363 143.134  0.00  0.00    +0.000 OA
ATOM     24  O   UNL     1     105.433 128.994 141.874  0.00  0.00    +0.000 OA
ATOM     25  O   UNL     1     104.837 127.489 142.194  0.00  0.00    +0.000 OA
ATOM     26  C   UNL     1     106.644 128.659 142.554  0.00  0.00    +0.000 C 
ATOM     27  C   UNL     1     105.890 128.450 142.294  0.00  0.00    +0.000 C 
ATOM     28  C   UNL     1     105.591 127.698 142.454  0.00  0.00    +0.000 C 
ATOM     29  C   UNL     1     107.101 128.115 142.974  0.00  0.00    +0.000 C 
ATOM     30  C   UNL     1     106.048 127.154 142.874  0.00  0.00    +0.000 C 
ATOM     31  C   UNL     1     107.856 128.324 143.234  0.00  0.00    +0.000 C 
BRANCH  26  32
ATOM     32  O   UNL     1     106.942 129.412 142.394  0.00  0.00    +0.000 OA
BRANCH  32  34
ATOM     33  O   UNL     1     107.186 129.321 140.988  0.00  0.00    +0.000 OA
ATOM     34  C   UNL     1     107.440 129.529 141.746  0.00  0.00    +0.000 C 
ATOM     35  C   UNL     1     108.190 129.853 141.854  0.00  0.00    +0.000 C 
ENDBRANCH  32  34
ENDBRANCH  26  32
ENDBRANCH  22  30
ENDBRANCH   4  22
BRANCH   5  36
ATOM     36  O   UNL     1     105.454 125.499 147.588  0.00  0.00    +0.000 OA
BRANCH  36  45
ATOM     37  O   UNL     1     106.880 125.457 147.662  0.00  0.00    +0.000 OA
ATOM     38  O   UNL     1     106.735 123.814 149.507  0.00  0.00    +0.000 OA
ATOM     39  O   UNL     1     108.210 124.319 148.968  0.00  0.00    +0.000 OA
ATOM     40  O   UNL     1     105.357 124.403 148.818  0.00  0.00    +0.000 OA
ATOM     41  C   UNL     1     106.783 124.362 148.892  0.00  0.00    +0.000 C 
ATOM     42  C   UNL     1     107.521 124.614 148.622  0.00  0.00    +0.000 C 
ATOM     43  C   UNL     1     106.094 124.656 148.548  0.00  0.00    +0.000 C 
ATOM     44  C   UNL     1     107.569 125.162 148.007  0.00  0.00    +0.000 C 
ATOM     45  C   UNL     1     106.143 125.204 147.932  0.00  0.00    +0.000 C 
ATOM     46  C   UNL     1     108.306 125.414 147.738  0.00  0.00    +0.000 C 
ENDBRANCH  36  45
ENDBRANCH   5  36
TORSDOF 8
ENDMDL
MODEL 7
REMARK VINA RESULT:      -9.6      1.906      5.974
REMARK  Name = 44259757
REMARK  8 active torsions:
REMARK  status: ('A' for Active; 'I' for Inactive)
REMARK    1  A    between atoms: O_3  and  C_17
REMARK    2  A    between atoms: O_3  and  C_32
REMARK    3  A    between atoms: O_4  and  C_23
REMARK    4  A    between atoms: O_4  and  C_29
REMARK    5  A    between atoms: O_7  and  C_26
REMARK    6  A    between atoms: O_7  and  C_30
REMARK    7  A    between atoms: O_12  and  C_36
REMARK    8  A    between atoms: C_37  and  C_39
REMARK                            x       y       z     vdW  Elec       q    Type
REMARK                         _______ _______ _______ _____ _____    ______ ____
ROOT
ATOM      1  O   UNL     1     111.692 128.753 136.573  0.00  0.00    +0.000 OA
ATOM      2  O   UNL     1     108.828 129.095 136.731  0.00  0.00    +0.000 OA
ATOM      3  O   UNL     1     109.724 130.199 136.975  0.00  0.00    +0.000 OA
ATOM      4  C   UNL     1     110.045 127.276 136.259  0.00  0.00    +0.000 A 
ATOM      5  C   UNL     1     111.141 130.031 136.897  0.00  0.00    +0.000 A 
ATOM      6  C   UNL     1     110.275 128.921 136.651  0.00  0.00    +0.000 A 
ATOM      7  C   UNL     1     110.932 128.439 136.517  0.00  0.00    +0.000 A 
ATOM      8  C   UNL     1     110.836 127.608 136.318  0.00  0.00    +0.000 A 
ATOM      9  C   UNL     1     110.380 129.717 136.841  0.00  0.00    +0.000 A 
ATOM     10  C   UNL     1     109.362 127.777 136.398  0.00  0.00    +0.000 A 
ATOM     11  C   UNL     1     111.797 129.549 136.763  0.00  0.00    +0.000 A 
ATOM     12  C   UNL     1     109.478 128.606 136.595  0.00  0.00    +0.000 A 
ENDROOT
BRANCH  11  14
ATOM     13  O   UNL     1     114.840 130.805 136.988  0.00  0.00    +0.000 OA
ATOM     14  C   UNL     1     112.558 129.863 136.819  0.00  0.00    +0.000 A 
ATOM     15  C   UNL     1     112.853 130.340 136.214  0.00  0.00    +0.000 A 
ATOM     16  C   UNL     1     113.024 129.700 137.480  0.00  0.00    +0.000 A 
ATOM     17  C   UNL     1     113.613 130.654 136.270  0.00  0.00    +0.000 A 
ATOM     18  C   UNL     1     113.785 130.014 137.536  0.00  0.00    +0.000 A 
ATOM     19  C   UNL     1     114.079 130.491 136.931  0.00  0.00    +0.000 A 
ENDBRANCH  11  14
BRANCH  10  20
ATOM     20  O   UNL     1     108.600 127.466 136.343  0.00  0.00    +0.000 OA
ATOM     21  C   UNL     1     108.158 127.576 135.655  0.00  0.00    +0.000 C 
ENDBRANCH  10  20
BRANCH   4  22
ATOM     22  O   UNL     1     109.944 126.479 136.069  0.00  0.00    +0.000 OA
BRANCH  22  30
ATOM     23  O   UNL     1     110.575 125.900 137.212  0.00  0.00    +0.000 OA
ATOM     24  O   UNL     1     111.666 124.219 135.759  0.00  0.00    +0.000 OA
ATOM     25  O   UNL     1     110.671 125.359 135.100  0.00  0.00    +0.000 OA
ATOM     26  C   UNL     1     111.436 124.770 137.057  0.00  0.00    +0.000 C 
ATOM     27  C   UNL     1     111.302 124.780 136.244  0.00  0.00    +0.000 C 
ATOM     28  C   UNL     1     110.805 125.349 135.913  0.00  0.00    +0.000 C 
ATOM     29  C   UNL     1     111.072 125.330 137.541  0.00  0.00    +0.000 C 
ATOM     30  C   UNL     1     110.441 125.909 136.398  0.00  0.00    +0.000 C 
ATOM     31  C   UNL     1     111.206 125.321 138.356  0.00  0.00    +0.000 C 
BRANCH  26  32
ATOM     32  O   UNL     1     111.933 124.200 137.387  0.00  0.00    +0.000 OA
BRANCH  32  34
ATOM     33  O   UNL     1     113.103 124.958 137.705  0.00  0.00    +0.000 OA
ATOM     34  C   UNL     1     112.752 124.299 137.354  0.00  0.00    +0.000 C 
ATOM     35  C   UNL     1     113.220 123.739 136.969  0.00  0.00    +0.000 C 
ENDBRANCH  32  34
ENDBRANCH  26  32
ENDBRANCH  22  30
ENDBRANCH   4  22
BRANCH   5  36
ATOM     36  O   UNL     1     111.246 130.827 137.087  0.00  0.00    +0.000 OA
BRANCH  36  45
ATOM     37  O   UNL     1     110.928 130.649 138.468  0.00  0.00    +0.000 OA
ATOM     38  O   UNL     1     110.073 132.970 138.569  0.00  0.00    +0.000 OA
ATOM     39  O   UNL     1     110.038 132.019 139.917  0.00  0.00    +0.000 OA
ATOM     40  O   UNL     1     110.677 132.374 137.154  0.00  0.00    +0.000 OA
ATOM     41  C   UNL     1     110.358 132.196 138.536  0.00  0.00    +0.000 C 
ATOM     42  C   UNL     1     110.341 131.721 139.210  0.00  0.00    +0.000 C 
ATOM     43  C   UNL     1     110.660 131.899 137.828  0.00  0.00    +0.000 C 
ATOM     44  C   UNL     1     110.626 130.947 139.176  0.00  0.00    +0.000 C 
ATOM     45  C   UNL     1     110.945 131.125 137.794  0.00  0.00    +0.000 C 
ATOM     46  C   UNL     1     110.608 130.472 139.850  0.00  0.00    +0.000 C 
ENDBRANCH  36  45
ENDBRANCH   5  36
TORSDOF 8
ENDMDL
MODEL 8
REMARK VINA RESULT:      -9.5      1.625      5.261
REMARK  Name = 44259757
REMARK  8 active torsions:
REMARK  status: ('A' for Active; 'I' for Inactive)
REMARK    1  A    between atoms: O_3  and  C_17
REMARK    2  A    between atoms: O_3  and  C_32
REMARK    3  A    between atoms: O_4  and  C_23
REMARK    4  A    between atoms: O_4  and  C_29
REMARK    5  A    between atoms: O_7  and  C_26
REMARK    6  A    between atoms: O_7  and  C_30
REMARK    7  A    between atoms: O_12  and  C_36
REMARK    8  A    between atoms: C_37  and  C_39
REMARK                            x       y       z     vdW  Elec       q    Type
REMARK                         _______ _______ _______ _____ _____    ______ ____
ROOT
ATOM      1  O   UNL     1     112.340 127.793 139.001  0.00  0.00    +0.000 OA
ATOM      2  O   UNL     1     112.776 129.660 136.840  0.00  0.00    +0.000 OA
ATOM      3  O   UNL     1     112.150 130.078 138.070  0.00  0.00    +0.000 OA
ATOM      4  C   UNL     1     113.267 127.480 136.992  0.00  0.00    +0.000 A 
ATOM      5  C   UNL     1     111.933 129.156 139.140  0.00  0.00    +0.000 A 
ATOM      6  C   UNL     1     112.556 128.715 137.932  0.00  0.00    +0.000 A 
ATOM      7  C   UNL     1     112.619 127.954 138.242  0.00  0.00    +0.000 A 
ATOM      8  C   UNL     1     112.974 127.319 137.784  0.00  0.00    +0.000 A 
ATOM      9  C   UNL     1     112.213 129.317 138.381  0.00  0.00    +0.000 A 
ATOM     10  C   UNL     1     113.201 128.273 136.669  0.00  0.00    +0.000 A 
ATOM     11  C   UNL     1     111.997 128.394 139.450  0.00  0.00    +0.000 A 
ATOM     12  C   UNL     1     112.843 128.895 137.142  0.00  0.00    +0.000 A 
ENDROOT
BRANCH  11  14
ATOM     13  O   UNL     1     110.879 127.752 142.488  0.00  0.00    +0.000 OA
ATOM     14  C   UNL     1     111.718 128.234 140.210  0.00  0.00    +0.000 A 
ATOM     15  C   UNL     1     112.143 128.490 140.869  0.00  0.00    +0.000 A 
ATOM     16  C   UNL     1     111.013 127.817 140.311  0.00  0.00    +0.000 A 
ATOM     17  C   UNL     1     111.864 128.330 141.628  0.00  0.00    +0.000 A 
ATOM     18  C   UNL     1     110.733 127.657 141.070  0.00  0.00    +0.000 A 
ATOM     19  C   UNL     1     111.159 127.913 141.729  0.00  0.00    +0.000 A 
ENDBRANCH  11  14
BRANCH  10  20
ATOM     20  O   UNL     1     113.480 128.437 135.910  0.00  0.00    +0.000 OA
ATOM     21  C   UNL     1     114.162 128.889 135.810  0.00  0.00    +0.000 C 
ENDBRANCH  10  20
BRANCH   4  22
ATOM     22  O   UNL     1     113.609 126.877 136.546  0.00  0.00    +0.000 OA
BRANCH  22  30
ATOM     23  O   UNL     1     112.467 126.057 136.294  0.00  0.00    +0.000 OA
ATOM     24  O   UNL     1     113.778 124.045 136.893  0.00  0.00    +0.000 OA
ATOM     25  O   UNL     1     114.484 125.536 136.945  0.00  0.00    +0.000 OA
ATOM     26  C   UNL     1     112.552 124.641 136.468  0.00  0.00    +0.000 C 
ATOM     27  C   UNL     1     113.341 124.716 136.693  0.00  0.00    +0.000 C 
ATOM     28  C   UNL     1     113.694 125.461 136.720  0.00  0.00    +0.000 C 
ATOM     29  C   UNL     1     112.114 125.311 136.268  0.00  0.00    +0.000 C 
ATOM     30  C   UNL     1     113.257 126.131 136.520  0.00  0.00    +0.000 C 
ATOM     31  C   UNL     1     111.324 125.237 136.042  0.00  0.00    +0.000 C 
BRANCH  26  32
ATOM     32  O   UNL     1     112.198 123.896 136.441  0.00  0.00    +0.000 OA
BRANCH  32  34
ATOM     33  O   UNL     1     111.545 124.020 137.707  0.00  0.00    +0.000 OA
ATOM     34  C   UNL     1     111.910 123.552 137.134  0.00  0.00    +0.000 C 
ATOM     35  C   UNL     1     111.987 122.739 137.254  0.00  0.00    +0.000 C 
ENDBRANCH  32  34
ENDBRANCH  26  32
ENDBRANCH  22  30
ENDBRANCH   4  22
BRANCH   5  36
ATOM     36  O   UNL     1     111.591 129.757 139.590  0.00  0.00    +0.000 OA
BRANCH  36  45
ATOM     37  O   UNL     1     110.385 129.767 138.824  0.00  0.00    +0.000 OA
ATOM     38  O   UNL     1     110.033 132.146 139.408  0.00  0.00    +0.000 OA
ATOM     39  O   UNL     1     108.944 131.364 138.447  0.00  0.00    +0.000 OA
ATOM     40  O   UNL     1     111.357 131.343 139.979  0.00  0.00    +0.000 OA
ATOM     41  C   UNL     1     110.150 131.353 139.213  0.00  0.00    +0.000 C 
ATOM     42  C   UNL     1     109.606 130.962 138.732  0.00  0.00    +0.000 C 
ATOM     43  C   UNL     1     110.812 130.952 139.499  0.00  0.00    +0.000 C 
ATOM     44  C   UNL     1     109.723 130.169 138.538  0.00  0.00    +0.000 C 
ATOM     45  C   UNL     1     110.929 130.159 139.304  0.00  0.00    +0.000 C 
ATOM     46  C   UNL     1     109.178 129.778 138.057  0.00  0.00    +0.000 C 
ENDBRANCH  36  45
ENDBRANCH   5  36
TORSDOF 8
ENDMDL
MODEL 9
REMARK VINA RESULT:      -9.5      2.514      4.772
REMARK  Name = 44259757
REMARK  8 active torsions:
REMARK  status: ('A' for Active; 'I' for Inactive)
REMARK    1  A    between atoms: O_3  and  C_17
REMARK    2  A    between atoms: O_3  and  C_32
REMARK    3  A    between atoms: O_4  and  C_23
REMARK    4  A    between atoms: O_4  and  C_29
REMARK    5  A    between atoms: O_7  and  C_26
REMARK    6  A    between atoms: O_7  and  C_30
REMARK    7  A    between atoms: O_12  and  C_36
REMARK    8  A    between atoms: C_37  and  C_39
REMARK                            x       y       z     vdW  Elec       q    Type
REMARK                         _______ _______ _______ _____ _____    ______ ____
ROOT
ATOM      1  O   UNL     1     112.748 128.451 138.220  0.00  0.00    +0.000 OA
ATOM      2  O   UNL     1     112.954 126.180 139.993  0.00  0.00    +0.000 OA
ATOM      3  O   UNL     1     112.390 126.044 138.672  0.00  0.00    +0.000 OA
ATOM      4  C   UNL     1     113.556 128.315 140.299  0.00  0.00    +0.000 A 
ATOM      5  C   UNL     1     112.287 127.167 137.794  0.00  0.00    +0.000 A 
ATOM      6  C   UNL     1     112.850 127.328 139.098  0.00  0.00    +0.000 A 
ATOM      7  C   UNL     1     112.969 128.131 138.947  0.00  0.00    +0.000 A 
ATOM      8  C   UNL     1     113.323 128.643 139.539  0.00  0.00    +0.000 A 
ATOM      9  C   UNL     1     112.509 126.846 138.521  0.00  0.00    +0.000 A 
ATOM     10  C   UNL     1     113.433 127.480 140.456  0.00  0.00    +0.000 A 
ATOM     11  C   UNL     1     112.407 127.969 137.644  0.00  0.00    +0.000 A 
ATOM     12  C   UNL     1     113.077 126.983 139.851  0.00  0.00    +0.000 A 
ENDROOT
BRANCH  11  14
ATOM     13  O   UNL     1     111.518 129.250 134.736  0.00  0.00    +0.000 OA
ATOM     14  C   UNL     1     112.185 128.290 136.917  0.00  0.00    +0.000 A 
ATOM     15  C   UNL     1     112.760 128.477 136.356  0.00  0.00    +0.000 A 
ATOM     16  C   UNL     1     111.388 128.423 136.750  0.00  0.00    +0.000 A 
ATOM     17  C   UNL     1     112.538 128.797 135.628  0.00  0.00    +0.000 A 
ATOM     18  C   UNL     1     111.166 128.743 136.023  0.00  0.00    +0.000 A 
ATOM     19  C   UNL     1     111.741 128.930 135.462  0.00  0.00    +0.000 A 
ENDBRANCH  11  14
BRANCH  10  20
ATOM     20  O   UNL     1     113.654 127.156 141.182  0.00  0.00    +0.000 OA
ATOM     21  C   UNL     1     114.353 126.723 141.245  0.00  0.00    +0.000 C 
ENDBRANCH  10  20
BRANCH   4  22
ATOM     22  O   UNL     1     113.897 128.799 140.873  0.00  0.00    +0.000 OA
BRANCH  22  30
ATOM     23  O   UNL     1     112.681 129.329 141.404  0.00  0.00    +0.000 OA
ATOM     24  O   UNL     1     113.766 131.536 141.685  0.00  0.00    +0.000 OA
ATOM     25  O   UNL     1     114.620 130.270 141.060  0.00  0.00    +0.000 OA
ATOM     26  C   UNL     1     112.616 130.698 141.810  0.00  0.00    +0.000 C 
ATOM     27  C   UNL     1     113.404 130.801 141.591  0.00  0.00    +0.000 C 
ATOM     28  C   UNL     1     113.832 130.168 141.279  0.00  0.00    +0.000 C 
ATOM     29  C   UNL     1     112.255 129.963 141.717  0.00  0.00    +0.000 C 
ATOM     30  C   UNL     1     113.471 129.432 141.185  0.00  0.00    +0.000 C 
ATOM     31  C   UNL     1     111.465 129.860 141.936  0.00  0.00    +0.000 C 
BRANCH  26  32
ATOM     32  O   UNL     1     112.188 131.331 142.122  0.00  0.00    +0.000 OA
BRANCH  32  34
ATOM     33  O   UNL     1     112.130 130.885 143.480  0.00  0.00    +0.000 OA
ATOM     34  C   UNL     1     112.225 131.494 142.930  0.00  0.00    +0.000 C 
ATOM     35  C   UNL     1     112.358 132.266 143.190  0.00  0.00    +0.000 C 
ENDBRANCH  32  34
ENDBRANCH  26  32
ENDBRANCH  22  30
ENDBRANCH   4  22
BRANCH   5  36
ATOM     36  O   UNL     1     111.946 126.685 137.217  0.00  0.00    +0.000 OA
BRANCH  36  45
ATOM     37  O   UNL     1     113.168 126.024 136.880  0.00  0.00    +0.000 OA
ATOM     38  O   UNL     1     111.900 123.977 136.306  0.00  0.00    +0.000 OA
ATOM     39  O   UNL     1     113.543 123.997 136.160  0.00  0.00    +0.000 OA
ATOM     40  O   UNL     1     111.101 125.321 136.834  0.00  0.00    +0.000 OA
ATOM     41  C   UNL     1     112.323 124.660 136.497  0.00  0.00    +0.000 C 
ATOM     42  C   UNL     1     113.144 124.670 136.425  0.00  0.00    +0.000 C 
ATOM     43  C   UNL     1     111.923 125.331 136.762  0.00  0.00    +0.000 C 
ATOM     44  C   UNL     1     113.567 125.352 136.616  0.00  0.00    +0.000 C 
ATOM     45  C   UNL     1     112.346 126.014 136.953  0.00  0.00    +0.000 C 
ATOM     46  C   UNL     1     114.388 125.362 136.543  0.00  0.00    +0.000 C 
ENDBRANCH  36  45
ENDBRANCH   5  36
TORSDOF 8
ENDMDL
MODEL 10
REMARK VINA RESULT:      -9.5      1.559      5.436
REMARK  Name = 44259757
REMARK  8 active torsions:
REMARK  status: ('A' for Active; 'I' for Inactive)
REMARK    1  A    between atoms: O_3  and  C_17
REMARK    2  A    between atoms: O_3  and  C_32
REMARK    3  A    between atoms: O_4  and  C_23
REMARK    4  A    between atoms: O_4  and  C_29
REMARK    5  A    between atoms: O_7  and  C_26
REMARK    6  A    between atoms: O_7  and  C_30
REMARK    7  A    between atoms: O_12  and  C_36
REMARK    8  A    between atoms: C_37  and  C_39
REMARK                            x       y       z     vdW  Elec       q    Type
REMARK                         _______ _______ _______ _____ _____    ______ ____
ROOT
ATOM      1  O   UNL     1     111.974 128.832 138.118  0.00  0.00    +0.000 OA
ATOM      2  O   UNL     1     113.068 130.025 135.725  0.00  0.00    +0.000 OA
ATOM      3  O   UNL     1     112.187 130.769 136.592  0.00  0.00    +0.000 OA
ATOM      4  C   UNL     1     113.347 127.973 136.579  0.00  0.00    +0.000 A 
ATOM      5  C   UNL     1     111.645 130.181 137.776  0.00  0.00    +0.000 A 
ATOM      6  C   UNL     1     112.515 129.421 136.935  0.00  0.00    +0.000 A 
ATOM      7  C   UNL     1     112.444 128.776 137.443  0.00  0.00    +0.000 A 
ATOM      8  C   UNL     1     112.855 128.038 137.281  0.00  0.00    +0.000 A 
ATOM      9  C   UNL     1     112.116 130.124 137.101  0.00  0.00    +0.000 A 
ATOM     10  C   UNL     1     113.421 128.645 136.050  0.00  0.00    +0.000 A 
ATOM     11  C   UNL     1     111.574 129.534 138.285  0.00  0.00    +0.000 A 
ATOM     12  C   UNL     1     113.002 129.374 136.229  0.00  0.00    +0.000 A 
ENDROOT
BRANCH  11  14
ATOM     13  O   UNL     1     109.692 129.763 140.985  0.00  0.00    +0.000 OA
ATOM     14  C   UNL     1     111.103 129.592 138.960  0.00  0.00    +0.000 A 
ATOM     15  C   UNL     1     110.371 129.213 138.985  0.00  0.00    +0.000 A 
ATOM     16  C   UNL     1     111.365 130.027 139.610  0.00  0.00    +0.000 A 
ATOM     17  C   UNL     1     109.900 129.270 139.661  0.00  0.00    +0.000 A 
ATOM     18  C   UNL     1     110.894 130.084 140.285  0.00  0.00    +0.000 A 
ATOM     19  C   UNL     1     110.162 129.706 140.310  0.00  0.00    +0.000 A 
ENDBRANCH  11  14
BRANCH  10  20
ATOM     20  O   UNL     1     113.891 128.591 135.373  0.00  0.00    +0.000 OA
ATOM     21  C   UNL     1     114.594 129.020 135.325  0.00  0.00    +0.000 C 
ENDBRANCH  10  20
BRANCH   4  22
ATOM     22  O   UNL     1     113.745 127.269 136.415  0.00  0.00    +0.000 OA
BRANCH  22  30
ATOM     23  O   UNL     1     112.570 126.520 136.097  0.00  0.00    +0.000 OA
ATOM     24  O   UNL     1     113.626 124.477 137.013  0.00  0.00    +0.000 OA
ATOM     25  O   UNL     1     114.449 125.907 137.026  0.00  0.00    +0.000 OA
ATOM     26  C   UNL     1     112.511 125.124 136.397  0.00  0.00    +0.000 C 
ATOM     27  C   UNL     1     113.274 125.158 136.708  0.00  0.00    +0.000 C 
ATOM     28  C   UNL     1     113.686 125.873 136.715  0.00  0.00    +0.000 C 
ATOM     29  C   UNL     1     112.160 125.805 136.091  0.00  0.00    +0.000 C 
ATOM     30  C   UNL     1     113.334 126.554 136.409  0.00  0.00    +0.000 C 
ATOM     31  C   UNL     1     111.396 125.771 135.779  0.00  0.00    +0.000 C 
BRANCH  26  32
ATOM     32  O   UNL     1     112.099 124.409 136.390  0.00  0.00    +0.000 OA
BRANCH  32  34
ATOM     33  O   UNL     1     111.302 124.618 137.558  0.00  0.00    +0.000 OA
ATOM     34  C   UNL     1     111.762 124.121 137.086  0.00  0.00    +0.000 C 
ATOM     35  C   UNL     1     111.885 123.337 137.311  0.00  0.00    +0.000 C 
ENDBRANCH  32  34
ENDBRANCH  26  32
ENDBRANCH  22  30
ENDBRANCH   4  22
BRANCH   5  36
ATOM     36  O   UNL     1     111.245 130.883 137.943  0.00  0.00    +0.000 OA
BRANCH  36  45
ATOM     37  O   UNL     1     110.248 130.683 136.940  0.00  0.00    +0.000 OA
ATOM     38  O   UNL     1     110.028 133.134 136.672  0.00  0.00    +0.000 OA
ATOM     39  O   UNL     1     109.104 132.119 135.758  0.00  0.00    +0.000 OA
ATOM     40  O   UNL     1     111.099 132.516 137.764  0.00  0.00    +0.000 OA
ATOM     41  C   UNL     1     110.101 132.317 136.761  0.00  0.00    +0.000 C 
ATOM     42  C   UNL     1     109.639 131.809 136.304  0.00  0.00    +0.000 C 
ATOM     43  C   UNL     1     110.637 132.008 137.307  0.00  0.00    +0.000 C 
ATOM     44  C   UNL     1     109.712 130.992 136.393  0.00  0.00    +0.000 C 
ATOM     45  C   UNL     1     110.710 131.192 137.397  0.00  0.00    +0.000 C 
ATOM     46  C   UNL     1     109.250 130.485 135.936  0.00  0.00    +0.000 C 
ENDBRANCH  36  45
ENDBRANCH   5  36
TORSDOF 8
ENDMDL
