MODEL 1
REMARK VINA RESULT:      -8.8      0.000      0.000
REMARK  Name = 
REMARK  4 active torsions:
REMARK  status: ('A' for Active; 'I' for Inactive)
REMARK    1  A    between atoms: C_8  and  C_12
REMARK    2  A    between atoms: C_9  and  O_19
REMARK    3  A    between atoms: O_19  and  C_20
REMARK    4  A    between atoms: C_24  and  C_29
REMARK                            x       y       z     vdW  Elec       q    Type
REMARK                         _______ _______ _______ _____ _____    ______ ____
ROOT
ATOM      1  C   UNL     1     113.251 124.181 136.903  0.00  0.00    +0.000 A 
ATOM      2  C   UNL     1     112.294 123.886 136.903  0.00  0.00    +0.000 A 
ATOM      3  C   UNL     1     111.571 124.544 136.726  0.00  0.00    +0.000 A 
ATOM      4  C   UNL     1     113.485 125.135 136.726  0.00  0.00    +0.000 A 
ATOM      5  C   UNL     1     112.753 125.792 136.548  0.00  0.00    +0.000 A 
ATOM      6  C   UNL     1     111.797 125.497 136.548  0.00  0.00    +0.000 A 
ATOM      7  O   UNL     1     111.075 126.149 136.372  0.00  0.00    +0.000 OA
ATOM      8  C   UNL     1     111.292 127.106 136.193  0.00  0.00    +0.000 C 
ATOM      9  C   UNL     1     112.247 127.409 136.192  0.00  0.00    +0.000 C 
ATOM     10  C   UNL     1     112.979 126.745 136.371  0.00  0.00    +0.000 C 
ATOM     11  O   UNL     1     113.934 127.048 136.369  0.00  0.00    +0.000 OA
ATOM     12  O   UNL     1     114.442 125.431 136.726  0.00  0.00    +0.000 OA
ATOM     13  O   UNL     1     112.063 122.924 137.082  0.00  0.00    +0.000 OA
ENDROOT
BRANCH   8  14
ATOM     14  C   UNL     1     110.561 127.763 136.016  0.00  0.00    +0.000 A 
ATOM     15  C   UNL     1     109.984 128.083 136.770  0.00  0.00    +0.000 A 
ATOM     16  C   UNL     1     109.253 128.740 136.593  0.00  0.00    +0.000 A 
ATOM     17  C   UNL     1     109.099 129.078 135.662  0.00  0.00    +0.000 A 
ATOM     18  C   UNL     1     109.677 128.758 134.909  0.00  0.00    +0.000 A 
ATOM     19  C   UNL     1     110.407 128.101 135.086  0.00  0.00    +0.000 A 
ATOM     20  O   UNL     1     108.365 129.737 135.491  0.00  0.00    +0.000 OA
ENDBRANCH   8  14
BRANCH   9  21
ATOM     21  O   UNL     1     112.470 128.369 136.013  0.00  0.00    +0.000 OA
BRANCH  21  22
ATOM     22  C   UNL     1     112.794 128.958 136.755  0.00  0.00    +0.000 C 
ATOM     23  C   UNL     1     113.228 129.836 136.538  0.00  0.00    +0.000 C 
ATOM     24  C   UNL     1     113.552 130.426 137.281  0.00  0.00    +0.000 C 
ATOM     25  C   UNL     1     113.440 130.136 138.230  0.00  0.00    +0.000 C 
ATOM     26  C   UNL     1     113.005 129.257 138.447  0.00  0.00    +0.000 C 
ATOM     27  O   UNL     1     112.679 128.664 137.699  0.00  0.00    +0.000 OA
ATOM     28  O   UNL     1     113.340 130.126 135.589  0.00  0.00    +0.000 OA
ATOM     29  O   UNL     1     113.984 131.299 137.069  0.00  0.00    +0.000 OA
ATOM     30  O   UNL     1     113.763 130.725 138.973  0.00  0.00    +0.000 OA
BRANCH  26  31
ATOM     31  C   UNL     1     112.894 128.968 139.397  0.00  0.00    +0.000 C 
ATOM     32  O   UNL     1     112.403 128.126 139.612  0.00  0.00    +0.000 OA
ENDBRANCH  26  31
ENDBRANCH  21  22
ENDBRANCH   9  21
TORSDOF 4
ENDMDL
MODEL 2
REMARK VINA RESULT:      -8.7      1.334      3.412
REMARK  Name = 
REMARK  4 active torsions:
REMARK  status: ('A' for Active; 'I' for Inactive)
REMARK    1  A    between atoms: C_8  and  C_12
REMARK    2  A    between atoms: C_9  and  O_19
REMARK    3  A    between atoms: O_19  and  C_20
REMARK    4  A    between atoms: C_24  and  C_29
REMARK                            x       y       z     vdW  Elec       q    Type
REMARK                         _______ _______ _______ _____ _____    ______ ____
ROOT
ATOM      1  C   UNL     1     111.976 124.261 136.503  0.00  0.00    +0.000 A 
ATOM      2  C   UNL     1     112.917 124.341 136.833  0.00  0.00    +0.000 A 
ATOM      3  C   UNL     1     113.376 125.223 136.821  0.00  0.00    +0.000 A 
ATOM      4  C   UNL     1     111.492 125.064 136.160  0.00  0.00    +0.000 A 
ATOM      5  C   UNL     1     111.958 125.948 136.149  0.00  0.00    +0.000 A 
ATOM      6  C   UNL     1     112.899 126.027 136.480  0.00  0.00    +0.000 A 
ATOM      7  O   UNL     1     113.358 126.902 136.468  0.00  0.00    +0.000 OA
ATOM      8  C   UNL     1     112.888 127.714 136.128  0.00  0.00    +0.000 C 
ATOM      9  C   UNL     1     111.946 127.642 135.796  0.00  0.00    +0.000 C 
ATOM     10  C   UNL     1     111.481 126.752 135.808  0.00  0.00    +0.000 C 
ATOM     11  O   UNL     1     110.538 126.680 135.476  0.00  0.00    +0.000 OA
ATOM     12  O   UNL     1     110.549 124.984 135.829  0.00  0.00    +0.000 OA
ATOM     13  O   UNL     1     113.402 123.530 137.179  0.00  0.00    +0.000 OA
ENDROOT
BRANCH   8  14
ATOM     14  C   UNL     1     113.353 128.597 136.118  0.00  0.00    +0.000 A 
ATOM     15  C   UNL     1     113.726 128.955 135.259  0.00  0.00    +0.000 A 
ATOM     16  C   UNL     1     114.192 129.839 135.247  0.00  0.00    +0.000 A 
ATOM     17  C   UNL     1     114.284 130.365 136.094  0.00  0.00    +0.000 A 
ATOM     18  C   UNL     1     113.911 130.007 136.953  0.00  0.00    +0.000 A 
ATOM     19  C   UNL     1     113.446 129.125 136.964  0.00  0.00    +0.000 A 
ATOM     20  O   UNL     1     114.752 131.251 136.076  0.00  0.00    +0.000 OA
ENDBRANCH   8  14
BRANCH   9  21
ATOM     21  O   UNL     1     111.469 128.454 135.453  0.00  0.00    +0.000 OA
BRANCH  21  22
ATOM     22  C   UNL     1     110.739 128.875 135.994  0.00  0.00    +0.000 C 
ATOM     23  C   UNL     1     110.137 129.556 135.568  0.00  0.00    +0.000 C 
ATOM     24  C   UNL     1     109.406 129.977 136.109  0.00  0.00    +0.000 C 
ATOM     25  C   UNL     1     109.282 129.717 137.065  0.00  0.00    +0.000 C 
ATOM     26  C   UNL     1     109.884 129.035 137.490  0.00  0.00    +0.000 C 
ATOM     27  O   UNL     1     110.620 128.611 136.946  0.00  0.00    +0.000 OA
ATOM     28  O   UNL     1     110.261 129.817 134.612  0.00  0.00    +0.000 OA
ATOM     29  O   UNL     1     108.806 130.654 135.690  0.00  0.00    +0.000 OA
ATOM     30  O   UNL     1     108.551 130.138 137.606  0.00  0.00    +0.000 OA
BRANCH  26  31
ATOM     31  C   UNL     1     109.759 128.775 138.447  0.00  0.00    +0.000 C 
ATOM     32  O   UNL     1     110.248 127.991 138.823  0.00  0.00    +0.000 OA
ENDBRANCH  26  31
ENDBRANCH  21  22
ENDBRANCH   9  21
TORSDOF 4
ENDMDL
MODEL 3
REMARK VINA RESULT:      -8.5      1.883      4.356
REMARK  Name = 
REMARK  4 active torsions:
REMARK  status: ('A' for Active; 'I' for Inactive)
REMARK    1  A    between atoms: C_8  and  C_12
REMARK    2  A    between atoms: C_9  and  O_19
REMARK    3  A    between atoms: O_19  and  C_20
REMARK    4  A    between atoms: C_24  and  C_29
REMARK                            x       y       z     vdW  Elec       q    Type
REMARK                         _______ _______ _______ _____ _____    ______ ____
ROOT
ATOM      1  C   UNL     1     114.960 130.616 136.188  0.00  0.00    +0.000 A 
ATOM      2  C   UNL     1     115.002 130.256 135.255  0.00  0.00    +0.000 A 
ATOM      3  C   UNL     1     114.354 129.562 134.960  0.00  0.00    +0.000 A 
ATOM      4  C   UNL     1     114.271 130.281 136.828  0.00  0.00    +0.000 A 
ATOM      5  C   UNL     1     113.623 129.583 136.527  0.00  0.00    +0.000 A 
ATOM      6  C   UNL     1     113.665 129.223 135.593  0.00  0.00    +0.000 A 
ATOM      7  O   UNL     1     113.022 128.533 135.298  0.00  0.00    +0.000 OA
ATOM      8  C   UNL     1     112.328 128.188 135.924  0.00  0.00    +0.000 C 
ATOM      9  C   UNL     1     112.280 128.543 136.860  0.00  0.00    +0.000 C 
ATOM     10  C   UNL     1     112.934 129.245 137.159  0.00  0.00    +0.000 C 
ATOM     11  O   UNL     1     112.886 129.600 138.095  0.00  0.00    +0.000 OA
ATOM     12  O   UNL     1     114.230 130.641 137.762  0.00  0.00    +0.000 OA
ATOM     13  O   UNL     1     115.698 130.596 134.613  0.00  0.00    +0.000 OA
ENDROOT
BRANCH   8  14
ATOM     14  C   UNL     1     111.680 127.490 135.624  0.00  0.00    +0.000 A 
ATOM     15  C   UNL     1     110.952 127.731 134.979  0.00  0.00    +0.000 A 
ATOM     16  C   UNL     1     110.303 127.033 134.678  0.00  0.00    +0.000 A 
ATOM     17  C   UNL     1     110.382 126.095 135.022  0.00  0.00    +0.000 A 
ATOM     18  C   UNL     1     111.111 125.856 135.667  0.00  0.00    +0.000 A 
ATOM     19  C   UNL     1     111.758 126.553 135.967  0.00  0.00    +0.000 A 
ATOM     20  O   UNL     1     109.729 125.400 134.716  0.00  0.00    +0.000 OA
ENDBRANCH   8  14
BRANCH   9  21
ATOM     21  O   UNL     1     111.585 128.200 137.495  0.00  0.00    +0.000 OA
BRANCH  21  22
ATOM     22  C   UNL     1     110.828 128.790 137.778  0.00  0.00    +0.000 C 
ATOM     23  C   UNL     1     110.281 128.543 138.584  0.00  0.00    +0.000 C 
ATOM     24  C   UNL     1     109.523 129.134 138.868  0.00  0.00    +0.000 C 
ATOM     25  C   UNL     1     109.317 129.962 138.350  0.00  0.00    +0.000 C 
ATOM     26  C   UNL     1     109.863 130.209 137.544  0.00  0.00    +0.000 C 
ATOM     27  O   UNL     1     110.627 129.614 137.258  0.00  0.00    +0.000 OA
ATOM     28  O   UNL     1     110.487 127.715 139.102  0.00  0.00    +0.000 OA
ATOM     29  O   UNL     1     108.979 128.891 139.667  0.00  0.00    +0.000 OA
ATOM     30  O   UNL     1     108.559 130.552 138.634  0.00  0.00    +0.000 OA
BRANCH  26  31
ATOM     31  C   UNL     1     109.656 131.037 137.026  0.00  0.00    +0.000 C 
ATOM     32  O   UNL     1     110.155 131.244 136.186  0.00  0.00    +0.000 OA
ENDBRANCH  26  31
ENDBRANCH  21  22
ENDBRANCH   9  21
TORSDOF 4
ENDMDL
MODEL 4
REMARK VINA RESULT:      -8.4      1.817      4.639
REMARK  Name = 
REMARK  4 active torsions:
REMARK  status: ('A' for Active; 'I' for Inactive)
REMARK    1  A    between atoms: C_8  and  C_12
REMARK    2  A    between atoms: C_9  and  O_19
REMARK    3  A    between atoms: O_19  and  C_20
REMARK    4  A    between atoms: C_24  and  C_29
REMARK                            x       y       z     vdW  Elec       q    Type
REMARK                         _______ _______ _______ _____ _____    ______ ____
ROOT
ATOM      1  C   UNL     1     113.830 130.291 136.335  0.00  0.00    +0.000 A 
ATOM      2  C   UNL     1     114.389 129.722 135.731  0.00  0.00    +0.000 A 
ATOM      3  C   UNL     1     114.209 128.747 135.660  0.00  0.00    +0.000 A 
ATOM      4  C   UNL     1     113.090 129.886 136.869  0.00  0.00    +0.000 A 
ATOM      5  C   UNL     1     112.914 128.906 136.794  0.00  0.00    +0.000 A 
ATOM      6  C   UNL     1     113.473 128.336 136.189  0.00  0.00    +0.000 A 
ATOM      7  O   UNL     1     113.296 127.367 136.117  0.00  0.00    +0.000 OA
ATOM      8  C   UNL     1     112.561 126.946 136.643  0.00  0.00    +0.000 C 
ATOM      9  C   UNL     1     111.997 127.510 137.250  0.00  0.00    +0.000 C 
ATOM     10  C   UNL     1     112.178 128.496 137.323  0.00  0.00    +0.000 C 
ATOM     11  O   UNL     1     111.614 129.059 137.930  0.00  0.00    +0.000 OA
ATOM     12  O   UNL     1     112.530 130.457 137.474  0.00  0.00    +0.000 OA
ATOM     13  O   UNL     1     115.134 130.134 135.195  0.00  0.00    +0.000 OA
ENDROOT
BRANCH   8  14
ATOM     14  C   UNL     1     112.384 125.967 136.568  0.00  0.00    +0.000 A 
ATOM     15  C   UNL     1     113.020 125.312 136.981  0.00  0.00    +0.000 A 
ATOM     16  C   UNL     1     112.844 124.331 136.906  0.00  0.00    +0.000 A 
ATOM     17  C   UNL     1     112.032 124.006 136.419  0.00  0.00    +0.000 A 
ATOM     18  C   UNL     1     111.396 124.661 136.006  0.00  0.00    +0.000 A 
ATOM     19  C   UNL     1     111.572 125.640 136.081  0.00  0.00    +0.000 A 
ATOM     20  O   UNL     1     111.860 123.021 136.348  0.00  0.00    +0.000 OA
ENDBRANCH   8  14
BRANCH   9  21
ATOM     21  O   UNL     1     111.257 127.094 137.781  0.00  0.00    +0.000 OA
BRANCH  21  22
ATOM     22  C   UNL     1     111.367 126.940 138.764  0.00  0.00    +0.000 C 
ATOM     23  C   UNL     1     110.570 126.688 139.319  0.00  0.00    +0.000 C 
ATOM     24  C   UNL     1     110.680 126.534 140.303  0.00  0.00    +0.000 C 
ATOM     25  C   UNL     1     111.581 126.633 140.724  0.00  0.00    +0.000 C 
ATOM     26  C   UNL     1     112.378 126.886 140.169  0.00  0.00    +0.000 C 
ATOM     27  O   UNL     1     112.267 127.040 139.178  0.00  0.00    +0.000 OA
ATOM     28  O   UNL     1     109.669 126.589 138.899  0.00  0.00    +0.000 OA
ATOM     29  O   UNL     1     109.890 126.284 140.858  0.00  0.00    +0.000 OA
ATOM     30  O   UNL     1     111.691 126.480 141.708  0.00  0.00    +0.000 OA
BRANCH  26  31
ATOM     31  C   UNL     1     113.279 126.984 140.590  0.00  0.00    +0.000 C 
ATOM     32  O   UNL     1     114.105 126.886 140.040  0.00  0.00    +0.000 OA
ENDBRANCH  26  31
ENDBRANCH  21  22
ENDBRANCH   9  21
TORSDOF 4
ENDMDL
MODEL 5
REMARK VINA RESULT:      -8.3      1.617      3.811
REMARK  Name = 
REMARK  4 active torsions:
REMARK  status: ('A' for Active; 'I' for Inactive)
REMARK    1  A    between atoms: C_8  and  C_12
REMARK    2  A    between atoms: C_9  and  O_19
REMARK    3  A    between atoms: O_19  and  C_20
REMARK    4  A    between atoms: C_24  and  C_29
REMARK                            x       y       z     vdW  Elec       q    Type
REMARK                         _______ _______ _______ _____ _____    ______ ____
ROOT
ATOM      1  C   UNL     1     112.145 125.063 137.506  0.00  0.00    +0.000 A 
ATOM      2  C   UNL     1     112.982 124.888 136.985  0.00  0.00    +0.000 A 
ATOM      3  C   UNL     1     113.486 125.646 136.585  0.00  0.00    +0.000 A 
ATOM      4  C   UNL     1     111.812 125.996 137.627  0.00  0.00    +0.000 A 
ATOM      5  C   UNL     1     112.323 126.753 137.223  0.00  0.00    +0.000 A 
ATOM      6  C   UNL     1     113.159 126.578 136.702  0.00  0.00    +0.000 A 
ATOM      7  O   UNL     1     113.663 127.329 136.304  0.00  0.00    +0.000 OA
ATOM      8  C   UNL     1     113.343 128.267 136.415  0.00  0.00    +0.000 C 
ATOM      9  C   UNL     1     112.507 128.450 136.935  0.00  0.00    +0.000 C 
ATOM     10  C   UNL     1     111.996 127.685 137.340  0.00  0.00    +0.000 C 
ATOM     11  O   UNL     1     111.159 127.868 137.860  0.00  0.00    +0.000 OA
ATOM     12  O   UNL     1     110.974 126.171 138.148  0.00  0.00    +0.000 OA
ATOM     13  O   UNL     1     113.315 123.946 136.866  0.00  0.00    +0.000 OA
ENDROOT
BRANCH   8  14
ATOM     14  C   UNL     1     113.853 129.025 136.012  0.00  0.00    +0.000 A 
ATOM     15  C   UNL     1     113.867 129.143 135.017  0.00  0.00    +0.000 A 
ATOM     16  C   UNL     1     114.377 129.901 134.612  0.00  0.00    +0.000 A 
ATOM     17  C   UNL     1     114.874 130.540 135.202  0.00  0.00    +0.000 A 
ATOM     18  C   UNL     1     114.860 130.421 136.197  0.00  0.00    +0.000 A 
ATOM     19  C   UNL     1     114.350 129.664 136.601  0.00  0.00    +0.000 A 
ATOM     20  O   UNL     1     115.383 131.298 134.791  0.00  0.00    +0.000 OA
ENDBRANCH   8  14
BRANCH   9  21
ATOM     21  O   UNL     1     112.180 129.390 137.051  0.00  0.00    +0.000 OA
BRANCH  21  22
ATOM     22  C   UNL     1     111.366 129.705 136.560  0.00  0.00    +0.000 C 
ATOM     23  C   UNL     1     110.948 130.584 136.806  0.00  0.00    +0.000 C 
ATOM     24  C   UNL     1     110.133 130.899 136.316  0.00  0.00    +0.000 C 
ATOM     25  C   UNL     1     109.744 130.337 135.587  0.00  0.00    +0.000 C 
ATOM     26  C   UNL     1     110.162 129.459 135.341  0.00  0.00    +0.000 C 
ATOM     27  O   UNL     1     110.983 129.142 135.835  0.00  0.00    +0.000 OA
ATOM     28  O   UNL     1     111.337 131.145 137.535  0.00  0.00    +0.000 OA
ATOM     29  O   UNL     1     109.715 131.771 136.557  0.00  0.00    +0.000 OA
ATOM     30  O   UNL     1     108.929 130.652 135.096  0.00  0.00    +0.000 OA
BRANCH  26  31
ATOM     31  C   UNL     1     109.772 128.898 134.612  0.00  0.00    +0.000 C 
ATOM     32  O   UNL     1     109.891 127.907 134.621  0.00  0.00    +0.000 OA
ENDBRANCH  26  31
ENDBRANCH  21  22
ENDBRANCH   9  21
TORSDOF 4
ENDMDL
MODEL 6
REMARK VINA RESULT:      -8.2      1.473      3.807
REMARK  Name = 
REMARK  4 active torsions:
REMARK  status: ('A' for Active; 'I' for Inactive)
REMARK    1  A    between atoms: C_8  and  C_12
REMARK    2  A    between atoms: C_9  and  O_19
REMARK    3  A    between atoms: O_19  and  C_20
REMARK    4  A    between atoms: C_24  and  C_29
REMARK                            x       y       z     vdW  Elec       q    Type
REMARK                         _______ _______ _______ _____ _____    ______ ____
ROOT
ATOM      1  C   UNL     1     113.349 124.550 136.711  0.00  0.00    +0.000 A 
ATOM      2  C   UNL     1     114.145 124.801 137.263  0.00  0.00    +0.000 A 
ATOM      3  C   UNL     1     114.125 125.624 137.819  0.00  0.00    +0.000 A 
ATOM      4  C   UNL     1     112.532 125.123 136.714  0.00  0.00    +0.000 A 
ATOM      5  C   UNL     1     112.517 125.949 137.275  0.00  0.00    +0.000 A 
ATOM      6  C   UNL     1     113.313 126.200 137.827  0.00  0.00    +0.000 A 
ATOM      7  O   UNL     1     113.296 127.018 138.381  0.00  0.00    +0.000 OA
ATOM      8  C   UNL     1     112.488 127.601 138.396  0.00  0.00    +0.000 C 
ATOM      9  C   UNL     1     111.687 127.357 137.845  0.00  0.00    +0.000 C 
ATOM     10  C   UNL     1     111.706 126.525 137.282  0.00  0.00    +0.000 C 
ATOM     11  O   UNL     1     110.905 126.281 136.732  0.00  0.00    +0.000 OA
ATOM     12  O   UNL     1     111.735 124.872 136.161  0.00  0.00    +0.000 OA
ATOM     13  O   UNL     1     114.967 124.220 137.257  0.00  0.00    +0.000 OA
ENDROOT
BRANCH   8  14
ATOM     14  C   UNL     1     112.472 128.428 138.956  0.00  0.00    +0.000 A 
ATOM     15  C   UNL     1     111.940 128.445 139.804  0.00  0.00    +0.000 A 
ATOM     16  C   UNL     1     111.924 129.272 140.366  0.00  0.00    +0.000 A 
ATOM     17  C   UNL     1     112.441 130.081 140.078  0.00  0.00    +0.000 A 
ATOM     18  C   UNL     1     112.973 130.062 139.230  0.00  0.00    +0.000 A 
ATOM     19  C   UNL     1     112.989 129.237 138.670  0.00  0.00    +0.000 A 
ATOM     20  O   UNL     1     112.421 130.906 140.645  0.00  0.00    +0.000 OA
ENDBRANCH   8  14
BRANCH   9  21
ATOM     21  O   UNL     1     110.872 127.939 137.856  0.00  0.00    +0.000 OA
BRANCH  21  22
ATOM     22  C   UNL     1     110.619 128.467 137.043  0.00  0.00    +0.000 C 
ATOM     23  C   UNL     1     109.690 128.840 136.963  0.00  0.00    +0.000 C 
ATOM     24  C   UNL     1     109.437 129.367 136.149  0.00  0.00    +0.000 C 
ATOM     25  C   UNL     1     110.109 129.518 135.426  0.00  0.00    +0.000 C 
ATOM     26  C   UNL     1     111.038 129.145 135.506  0.00  0.00    +0.000 C 
ATOM     27  O   UNL     1     111.292 128.614 136.325  0.00  0.00    +0.000 OA
ATOM     28  O   UNL     1     109.019 128.689 137.686  0.00  0.00    +0.000 OA
ATOM     29  O   UNL     1     108.516 129.739 136.066  0.00  0.00    +0.000 OA
ATOM     30  O   UNL     1     109.856 130.046 134.613  0.00  0.00    +0.000 OA
BRANCH  26  31
ATOM     31  C   UNL     1     111.709 129.297 134.782  0.00  0.00    +0.000 C 
ATOM     32  O   UNL     1     112.646 128.970 134.888  0.00  0.00    +0.000 OA
ENDBRANCH  26  31
ENDBRANCH  21  22
ENDBRANCH   9  21
TORSDOF 4
ENDMDL
MODEL 7
REMARK VINA RESULT:      -8.2      1.735      4.837
REMARK  Name = 
REMARK  4 active torsions:
REMARK  status: ('A' for Active; 'I' for Inactive)
REMARK    1  A    between atoms: C_8  and  C_12
REMARK    2  A    between atoms: C_9  and  O_19
REMARK    3  A    between atoms: O_19  and  C_20
REMARK    4  A    between atoms: C_24  and  C_29
REMARK                            x       y       z     vdW  Elec       q    Type
REMARK                         _______ _______ _______ _____ _____    ______ ____
ROOT
ATOM      1  C   UNL     1     109.207 130.181 136.259  0.00  0.00    +0.000 A 
ATOM      2  C   UNL     1     109.663 129.991 135.389  0.00  0.00    +0.000 A 
ATOM      3  C   UNL     1     110.228 129.179 135.292  0.00  0.00    +0.000 A 
ATOM      4  C   UNL     1     109.315 129.560 137.033  0.00  0.00    +0.000 A 
ATOM      5  C   UNL     1     109.884 128.745 136.929  0.00  0.00    +0.000 A 
ATOM      6  C   UNL     1     110.340 128.555 136.059  0.00  0.00    +0.000 A 
ATOM      7  O   UNL     1     110.902 127.748 135.958  0.00  0.00    +0.000 OA
ATOM      8  C   UNL     1     111.021 127.117 136.721  0.00  0.00    +0.000 C 
ATOM      9  C   UNL     1     110.567 127.301 137.595  0.00  0.00    +0.000 C 
ATOM     10  C   UNL     1     109.995 128.121 137.696  0.00  0.00    +0.000 C 
ATOM     11  O   UNL     1     109.541 128.305 138.570  0.00  0.00    +0.000 OA
ATOM     12  O   UNL     1     108.857 129.750 137.904  0.00  0.00    +0.000 OA
ATOM     13  O   UNL     1     109.552 130.620 134.612  0.00  0.00    +0.000 OA
ENDROOT
BRANCH   8  14
ATOM     14  C   UNL     1     111.589 126.303 136.618  0.00  0.00    +0.000 A 
ATOM     15  C   UNL     1     112.587 126.389 136.606  0.00  0.00    +0.000 A 
ATOM     16  C   UNL     1     113.157 125.575 136.503  0.00  0.00    +0.000 A 
ATOM     17  C   UNL     1     112.728 124.674 136.412  0.00  0.00    +0.000 A 
ATOM     18  C   UNL     1     111.730 124.588 136.423  0.00  0.00    +0.000 A 
ATOM     19  C   UNL     1     111.162 125.402 136.526  0.00  0.00    +0.000 A 
ATOM     20  O   UNL     1     113.305 123.861 136.308  0.00  0.00    +0.000 OA
ENDBRANCH   8  14
BRANCH   9  21
ATOM     21  O   UNL     1     110.682 126.670 138.365  0.00  0.00    +0.000 OA
BRANCH  21  22
ATOM     22  C   UNL     1     111.228 126.940 139.159  0.00  0.00    +0.000 C 
ATOM     23  C   UNL     1     111.127 126.439 140.024  0.00  0.00    +0.000 C 
ATOM     24  C   UNL     1     111.675 126.709 140.819  0.00  0.00    +0.000 C 
ATOM     25  C   UNL     1     112.315 127.472 140.746  0.00  0.00    +0.000 C 
ATOM     26  C   UNL     1     112.416 127.972 139.881  0.00  0.00    +0.000 C 
ATOM     27  O   UNL     1     111.865 127.701 139.081  0.00  0.00    +0.000 OA
ATOM     28  O   UNL     1     110.487 125.677 140.097  0.00  0.00    +0.000 OA
ATOM     29  O   UNL     1     111.577 126.214 141.679  0.00  0.00    +0.000 OA
ATOM     30  O   UNL     1     112.862 127.742 141.541  0.00  0.00    +0.000 OA
BRANCH  26  31
ATOM     31  C   UNL     1     113.057 128.735 139.809  0.00  0.00    +0.000 C 
ATOM     32  O   UNL     1     113.379 129.040 138.915  0.00  0.00    +0.000 OA
ENDBRANCH  26  31
ENDBRANCH  21  22
ENDBRANCH   9  21
TORSDOF 4
ENDMDL
MODEL 8
REMARK VINA RESULT:      -8.2      2.299      4.360
REMARK  Name = 
REMARK  4 active torsions:
REMARK  status: ('A' for Active; 'I' for Inactive)
REMARK    1  A    between atoms: C_8  and  C_12
REMARK    2  A    between atoms: C_9  and  O_19
REMARK    3  A    between atoms: O_19  and  C_20
REMARK    4  A    between atoms: C_24  and  C_29
REMARK                            x       y       z     vdW  Elec       q    Type
REMARK                         _______ _______ _______ _____ _____    ______ ____
ROOT
ATOM      1  C   UNL     1     112.250 126.127 136.823  0.00  0.00    +0.000 A 
ATOM      2  C   UNL     1     112.931 125.799 137.479  0.00  0.00    +0.000 A 
ATOM      3  C   UNL     1     113.314 126.422 138.152  0.00  0.00    +0.000 A 
ATOM      4  C   UNL     1     111.952 127.079 136.839  0.00  0.00    +0.000 A 
ATOM      5  C   UNL     1     112.340 127.701 137.518  0.00  0.00    +0.000 A 
ATOM      6  C   UNL     1     113.021 127.373 138.174  0.00  0.00    +0.000 A 
ATOM      7  O   UNL     1     113.403 127.990 138.844  0.00  0.00    +0.000 OA
ATOM      8  C   UNL     1     113.116 128.944 138.874  0.00  0.00    +0.000 C 
ATOM      9  C   UNL     1     112.435 129.280 138.220  0.00  0.00    +0.000 C 
ATOM     10  C   UNL     1     112.047 128.652 137.539  0.00  0.00    +0.000 C 
ATOM     11  O   UNL     1     111.366 128.988 136.885  0.00  0.00    +0.000 OA
ATOM     12  O   UNL     1     111.271 127.408 136.182  0.00  0.00    +0.000 OA
ATOM     13  O   UNL     1     113.229 124.838 137.460  0.00  0.00    +0.000 OA
ENDROOT
BRANCH   8  14
ATOM     14  C   UNL     1     113.504 129.567 139.552  0.00  0.00    +0.000 A 
ATOM     15  C   UNL     1     114.217 130.217 139.282  0.00  0.00    +0.000 A 
ATOM     16  C   UNL     1     114.605 130.840 139.960  0.00  0.00    +0.000 A 
ATOM     17  C   UNL     1     114.280 130.812 140.907  0.00  0.00    +0.000 A 
ATOM     18  C   UNL     1     113.567 130.161 141.176  0.00  0.00    +0.000 A 
ATOM     19  C   UNL     1     113.180 129.540 140.499  0.00  0.00    +0.000 A 
ATOM     20  O   UNL     1     114.674 131.439 141.582  0.00  0.00    +0.000 OA
ENDBRANCH   8  14
BRANCH   9  21
ATOM     21  O   UNL     1     112.142 130.238 138.245  0.00  0.00    +0.000 OA
BRANCH  21  22
ATOM     22  C   UNL     1     111.213 130.474 138.533  0.00  0.00    +0.000 C 
ATOM     23  C   UNL     1     110.839 131.378 138.310  0.00  0.00    +0.000 C 
ATOM     24  C   UNL     1     109.909 131.614 138.598  0.00  0.00    +0.000 C 
ATOM     25  C   UNL     1     109.361 130.949 139.104  0.00  0.00    +0.000 C 
ATOM     26  C   UNL     1     109.736 130.044 139.327  0.00  0.00    +0.000 C 
ATOM     27  O   UNL     1     110.673 129.807 139.036  0.00  0.00    +0.000 OA
ATOM     28  O   UNL     1     111.386 132.043 137.805  0.00  0.00    +0.000 OA
ATOM     29  O   UNL     1     109.534 132.511 138.379  0.00  0.00    +0.000 OA
ATOM     30  O   UNL     1     108.431 131.184 139.392  0.00  0.00    +0.000 OA
BRANCH  26  31
ATOM     31  C   UNL     1     109.188 129.379 139.832  0.00  0.00    +0.000 C 
ATOM     32  O   UNL     1     109.292 128.403 139.656  0.00  0.00    +0.000 OA
ENDBRANCH  26  31
ENDBRANCH  21  22
ENDBRANCH   9  21
TORSDOF 4
ENDMDL
MODEL 9
REMARK VINA RESULT:      -8.1      1.736      4.593
REMARK  Name = 
REMARK  4 active torsions:
REMARK  status: ('A' for Active; 'I' for Inactive)
REMARK    1  A    between atoms: C_8  and  C_12
REMARK    2  A    between atoms: C_9  and  O_19
REMARK    3  A    between atoms: O_19  and  C_20
REMARK    4  A    between atoms: C_24  and  C_29
REMARK                            x       y       z     vdW  Elec       q    Type
REMARK                         _______ _______ _______ _____ _____    ______ ____
ROOT
ATOM      1  C   UNL     1     112.021 129.088 141.734  0.00  0.00    +0.000 A 
ATOM      2  C   UNL     1     111.824 128.157 142.046  0.00  0.00    +0.000 A 
ATOM      3  C   UNL     1     111.979 127.386 141.437  0.00  0.00    +0.000 A 
ATOM      4  C   UNL     1     112.372 129.249 140.814  0.00  0.00    +0.000 A 
ATOM      5  C   UNL     1     112.525 128.470 140.207  0.00  0.00    +0.000 A 
ATOM      6  C   UNL     1     112.329 127.539 140.519  0.00  0.00    +0.000 A 
ATOM      7  O   UNL     1     112.481 126.771 139.916  0.00  0.00    +0.000 OA
ATOM      8  C   UNL     1     112.831 126.914 138.994  0.00  0.00    +0.000 C 
ATOM      9  C   UNL     1     113.030 127.843 138.675  0.00  0.00    +0.000 C 
ATOM     10  C   UNL     1     112.875 128.623 139.288  0.00  0.00    +0.000 C 
ATOM     11  O   UNL     1     113.074 129.552 138.969  0.00  0.00    +0.000 OA
ATOM     12  O   UNL     1     112.568 130.180 140.502  0.00  0.00    +0.000 OA
ATOM     13  O   UNL     1     111.471 127.999 142.974  0.00  0.00    +0.000 OA
ENDROOT
BRANCH   8  14
ATOM     14  C   UNL     1     112.985 126.136 138.386  0.00  0.00    +0.000 A 
ATOM     15  C   UNL     1     112.205 125.676 137.959  0.00  0.00    +0.000 A 
ATOM     16  C   UNL     1     112.357 124.898 137.351  0.00  0.00    +0.000 A 
ATOM     17  C   UNL     1     113.290 124.580 137.171  0.00  0.00    +0.000 A 
ATOM     18  C   UNL     1     114.070 125.041 137.599  0.00  0.00    +0.000 A 
ATOM     19  C   UNL     1     113.917 125.818 138.206  0.00  0.00    +0.000 A 
ATOM     20  O   UNL     1     113.437 123.799 136.561  0.00  0.00    +0.000 OA
ENDBRANCH   8  14
BRANCH   9  21
ATOM     21  O   UNL     1     113.382 127.993 137.749  0.00  0.00    +0.000 OA
BRANCH  21  22
ATOM     22  C   UNL     1     112.796 128.399 137.047  0.00  0.00    +0.000 C 
ATOM     23  C   UNL     1     113.199 128.703 136.179  0.00  0.00    +0.000 C 
ATOM     24  C   UNL     1     112.611 129.110 135.476  0.00  0.00    +0.000 C 
ATOM     25  C   UNL     1     111.632 129.210 135.643  0.00  0.00    +0.000 C 
ATOM     26  C   UNL     1     111.229 128.906 136.512  0.00  0.00    +0.000 C 
ATOM     27  O   UNL     1     111.821 128.497 137.219  0.00  0.00    +0.000 OA
ATOM     28  O   UNL     1     114.178 128.603 136.011  0.00  0.00    +0.000 OA
ATOM     29  O   UNL     1     113.008 129.412 134.612  0.00  0.00    +0.000 OA
ATOM     30  O   UNL     1     111.045 129.616 134.941  0.00  0.00    +0.000 OA
BRANCH  26  31
ATOM     31  C   UNL     1     110.249 129.007 136.678  0.00  0.00    +0.000 C 
ATOM     32  O   UNL     1     109.824 128.563 137.465  0.00  0.00    +0.000 OA
ENDBRANCH  26  31
ENDBRANCH  21  22
ENDBRANCH   9  21
TORSDOF 4
ENDMDL
MODEL 10
REMARK VINA RESULT:      -8.1      1.678      4.602
REMARK  Name = 
REMARK  4 active torsions:
REMARK  status: ('A' for Active; 'I' for Inactive)
REMARK    1  A    between atoms: C_8  and  C_12
REMARK    2  A    between atoms: C_9  and  O_19
REMARK    3  A    between atoms: O_19  and  C_20
REMARK    4  A    between atoms: C_24  and  C_29
REMARK                            x       y       z     vdW  Elec       q    Type
REMARK                         _______ _______ _______ _____ _____    ______ ____
ROOT
ATOM      1  C   UNL     1     108.311 129.296 135.950  0.00  0.00    +0.000 A 
ATOM      2  C   UNL     1     108.535 130.248 135.736  0.00  0.00    +0.000 A 
ATOM      3  C   UNL     1     109.485 130.534 135.676  0.00  0.00    +0.000 A 
ATOM      4  C   UNL     1     109.037 128.629 136.104  0.00  0.00    +0.000 A 
ATOM      5  C   UNL     1     109.990 128.922 136.042  0.00  0.00    +0.000 A 
ATOM      6  C   UNL     1     110.214 129.874 135.828  0.00  0.00    +0.000 A 
ATOM      7  O   UNL     1     111.158 130.160 135.768  0.00  0.00    +0.000 OA
ATOM      8  C   UNL     1     111.895 129.507 135.919  0.00  0.00    +0.000 C 
ATOM      9  C   UNL     1     111.678 128.552 136.134  0.00  0.00    +0.000 C 
ATOM     10  C   UNL     1     110.719 128.262 136.195  0.00  0.00    +0.000 C 
ATOM     11  O   UNL     1     110.502 127.307 136.409  0.00  0.00    +0.000 OA
ATOM     12  O   UNL     1     108.812 127.676 136.318  0.00  0.00    +0.000 OA
ATOM     13  O   UNL     1     107.800 130.918 135.581  0.00  0.00    +0.000 OA
ENDROOT
BRANCH   8  14
ATOM     14  C   UNL     1     112.848 129.798 135.857  0.00  0.00    +0.000 A 
ATOM     15  C   UNL     1     113.242 130.369 136.580  0.00  0.00    +0.000 A 
ATOM     16  C   UNL     1     114.196 130.662 136.519  0.00  0.00    +0.000 A 
ATOM     17  C   UNL     1     114.755 130.383 135.736  0.00  0.00    +0.000 A 
ATOM     18  C   UNL     1     114.359 129.812 135.013  0.00  0.00    +0.000 A 
ATOM     19  C   UNL     1     113.407 129.520 135.074  0.00  0.00    +0.000 A 
ATOM     20  O   UNL     1     115.710 130.680 135.680  0.00  0.00    +0.000 OA
ENDBRANCH   8  14
BRANCH   9  21
ATOM     21  O   UNL     1     112.415 127.890 136.286  0.00  0.00    +0.000 OA
BRANCH  21  22
ATOM     22  C   UNL     1     112.609 127.557 137.210  0.00  0.00    +0.000 C 
ATOM     23  C   UNL     1     113.212 126.764 137.335  0.00  0.00    +0.000 C 
ATOM     24  C   UNL     1     113.406 126.430 138.260  0.00  0.00    +0.000 C 
ATOM     25  C   UNL     1     112.999 126.887 139.049  0.00  0.00    +0.000 C 
ATOM     26  C   UNL     1     112.395 127.680 138.924  0.00  0.00    +0.000 C 
ATOM     27  O   UNL     1     112.200 128.016 137.993  0.00  0.00    +0.000 OA
ATOM     28  O   UNL     1     113.619 126.307 136.546  0.00  0.00    +0.000 OA
ATOM     29  O   UNL     1     114.005 125.643 138.388  0.00  0.00    +0.000 OA
ATOM     30  O   UNL     1     113.192 126.554 139.974  0.00  0.00    +0.000 OA
BRANCH  26  31
ATOM     31  C   UNL     1     111.988 128.137 139.714  0.00  0.00    +0.000 C 
ATOM     32  O   UNL     1     111.687 129.086 139.647  0.00  0.00    +0.000 OA
ENDBRANCH  26  31
ENDBRANCH  21  22
ENDBRANCH   9  21
TORSDOF 4
ENDMDL
