MODEL 1
REMARK VINA RESULT:      -8.1      0.000      0.000
REMARK  Name = 44260023
REMARK  8 active torsions:
REMARK  status: ('A' for Active; 'I' for Inactive)
REMARK    1  A    between atoms: O_2  and  C_16
REMARK    2  A    between atoms: O_2  and  C_22
REMARK    3  A    between atoms: O_3  and  C_12
REMARK    4  A    between atoms: O_4  and  C_13
REMARK    5  A    between atoms: O_5  and  C_15
REMARK    6  A    between atoms: O_7  and  C_21
REMARK    7  A    between atoms: C_11  and  C_17
REMARK    8  A    between atoms: C_22  and  C_25
REMARK                            x       y       z     vdW  Elec       q    Type
REMARK                         _______ _______ _______ _____ _____    ______ ____
ROOT
ATOM      1  O   UNL     1     112.410 126.745 136.146  0.00  0.00    +0.000 OA
ATOM      2  O   UNL     1     110.739 125.016 135.557  0.00  0.00    +0.000 OA
ATOM      3  C   UNL     1     111.177 126.375 135.524  0.00  0.00    +0.000 A 
ATOM      4  C   UNL     1     111.734 126.951 135.720  0.00  0.00    +0.000 A 
ATOM      5  C   UNL     1     112.528 125.960 136.375  0.00  0.00    +0.000 A 
ATOM      6  C   UNL     1     111.621 127.771 135.487  0.00  0.00    +0.000 A 
ATOM      7  C   UNL     1     110.469 126.579 135.081  0.00  0.00    +0.000 A 
ATOM      8  C   UNL     1     111.296 125.592 135.753  0.00  0.00    +0.000 A 
ATOM      9  C   UNL     1     111.971 125.384 136.179  0.00  0.00    +0.000 A 
ATOM     10  C   UNL     1     110.920 127.993 135.043  0.00  0.00    +0.000 A 
ATOM     11  C   UNL     1     110.340 127.393 134.839  0.00  0.00    +0.000 A 
ENDROOT
BRANCH   5  13
ATOM     12  O   UNL     1     115.232 125.133 138.076  0.00  0.00    +0.000 OA
ATOM     13  C   UNL     1     113.204 125.754 136.801  0.00  0.00    +0.000 A 
ATOM     14  C   UNL     1     113.241 125.897 137.613  0.00  0.00    +0.000 A 
ATOM     15  C   UNL     1     113.844 125.403 136.414  0.00  0.00    +0.000 A 
ATOM     16  C   UNL     1     113.917 125.690 138.037  0.00  0.00    +0.000 A 
ATOM     17  C   UNL     1     114.519 125.197 136.840  0.00  0.00    +0.000 A 
ATOM     18  C   UNL     1     114.556 125.340 137.651  0.00  0.00    +0.000 A 
BRANCH  16  19
ATOM     19  O   UNL     1     113.954 125.833 138.849  0.00  0.00    +0.000 OA
ATOM     20  C   UNL     1     113.528 126.458 139.178  0.00  0.00    +0.000 C 
ENDBRANCH  16  19
ENDBRANCH   5  13
BRANCH   6  21
ATOM     21  O   UNL     1     112.184 128.340 135.687  0.00  0.00    +0.000 OA
ATOM     22  C   UNL     1     112.709 128.621 135.116  0.00  0.00    +0.000 C 
ENDBRANCH   6  21
BRANCH   7  23
ATOM     23  O   UNL     1     109.918 125.995 134.889  0.00  0.00    +0.000 OA
ATOM     24  C   UNL     1     109.111 126.150 134.965  0.00  0.00    +0.000 C 
ENDBRANCH   7  23
BRANCH   9  25
ATOM     25  O   UNL     1     112.090 124.601 136.409  0.00  0.00    +0.000 OA
ATOM     26  C   UNL     1     111.555 124.018 136.176  0.00  0.00    +0.000 C 
ENDBRANCH   9  25
BRANCH  10  27
ATOM     27  O   UNL     1     110.804 128.777 134.815  0.00  0.00    +0.000 OA
BRANCH  27  28
ATOM     28  C   UNL     1     110.096 129.159 134.995  0.00  0.00    +0.000 C 
BRANCH  28  29
ATOM     29  C   UNL     1     109.912 129.879 134.637  0.00  0.00    +0.000 C 
ATOM     30  C   UNL     1     109.340 130.372 134.971  0.00  0.00    +0.000 C 
ATOM     31  C   UNL     1     109.157 131.092 134.612  0.00  0.00    +0.000 C 
ATOM     32  C   UNL     1     108.953 130.144 135.663  0.00  0.00    +0.000 C 
ENDBRANCH  28  29
ENDBRANCH  27  28
ENDBRANCH  10  27
TORSDOF 8
ENDMDL
MODEL 2
REMARK VINA RESULT:      -7.8      3.160      5.454
REMARK  Name = 44260023
REMARK  8 active torsions:
REMARK  status: ('A' for Active; 'I' for Inactive)
REMARK    1  A    between atoms: O_2  and  C_16
REMARK    2  A    between atoms: O_2  and  C_22
REMARK    3  A    between atoms: O_3  and  C_12
REMARK    4  A    between atoms: O_4  and  C_13
REMARK    5  A    between atoms: O_5  and  C_15
REMARK    6  A    between atoms: O_7  and  C_21
REMARK    7  A    between atoms: C_11  and  C_17
REMARK    8  A    between atoms: C_22  and  C_25
REMARK                            x       y       z     vdW  Elec       q    Type
REMARK                         _______ _______ _______ _____ _____    ______ ____
ROOT
ATOM      1  O   UNL     1     113.482 128.767 139.240  0.00  0.00    +0.000 OA
ATOM      2  O   UNL     1     112.410 129.870 137.301  0.00  0.00    +0.000 OA
ATOM      3  C   UNL     1     112.774 128.680 138.002  0.00  0.00    +0.000 A 
ATOM      4  C   UNL     1     113.131 128.312 138.649  0.00  0.00    +0.000 A 
ATOM      5  C   UNL     1     113.476 129.591 139.185  0.00  0.00    +0.000 A 
ATOM      6  C   UNL     1     113.144 127.455 138.718  0.00  0.00    +0.000 A 
ATOM      7  C   UNL     1     112.404 128.216 137.380  0.00  0.00    +0.000 A 
ATOM      8  C   UNL     1     112.767 129.502 137.948  0.00  0.00    +0.000 A 
ATOM      9  C   UNL     1     113.119 129.959 138.539  0.00  0.00    +0.000 A 
ATOM     10  C   UNL     1     112.780 126.976 138.105  0.00  0.00    +0.000 A 
ATOM     11  C   UNL     1     112.408 127.358 137.432  0.00  0.00    +0.000 A 
ENDROOT
BRANCH   5  13
ATOM     12  O   UNL     1     114.883 131.411 141.550  0.00  0.00    +0.000 OA
ATOM     13  C   UNL     1     113.827 130.046 139.777  0.00  0.00    +0.000 A 
ATOM     14  C   UNL     1     113.391 130.269 140.441  0.00  0.00    +0.000 A 
ATOM     15  C   UNL     1     114.616 130.279 139.704  0.00  0.00    +0.000 A 
ATOM     16  C   UNL     1     113.743 130.724 141.032  0.00  0.00    +0.000 A 
ATOM     17  C   UNL     1     114.967 130.734 140.295  0.00  0.00    +0.000 A 
ATOM     18  C   UNL     1     114.531 130.956 140.959  0.00  0.00    +0.000 A 
BRANCH  16  19
ATOM     19  O   UNL     1     113.307 130.946 141.696  0.00  0.00    +0.000 OA
ATOM     20  C   UNL     1     112.740 130.435 142.008  0.00  0.00    +0.000 C 
ENDBRANCH  16  19
ENDBRANCH   5  13
BRANCH   6  21
ATOM     21  O   UNL     1     113.504 127.097 139.368  0.00  0.00    +0.000 OA
ATOM     22  C   UNL     1     113.040 126.793 139.980  0.00  0.00    +0.000 C 
ENDBRANCH   6  21
BRANCH   7  23
ATOM     23  O   UNL     1     112.049 128.592 136.737  0.00  0.00    +0.000 OA
ATOM     24  C   UNL     1     111.335 128.308 136.436  0.00  0.00    +0.000 C 
ENDBRANCH   7  23
BRANCH   9  25
ATOM     25  O   UNL     1     113.112 130.781 138.484  0.00  0.00    +0.000 OA
ATOM     26  C   UNL     1     113.002 131.145 137.752  0.00  0.00    +0.000 C 
ENDBRANCH   9  25
BRANCH  10  27
ATOM     27  O   UNL     1     112.787 126.153 138.163  0.00  0.00    +0.000 OA
BRANCH  27  28
ATOM     28  C   UNL     1     112.974 125.694 137.503  0.00  0.00    +0.000 C 
BRANCH  28  29
ATOM     29  C   UNL     1     112.674 124.929 137.433  0.00  0.00    +0.000 C 
ATOM     30  C   UNL     1     113.049 124.382 136.943  0.00  0.00    +0.000 C 
ATOM     31  C   UNL     1     112.748 123.616 136.874  0.00  0.00    +0.000 C 
ATOM     32  C   UNL     1     113.725 124.600 136.523  0.00  0.00    +0.000 C 
ENDBRANCH  28  29
ENDBRANCH  27  28
ENDBRANCH  10  27
TORSDOF 8
ENDMDL
MODEL 3
REMARK VINA RESULT:      -7.7      2.686      4.804
REMARK  Name = 44260023
REMARK  8 active torsions:
REMARK  status: ('A' for Active; 'I' for Inactive)
REMARK    1  A    between atoms: O_2  and  C_16
REMARK    2  A    between atoms: O_2  and  C_22
REMARK    3  A    between atoms: O_3  and  C_12
REMARK    4  A    between atoms: O_4  and  C_13
REMARK    5  A    between atoms: O_5  and  C_15
REMARK    6  A    between atoms: O_7  and  C_21
REMARK    7  A    between atoms: C_11  and  C_17
REMARK    8  A    between atoms: C_22  and  C_25
REMARK                            x       y       z     vdW  Elec       q    Type
REMARK                         _______ _______ _______ _____ _____    ______ ____
ROOT
ATOM      1  O   UNL     1     112.825 128.493 139.182  0.00  0.00    +0.000 OA
ATOM      2  O   UNL     1     114.110 126.449 139.727  0.00  0.00    +0.000 OA
ATOM      3  C   UNL     1     113.260 127.176 138.838  0.00  0.00    +0.000 A 
ATOM      4  C   UNL     1     112.832 127.857 138.656  0.00  0.00    +0.000 A 
ATOM      5  C   UNL     1     113.247 128.447 139.890  0.00  0.00    +0.000 A 
ATOM      6  C   UNL     1     112.388 127.916 137.922  0.00  0.00    +0.000 A 
ATOM      7  C   UNL     1     113.275 126.506 138.299  0.00  0.00    +0.000 A 
ATOM      8  C   UNL     1     113.681 127.130 139.546  0.00  0.00    +0.000 A 
ATOM      9  C   UNL     1     113.675 127.766 140.072  0.00  0.00    +0.000 A 
ATOM     10  C   UNL     1     112.391 127.257 137.371  0.00  0.00    +0.000 A 
ATOM     11  C   UNL     1     112.837 126.548 137.561  0.00  0.00    +0.000 A 
ENDROOT
BRANCH   5  13
ATOM     12  O   UNL     1     113.217 130.990 141.991  0.00  0.00    +0.000 OA
ATOM     13  C   UNL     1     113.240 129.083 140.415  0.00  0.00    +0.000 A 
ATOM     14  C   UNL     1     113.768 129.709 140.313  0.00  0.00    +0.000 A 
ATOM     15  C   UNL     1     112.704 129.093 141.043  0.00  0.00    +0.000 A 
ATOM     16  C   UNL     1     113.759 130.345 140.839  0.00  0.00    +0.000 A 
ATOM     17  C   UNL     1     112.697 129.729 141.568  0.00  0.00    +0.000 A 
ATOM     18  C   UNL     1     113.225 130.355 141.466  0.00  0.00    +0.000 A 
BRANCH  16  19
ATOM     19  O   UNL     1     114.287 130.971 140.737  0.00  0.00    +0.000 OA
ATOM     20  C   UNL     1     115.049 130.827 140.455  0.00  0.00    +0.000 C 
ENDBRANCH  16  19
ENDBRANCH   5  13
BRANCH   6  21
ATOM     21  O   UNL     1     111.963 128.601 137.749  0.00  0.00    +0.000 OA
ATOM     22  C   UNL     1     112.264 129.148 137.209  0.00  0.00    +0.000 C 
ENDBRANCH   6  21
BRANCH   7  23
ATOM     23  O   UNL     1     113.706 125.829 138.489  0.00  0.00    +0.000 OA
ATOM     24  C   UNL     1     114.121 125.426 137.901  0.00  0.00    +0.000 C 
ENDBRANCH   7  23
BRANCH   9  25
ATOM     25  O   UNL     1     114.096 127.721 140.779  0.00  0.00    +0.000 OA
ATOM     26  C   UNL     1     114.604 127.085 140.916  0.00  0.00    +0.000 C 
ENDBRANCH   9  25
BRANCH  10  27
ATOM     27  O   UNL     1     111.969 127.305 136.664  0.00  0.00    +0.000 OA
BRANCH  27  28
ATOM     28  C   UNL     1     111.602 126.634 136.356  0.00  0.00    +0.000 C 
BRANCH  28  29
ATOM     29  C   UNL     1     111.230 126.668 135.620  0.00  0.00    +0.000 C 
ATOM     30  C   UNL     1     110.791 126.023 135.350  0.00  0.00    +0.000 C 
ATOM     31  C   UNL     1     110.418 126.058 134.614  0.00  0.00    +0.000 C 
ATOM     32  C   UNL     1     110.724 125.346 135.816  0.00  0.00    +0.000 C 
ENDBRANCH  28  29
ENDBRANCH  27  28
ENDBRANCH  10  27
TORSDOF 8
ENDMDL
MODEL 4
REMARK VINA RESULT:      -7.7      2.399      5.509
REMARK  Name = 44260023
REMARK  8 active torsions:
REMARK  status: ('A' for Active; 'I' for Inactive)
REMARK    1  A    between atoms: O_2  and  C_16
REMARK    2  A    between atoms: O_2  and  C_22
REMARK    3  A    between atoms: O_3  and  C_12
REMARK    4  A    between atoms: O_4  and  C_13
REMARK    5  A    between atoms: O_5  and  C_15
REMARK    6  A    between atoms: O_7  and  C_21
REMARK    7  A    between atoms: C_11  and  C_17
REMARK    8  A    between atoms: C_22  and  C_25
REMARK                            x       y       z     vdW  Elec       q    Type
REMARK                         _______ _______ _______ _____ _____    ______ ____
ROOT
ATOM      1  O   UNL     1     111.528 130.168 136.886  0.00  0.00    +0.000 OA
ATOM      2  O   UNL     1     110.161 129.508 134.931  0.00  0.00    +0.000 OA
ATOM      3  C   UNL     1     111.263 129.268 135.808  0.00  0.00    +0.000 A 
ATOM      4  C   UNL     1     111.718 129.489 136.460  0.00  0.00    +0.000 A 
ATOM      5  C   UNL     1     110.880 130.628 136.661  0.00  0.00    +0.000 A 
ATOM      6  C   UNL     1     112.395 129.017 136.704  0.00  0.00    +0.000 A 
ATOM      7  C   UNL     1     111.452 128.562 135.356  0.00  0.00    +0.000 A 
ATOM      8  C   UNL     1     110.616 129.728 135.583  0.00  0.00    +0.000 A 
ATOM      9  C   UNL     1     110.425 130.408 136.009  0.00  0.00    +0.000 A 
ATOM     10  C   UNL     1     112.599 128.309 136.264  0.00  0.00    +0.000 A 
ATOM     11  C   UNL     1     112.124 128.079 135.586  0.00  0.00    +0.000 A 
ENDROOT
BRANCH   5  13
ATOM     12  O   UNL     1     110.119 133.348 138.366  0.00  0.00    +0.000 OA
ATOM     13  C   UNL     1     110.690 131.308 137.087  0.00  0.00    +0.000 A 
ATOM     14  C   UNL     1     110.246 131.250 137.781  0.00  0.00    +0.000 A 
ATOM     15  C   UNL     1     110.943 132.047 136.820  0.00  0.00    +0.000 A 
ATOM     16  C   UNL     1     110.056 131.931 138.207  0.00  0.00    +0.000 A 
ATOM     17  C   UNL     1     110.753 132.727 137.247  0.00  0.00    +0.000 A 
ATOM     18  C   UNL     1     110.309 132.668 137.940  0.00  0.00    +0.000 A 
BRANCH  16  19
ATOM     19  O   UNL     1     109.612 131.872 138.900  0.00  0.00    +0.000 OA
ATOM     20  C   UNL     1     109.725 131.234 139.410  0.00  0.00    +0.000 C 
ENDBRANCH  16  19
ENDBRANCH   5  13
BRANCH   6  21
ATOM     21  O   UNL     1     112.844 129.245 137.357  0.00  0.00    +0.000 OA
ATOM     22  C   UNL     1     113.568 129.628 137.247  0.00  0.00    +0.000 C 
ENDBRANCH   6  21
BRANCH   7  23
ATOM     23  O   UNL     1     110.991 128.350 134.706  0.00  0.00    +0.000 OA
ATOM     24  C   UNL     1     110.745 127.568 134.612  0.00  0.00    +0.000 C 
ENDBRANCH   7  23
BRANCH   9  25
ATOM     25  O   UNL     1     109.778 130.868 135.784  0.00  0.00    +0.000 OA
ATOM     26  C   UNL     1     109.140 130.519 135.394  0.00  0.00    +0.000 C 
ENDBRANCH   9  25
BRANCH  10  27
ATOM     27  O   UNL     1     113.246 127.851 136.492  0.00  0.00    +0.000 OA
BRANCH  27  28
ATOM     28  C   UNL     1     113.193 127.028 136.484  0.00  0.00    +0.000 C 
BRANCH  28  29
ATOM     29  C   UNL     1     113.879 126.569 136.494  0.00  0.00    +0.000 C 
ATOM     30  C   UNL     1     113.839 125.772 136.704  0.00  0.00    +0.000 C 
ATOM     31  C   UNL     1     114.526 125.314 136.714  0.00  0.00    +0.000 C 
ATOM     32  C   UNL     1     113.114 125.434 136.904  0.00  0.00    +0.000 C 
ENDBRANCH  28  29
ENDBRANCH  27  28
ENDBRANCH  10  27
TORSDOF 8
ENDMDL
MODEL 5
REMARK VINA RESULT:      -7.6      1.979      5.725
REMARK  Name = 44260023
REMARK  8 active torsions:
REMARK  status: ('A' for Active; 'I' for Inactive)
REMARK    1  A    between atoms: O_2  and  C_16
REMARK    2  A    between atoms: O_2  and  C_22
REMARK    3  A    between atoms: O_3  and  C_12
REMARK    4  A    between atoms: O_4  and  C_13
REMARK    5  A    between atoms: O_5  and  C_15
REMARK    6  A    between atoms: O_7  and  C_21
REMARK    7  A    between atoms: C_11  and  C_17
REMARK    8  A    between atoms: C_22  and  C_25
REMARK                            x       y       z     vdW  Elec       q    Type
REMARK                         _______ _______ _______ _____ _____    ______ ____
ROOT
ATOM      1  O   UNL     1     111.215 129.027 136.457  0.00  0.00    +0.000 OA
ATOM      2  O   UNL     1     113.043 130.695 136.474  0.00  0.00    +0.000 OA
ATOM      3  C   UNL     1     112.610 129.335 136.427  0.00  0.00    +0.000 A 
ATOM      4  C   UNL     1     112.000 128.779 136.421  0.00  0.00    +0.000 A 
ATOM      5  C   UNL     1     111.038 129.833 136.498  0.00  0.00    +0.000 A 
ATOM      6  C   UNL     1     112.171 127.938 136.379  0.00  0.00    +0.000 A 
ATOM      7  C   UNL     1     113.432 129.088 136.390  0.00  0.00    +0.000 A 
ATOM      8  C   UNL     1     112.433 130.139 136.468  0.00  0.00    +0.000 A 
ATOM      9  C   UNL     1     111.648 130.389 136.504  0.00  0.00    +0.000 A 
ATOM     10  C   UNL     1     112.988 127.673 136.341  0.00  0.00    +0.000 A 
ATOM     11  C   UNL     1     113.622 128.251 136.347  0.00  0.00    +0.000 A 
ENDROOT
BRANCH   5  13
ATOM     12  O   UNL     1     107.895 130.826 136.639  0.00  0.00    +0.000 OA
ATOM     13  C   UNL     1     110.252 130.081 136.534  0.00  0.00    +0.000 A 
ATOM     14  C   UNL     1     109.841 130.050 137.249  0.00  0.00    +0.000 A 
ATOM     15  C   UNL     1     109.877 130.361 135.854  0.00  0.00    +0.000 A 
ATOM     16  C   UNL     1     109.055 130.299 137.283  0.00  0.00    +0.000 A 
ATOM     17  C   UNL     1     109.091 130.609 135.890  0.00  0.00    +0.000 A 
ATOM     18  C   UNL     1     108.681 130.578 136.604  0.00  0.00    +0.000 A 
BRANCH  16  19
ATOM     19  O   UNL     1     108.644 130.267 137.998  0.00  0.00    +0.000 OA
ATOM     20  C   UNL     1     109.047 130.371 138.711  0.00  0.00    +0.000 C 
ENDBRANCH  16  19
ENDBRANCH   5  13
BRANCH   6  21
ATOM     21  O   UNL     1     111.555 127.389 136.374  0.00  0.00    +0.000 OA
ATOM     22  C   UNL     1     111.321 127.038 135.664  0.00  0.00    +0.000 C 
ENDBRANCH   6  21
BRANCH   7  23
ATOM     23  O   UNL     1     114.035 129.651 136.396  0.00  0.00    +0.000 OA
ATOM     24  C   UNL     1     114.611 129.645 135.805  0.00  0.00    +0.000 C 
ENDBRANCH   7  23
BRANCH   9  25
ATOM     25  O   UNL     1     111.471 131.193 136.545  0.00  0.00    +0.000 OA
ATOM     26  C   UNL     1     111.979 131.706 136.945  0.00  0.00    +0.000 C 
ENDBRANCH   9  25
BRANCH  10  27
ATOM     27  O   UNL     1     113.161 126.867 136.300  0.00  0.00    +0.000 OA
BRANCH  27  28
ATOM     28  C   UNL     1     113.691 126.531 136.834  0.00  0.00    +0.000 C 
BRANCH  28  29
ATOM     29  C   UNL     1     114.054 125.811 136.659  0.00  0.00    +0.000 C 
ATOM     30  C   UNL     1     114.345 125.337 137.268  0.00  0.00    +0.000 C 
ATOM     31  C   UNL     1     114.708 124.616 137.092  0.00  0.00    +0.000 C 
ATOM     32  C   UNL     1     114.274 125.582 138.053  0.00  0.00    +0.000 C 
ENDBRANCH  28  29
ENDBRANCH  27  28
ENDBRANCH  10  27
TORSDOF 8
ENDMDL
MODEL 6
REMARK VINA RESULT:      -7.6      9.974     11.412
REMARK  Name = 44260023
REMARK  8 active torsions:
REMARK  status: ('A' for Active; 'I' for Inactive)
REMARK    1  A    between atoms: O_2  and  C_16
REMARK    2  A    between atoms: O_2  and  C_22
REMARK    3  A    between atoms: O_3  and  C_12
REMARK    4  A    between atoms: O_4  and  C_13
REMARK    5  A    between atoms: O_5  and  C_15
REMARK    6  A    between atoms: O_7  and  C_21
REMARK    7  A    between atoms: C_11  and  C_17
REMARK    8  A    between atoms: C_22  and  C_25
REMARK                            x       y       z     vdW  Elec       q    Type
REMARK                         _______ _______ _______ _____ _____    ______ ____
ROOT
ATOM      1  O   UNL     1     106.428 125.216 145.879  0.00  0.00    +0.000 OA
ATOM      2  O   UNL     1     106.639 127.643 145.441  0.00  0.00    +0.000 OA
ATOM      3  C   UNL     1     106.321 126.327 144.986  0.00  0.00    +0.000 A 
ATOM      4  C   UNL     1     106.251 125.518 145.132  0.00  0.00    +0.000 A 
ATOM      5  C   UNL     1     106.677 125.724 146.481  0.00  0.00    +0.000 A 
ATOM      6  C   UNL     1     105.994 124.979 144.514  0.00  0.00    +0.000 A 
ATOM      7  C   UNL     1     106.139 126.653 144.212  0.00  0.00    +0.000 A 
ATOM      8  C   UNL     1     106.569 126.834 145.587  0.00  0.00    +0.000 A 
ATOM      9  C   UNL     1     106.747 126.533 146.335  0.00  0.00    +0.000 A 
ATOM     10  C   UNL     1     105.807 125.287 143.734  0.00  0.00    +0.000 A 
ATOM     11  C   UNL     1     105.880 126.129 143.582  0.00  0.00    +0.000 A 
ENDROOT
BRANCH   5  13
ATOM     12  O   UNL     1     107.389 124.516 149.467  0.00  0.00    +0.000 OA
ATOM     13  C   UNL     1     106.854 125.422 147.227  0.00  0.00    +0.000 A 
ATOM     14  C   UNL     1     106.252 125.303 147.779  0.00  0.00    +0.000 A 
ATOM     15  C   UNL     1     107.635 125.239 147.423  0.00  0.00    +0.000 A 
ATOM     16  C   UNL     1     106.431 125.001 148.525  0.00  0.00    +0.000 A 
ATOM     17  C   UNL     1     107.812 124.937 148.170  0.00  0.00    +0.000 A 
ATOM     18  C   UNL     1     107.210 124.818 148.721  0.00  0.00    +0.000 A 
BRANCH  16  19
ATOM     19  O   UNL     1     105.829 124.882 149.077  0.00  0.00    +0.000 OA
ATOM     20  C   UNL     1     105.054 124.759 148.822  0.00  0.00    +0.000 C 
ENDBRANCH  16  19
ENDBRANCH   5  13
BRANCH   6  21
ATOM     21  O   UNL     1     105.926 124.171 144.669  0.00  0.00    +0.000 OA
ATOM     22  C   UNL     1     105.184 123.840 144.813  0.00  0.00    +0.000 C 
ENDBRANCH   6  21
BRANCH   7  23
ATOM     23  O   UNL     1     106.212 127.463 144.076  0.00  0.00    +0.000 OA
ATOM     24  C   UNL     1     105.653 127.856 143.612  0.00  0.00    +0.000 C 
ENDBRANCH   7  23
BRANCH   9  25
ATOM     25  O   UNL     1     106.995 127.040 146.936  0.00  0.00    +0.000 OA
ATOM     26  C   UNL     1     106.770 127.833 146.925  0.00  0.00    +0.000 C 
ENDBRANCH   9  25
BRANCH  10  27
ATOM     27  O   UNL     1     105.559 124.777 143.134  0.00  0.00    +0.000 OA
BRANCH  27  28
ATOM     28  C   UNL     1     105.940 124.784 142.403  0.00  0.00    +0.000 C 
BRANCH  28  29
ATOM     29  C   UNL     1     105.582 124.433 141.747  0.00  0.00    +0.000 C 
ATOM     30  C   UNL     1     106.039 124.210 141.098  0.00  0.00    +0.000 C 
ATOM     31  C   UNL     1     105.680 123.859 140.442  0.00  0.00    +0.000 C 
ATOM     32  C   UNL     1     106.855 124.337 141.104  0.00  0.00    +0.000 C 
ENDBRANCH  28  29
ENDBRANCH  27  28
ENDBRANCH  10  27
TORSDOF 8
ENDMDL
MODEL 7
REMARK VINA RESULT:      -7.6      2.234      3.552
REMARK  Name = 44260023
REMARK  8 active torsions:
REMARK  status: ('A' for Active; 'I' for Inactive)
REMARK    1  A    between atoms: O_2  and  C_16
REMARK    2  A    between atoms: O_2  and  C_22
REMARK    3  A    between atoms: O_3  and  C_12
REMARK    4  A    between atoms: O_4  and  C_13
REMARK    5  A    between atoms: O_5  and  C_15
REMARK    6  A    between atoms: O_7  and  C_21
REMARK    7  A    between atoms: C_11  and  C_17
REMARK    8  A    between atoms: C_22  and  C_25
REMARK                            x       y       z     vdW  Elec       q    Type
REMARK                         _______ _______ _______ _____ _____    ______ ____
ROOT
ATOM      1  O   UNL     1     112.813 127.850 137.177  0.00  0.00    +0.000 OA
ATOM      2  O   UNL     1     113.297 128.107 139.590  0.00  0.00    +0.000 OA
ATOM      3  C   UNL     1     112.878 128.669 138.346  0.00  0.00    +0.000 A 
ATOM      4  C   UNL     1     112.716 128.584 137.541  0.00  0.00    +0.000 A 
ATOM      5  C   UNL     1     113.071 127.201 137.617  0.00  0.00    +0.000 A 
ATOM      6  C   UNL     1     112.447 129.252 137.072  0.00  0.00    +0.000 A 
ATOM      7  C   UNL     1     112.781 129.429 138.737  0.00  0.00    +0.000 A 
ATOM      8  C   UNL     1     113.136 128.021 138.786  0.00  0.00    +0.000 A 
ATOM      9  C   UNL     1     113.233 127.287 138.422  0.00  0.00    +0.000 A 
ATOM     10  C   UNL     1     112.344 130.018 137.446  0.00  0.00    +0.000 A 
ATOM     11  C   UNL     1     112.512 130.107 138.283  0.00  0.00    +0.000 A 
ENDROOT
BRANCH   5  13
ATOM     12  O   UNL     1     113.459 124.268 136.158  0.00  0.00    +0.000 OA
ATOM     13  C   UNL     1     113.168 126.468 137.253  0.00  0.00    +0.000 A 
ATOM     14  C   UNL     1     112.517 125.974 137.140  0.00  0.00    +0.000 A 
ATOM     15  C   UNL     1     113.917 126.228 137.000  0.00  0.00    +0.000 A 
ATOM     16  C   UNL     1     112.615 125.240 136.775  0.00  0.00    +0.000 A 
ATOM     17  C   UNL     1     114.013 125.495 136.635  0.00  0.00    +0.000 A 
ATOM     18  C   UNL     1     113.362 125.001 136.523  0.00  0.00    +0.000 A 
BRANCH  16  19
ATOM     19  O   UNL     1     111.964 124.746 136.662  0.00  0.00    +0.000 OA
ATOM     20  C   UNL     1     111.247 125.060 136.399  0.00  0.00    +0.000 C 
ENDBRANCH  16  19
ENDBRANCH   5  13
BRANCH   6  21
ATOM     21  O   UNL     1     112.288 129.156 136.268  0.00  0.00    +0.000 OA
ATOM     22  C   UNL     1     112.836 129.413 135.706  0.00  0.00    +0.000 C 
ENDBRANCH   6  21
BRANCH   7  23
ATOM     23  O   UNL     1     112.945 129.505 139.542  0.00  0.00    +0.000 OA
ATOM     24  C   UNL     1     113.379 130.152 139.815  0.00  0.00    +0.000 C 
ENDBRANCH   7  23
BRANCH   9  25
ATOM     25  O   UNL     1     113.490 126.639 138.862  0.00  0.00    +0.000 OA
ATOM     26  C   UNL     1     113.327 126.598 139.669  0.00  0.00    +0.000 C 
ENDBRANCH   9  25
BRANCH  10  27
ATOM     27  O   UNL     1     112.086 130.665 137.003  0.00  0.00    +0.000 OA
BRANCH  27  28
ATOM     28  C   UNL     1     111.567 131.212 137.336  0.00  0.00    +0.000 C 
BRANCH  28  29
ATOM     29  C   UNL     1     111.453 131.945 136.976  0.00  0.00    +0.000 C 
ATOM     30  C   UNL     1     110.813 132.418 137.194  0.00  0.00    +0.000 C 
ATOM     31  C   UNL     1     110.700 133.151 136.834  0.00  0.00    +0.000 C 
ATOM     32  C   UNL     1     110.286 132.156 137.773  0.00  0.00    +0.000 C 
ENDBRANCH  28  29
ENDBRANCH  27  28
ENDBRANCH  10  27
TORSDOF 8
ENDMDL
MODEL 8
REMARK VINA RESULT:      -7.5      9.335     11.075
REMARK  Name = 44260023
REMARK  8 active torsions:
REMARK  status: ('A' for Active; 'I' for Inactive)
REMARK    1  A    between atoms: O_2  and  C_16
REMARK    2  A    between atoms: O_2  and  C_22
REMARK    3  A    between atoms: O_3  and  C_12
REMARK    4  A    between atoms: O_4  and  C_13
REMARK    5  A    between atoms: O_5  and  C_15
REMARK    6  A    between atoms: O_7  and  C_21
REMARK    7  A    between atoms: C_11  and  C_17
REMARK    8  A    between atoms: C_22  and  C_25
REMARK                            x       y       z     vdW  Elec       q    Type
REMARK                         _______ _______ _______ _____ _____    ______ ____
ROOT
ATOM      1  O   UNL     1     106.570 126.693 144.375  0.00  0.00    +0.000 OA
ATOM      2  O   UNL     1     105.391 124.635 143.669  0.00  0.00    +0.000 OA
ATOM      3  C   UNL     1     105.981 125.432 144.697  0.00  0.00    +0.000 A 
ATOM      4  C   UNL     1     106.374 126.118 144.932  0.00  0.00    +0.000 A 
ATOM      5  C   UNL     1     106.373 126.582 143.581  0.00  0.00    +0.000 A 
ATOM      6  C   UNL     1     106.584 126.245 145.756  0.00  0.00    +0.000 A 
ATOM      7  C   UNL     1     105.772 124.825 145.269  0.00  0.00    +0.000 A 
ATOM      8  C   UNL     1     105.784 125.321 143.904  0.00  0.00    +0.000 A 
ATOM      9  C   UNL     1     105.980 125.896 143.345  0.00  0.00    +0.000 A 
ATOM     10  C   UNL     1     106.383 125.650 146.342  0.00  0.00    +0.000 A 
ATOM     11  C   UNL     1     105.974 124.935 146.096  0.00  0.00    +0.000 A 
ENDROOT
BRANCH   5  13
ATOM     12  O   UNL     1     107.155 128.885 141.351  0.00  0.00    +0.000 OA
ATOM     13  C   UNL     1     106.569 127.158 143.023  0.00  0.00    +0.000 A 
ATOM     14  C   UNL     1     107.340 127.207 142.734  0.00  0.00    +0.000 A 
ATOM     15  C   UNL     1     105.992 127.685 142.755  0.00  0.00    +0.000 A 
ATOM     16  C   UNL     1     107.535 127.783 142.177  0.00  0.00    +0.000 A 
ATOM     17  C   UNL     1     106.188 128.260 142.198  0.00  0.00    +0.000 A 
ATOM     18  C   UNL     1     106.959 128.309 141.908  0.00  0.00    +0.000 A 
BRANCH  16  19
ATOM     19  O   UNL     1     108.306 127.832 141.887  0.00  0.00    +0.000 OA
ATOM     20  C   UNL     1     108.727 127.145 141.717  0.00  0.00    +0.000 C 
ENDBRANCH  16  19
ENDBRANCH   5  13
BRANCH   6  21
ATOM     21  O   UNL     1     106.977 126.934 145.982  0.00  0.00    +0.000 OA
ATOM     22  C   UNL     1     106.568 127.530 146.381  0.00  0.00    +0.000 C 
ENDBRANCH   6  21
BRANCH   7  23
ATOM     23  O   UNL     1     105.379 124.142 145.024  0.00  0.00    +0.000 OA
ATOM     24  C   UNL     1     104.758 123.839 145.476  0.00  0.00    +0.000 C 
ENDBRANCH   7  23
BRANCH   9  25
ATOM     25  O   UNL     1     105.783 125.785 142.553  0.00  0.00    +0.000 OA
ATOM     26  C   UNL     1     105.727 125.022 142.244  0.00  0.00    +0.000 C 
ENDBRANCH   9  25
BRANCH  10  27
ATOM     27  O   UNL     1     106.581 125.763 147.134  0.00  0.00    +0.000 OA
BRANCH  27  28
ATOM     28  C   UNL     1     107.031 125.199 147.532  0.00  0.00    +0.000 C 
BRANCH  28  29
ATOM     29  C   UNL     1     106.891 125.046 148.331  0.00  0.00    +0.000 C 
ATOM     30  C   UNL     1     107.503 124.774 148.813  0.00  0.00    +0.000 C 
ATOM     31  C   UNL     1     107.362 124.622 149.612  0.00  0.00    +0.000 C 
ATOM     32  C   UNL     1     108.255 124.654 148.496  0.00  0.00    +0.000 C 
ENDBRANCH  28  29
ENDBRANCH  27  28
ENDBRANCH  10  27
TORSDOF 8
ENDMDL
MODEL 9
REMARK VINA RESULT:      -7.5      2.399      5.350
REMARK  Name = 44260023
REMARK  8 active torsions:
REMARK  status: ('A' for Active; 'I' for Inactive)
REMARK    1  A    between atoms: O_2  and  C_16
REMARK    2  A    between atoms: O_2  and  C_22
REMARK    3  A    between atoms: O_3  and  C_12
REMARK    4  A    between atoms: O_4  and  C_13
REMARK    5  A    between atoms: O_5  and  C_15
REMARK    6  A    between atoms: O_7  and  C_21
REMARK    7  A    between atoms: C_11  and  C_17
REMARK    8  A    between atoms: C_22  and  C_25
REMARK                            x       y       z     vdW  Elec       q    Type
REMARK                         _______ _______ _______ _____ _____    ______ ____
ROOT
ATOM      1  O   UNL     1     111.874 126.313 138.751  0.00  0.00    +0.000 OA
ATOM      2  O   UNL     1     114.336 126.146 138.944  0.00  0.00    +0.000 OA
ATOM      3  C   UNL     1     113.072 126.500 139.508  0.00  0.00    +0.000 A 
ATOM      4  C   UNL     1     112.252 126.555 139.444  0.00  0.00    +0.000 A 
ATOM      5  C   UNL     1     112.318 126.015 138.122  0.00  0.00    +0.000 A 
ATOM      6  C   UNL     1     111.778 126.864 140.092  0.00  0.00    +0.000 A 
ATOM      7  C   UNL     1     113.476 126.749 140.225  0.00  0.00    +0.000 A 
ATOM      8  C   UNL     1     113.515 126.202 138.880  0.00  0.00    +0.000 A 
ATOM      9  C   UNL     1     113.139 125.960 138.187  0.00  0.00    +0.000 A 
ATOM     10  C   UNL     1     112.165 127.118 140.815  0.00  0.00    +0.000 A 
ATOM     11  C   UNL     1     113.020 127.060 140.882  0.00  0.00    +0.000 A 
ENDROOT
BRANCH   5  13
ATOM     12  O   UNL     1     110.809 125.045 135.354  0.00  0.00    +0.000 OA
ATOM     13  C   UNL     1     111.941 125.773 137.430  0.00  0.00    +0.000 A 
ATOM     14  C   UNL     1     111.800 126.316 136.825  0.00  0.00    +0.000 A 
ATOM     15  C   UNL     1     111.704 124.987 137.343  0.00  0.00    +0.000 A 
ATOM     16  C   UNL     1     111.422 126.073 136.133  0.00  0.00    +0.000 A 
ATOM     17  C   UNL     1     111.327 124.745 136.650  0.00  0.00    +0.000 A 
ATOM     18  C   UNL     1     111.186 125.288 136.045  0.00  0.00    +0.000 A 
BRANCH  16  19
ATOM     19  O   UNL     1     111.281 126.616 135.528  0.00  0.00    +0.000 OA
ATOM     20  C   UNL     1     111.089 127.397 135.710  0.00  0.00    +0.000 C 
ENDBRANCH  16  19
ENDBRANCH   5  13
BRANCH   6  21
ATOM     21  O   UNL     1     110.958 126.916 140.018  0.00  0.00    +0.000 OA
ATOM     22  C   UNL     1     110.475 126.357 140.387  0.00  0.00    +0.000 C 
ENDBRANCH   6  21
BRANCH   7  23
ATOM     23  O   UNL     1     114.297 126.689 140.280  0.00  0.00    +0.000 OA
ATOM     24  C   UNL     1     114.718 127.215 140.758  0.00  0.00    +0.000 C 
ENDBRANCH   7  23
BRANCH   9  25
ATOM     25  O   UNL     1     113.582 125.662 137.559  0.00  0.00    +0.000 OA
ATOM     26  C   UNL     1     114.347 125.381 137.690  0.00  0.00    +0.000 C 
ENDBRANCH   9  25
BRANCH  10  27
ATOM     27  O   UNL     1     111.719 127.415 141.442  0.00  0.00    +0.000 OA
BRANCH  27  28
ATOM     28  C   UNL     1     111.978 128.081 141.854  0.00  0.00    +0.000 C 
BRANCH  28  29
ATOM     29  C   UNL     1     111.666 128.254 142.598  0.00  0.00    +0.000 C 
ATOM     30  C   UNL     1     111.772 129.004 142.926  0.00  0.00    +0.000 C 
ATOM     31  C   UNL     1     111.460 129.177 143.670  0.00  0.00    +0.000 C 
ATOM     32  C   UNL     1     112.191 129.581 142.510  0.00  0.00    +0.000 C 
ENDBRANCH  28  29
ENDBRANCH  27  28
ENDBRANCH  10  27
TORSDOF 8
ENDMDL
MODEL 10
REMARK VINA RESULT:      -7.5      1.414      2.578
REMARK  Name = 44260023
REMARK  8 active torsions:
REMARK  status: ('A' for Active; 'I' for Inactive)
REMARK    1  A    between atoms: O_2  and  C_16
REMARK    2  A    between atoms: O_2  and  C_22
REMARK    3  A    between atoms: O_3  and  C_12
REMARK    4  A    between atoms: O_4  and  C_13
REMARK    5  A    between atoms: O_5  and  C_15
REMARK    6  A    between atoms: O_7  and  C_21
REMARK    7  A    between atoms: C_11  and  C_17
REMARK    8  A    between atoms: C_22  and  C_25
REMARK                            x       y       z     vdW  Elec       q    Type
REMARK                         _______ _______ _______ _____ _____    ______ ____
ROOT
ATOM      1  O   UNL     1     111.336 127.058 136.014  0.00  0.00    +0.000 OA
ATOM      2  O   UNL     1     113.552 128.154 136.131  0.00  0.00    +0.000 OA
ATOM      3  C   UNL     1     112.170 128.194 135.774  0.00  0.00    +0.000 A 
ATOM      4  C   UNL     1     111.431 127.828 135.735  0.00  0.00    +0.000 A 
ATOM      5  C   UNL     1     111.981 126.653 136.333  0.00  0.00    +0.000 A 
ATOM      6  C   UNL     1     110.752 128.240 135.405  0.00  0.00    +0.000 A 
ATOM      7  C   UNL     1     112.281 128.996 135.486  0.00  0.00    +0.000 A 
ATOM      8  C   UNL     1     112.814 127.789 136.092  0.00  0.00    +0.000 A 
ATOM      9  C   UNL     1     112.720 127.018 136.372  0.00  0.00    +0.000 A 
ATOM     10  C   UNL     1     110.845 129.042 135.113  0.00  0.00    +0.000 A 
ATOM     11  C   UNL     1     111.614 129.423 135.153  0.00  0.00    +0.000 A 
ENDROOT
BRANCH   5  13
ATOM     12  O   UNL     1     111.602 123.571 137.449  0.00  0.00    +0.000 OA
ATOM     13  C   UNL     1     111.886 125.883 136.613  0.00  0.00    +0.000 A 
ATOM     14  C   UNL     1     111.619 125.752 137.382  0.00  0.00    +0.000 A 
ATOM     15  C   UNL     1     112.059 125.242 136.121  0.00  0.00    +0.000 A 
ATOM     16  C   UNL     1     111.525 124.981 137.660  0.00  0.00    +0.000 A 
ATOM     17  C   UNL     1     111.964 124.471 136.401  0.00  0.00    +0.000 A 
ATOM     18  C   UNL     1     111.697 124.341 137.170  0.00  0.00    +0.000 A 
BRANCH  16  19
ATOM     19  O   UNL     1     111.258 124.851 138.430  0.00  0.00    +0.000 OA
ATOM     20  C   UNL     1     110.813 125.429 138.817  0.00  0.00    +0.000 C 
ENDBRANCH  16  19
ENDBRANCH   5  13
BRANCH   6  21
ATOM     21  O   UNL     1     110.018 127.867 135.371  0.00  0.00    +0.000 OA
ATOM     22  C   UNL     1     109.754 127.541 134.660  0.00  0.00    +0.000 C 
ENDBRANCH   6  21
BRANCH   7  23
ATOM     23  O   UNL     1     113.023 129.353 135.529  0.00  0.00    +0.000 OA
ATOM     24  C   UNL     1     113.106 130.090 135.892  0.00  0.00    +0.000 C 
ENDBRANCH   7  23
BRANCH   9  25
ATOM     25  O   UNL     1     113.364 126.613 136.690  0.00  0.00    +0.000 OA
ATOM     26  C   UNL     1     114.131 126.820 136.470  0.00  0.00    +0.000 C 
ENDBRANCH   9  25
BRANCH  10  27
ATOM     27  O   UNL     1     110.199 129.445 134.795  0.00  0.00    +0.000 OA
BRANCH  27  28
ATOM     28  C   UNL     1     110.006 130.199 135.069  0.00  0.00    +0.000 C 
BRANCH  28  29
ATOM     29  C   UNL     1     109.451 130.656 134.665  0.00  0.00    +0.000 C 
ATOM     30  C   UNL     1     109.140 131.334 135.017  0.00  0.00    +0.000 C 
ATOM     31  C   UNL     1     108.585 131.791 134.612  0.00  0.00    +0.000 C 
ATOM     32  C   UNL     1     109.384 131.555 135.774  0.00  0.00    +0.000 C 
ENDBRANCH  28  29
ENDBRANCH  27  28
ENDBRANCH  10  27
TORSDOF 8
ENDMDL
