MODEL 1
REMARK VINA RESULT:      -8.2      0.000      0.000
REMARK  Name = 15726097
REMARK  4 active torsions:
REMARK  status: ('A' for Active; 'I' for Inactive)
REMARK    1  A    between atoms: O_2  and  C_10
REMARK    2  A    between atoms: C_7  and  C_14
REMARK    3  A    between atoms: C_13  and  C_16
REMARK    4  A    between atoms: C_14  and  C_19
REMARK                            x       y       z     vdW  Elec       q    Type
REMARK                         _______ _______ _______ _____ _____    ______ ____
ROOT
ATOM      1  O   UNL     1     105.326 124.248 147.125  0.00  0.00    +0.000 OA
ATOM      2  O   UNL     1     102.579 125.001 147.643  0.00  0.00    +0.000 OA
ATOM      3  O   UNL     1     103.625 125.560 148.464  0.00  0.00    +0.000 OA
ATOM      4  C   UNL     1     103.934 124.627 147.384  0.00  0.00    +0.000 A 
ATOM      5  C   UNL     1     102.880 124.087 146.585  0.00  0.00    +0.000 A 
ATOM      6  C   UNL     1     104.486 124.198 146.946  0.00  0.00    +0.000 A 
ATOM      7  C   UNL     1     103.131 124.572 147.205  0.00  0.00    +0.000 A 
ATOM      8  C   UNL     1     103.432 123.658 146.147  0.00  0.00    +0.000 A 
ATOM      9  C   UNL     1     104.235 123.714 146.328  0.00  0.00    +0.000 A 
ATOM     10  C   UNL     1     104.184 125.135 148.031  0.00  0.00    +0.000 A 
ATOM     11  C   UNL     1     105.593 124.751 147.767  0.00  0.00    +0.000 A 
ATOM     12  C   UNL     1     105.019 125.197 148.224  0.00  0.00    +0.000 A 
ENDROOT
BRANCH  11  13
ATOM     13  C   UNL     1     106.397 124.805 147.946  0.00  0.00    +0.000 A 
ATOM     14  C   UNL     1     106.690 124.462 148.636  0.00  0.00    +0.000 A 
ATOM     15  C   UNL     1     106.907 125.201 147.433  0.00  0.00    +0.000 A 
ATOM     16  C   UNL     1     107.495 124.516 148.814  0.00  0.00    +0.000 A 
ATOM     17  C   UNL     1     107.711 125.255 147.611  0.00  0.00    +0.000 A 
ATOM     18  C   UNL     1     108.005 124.913 148.301  0.00  0.00    +0.000 A 
ENDBRANCH  11  13
BRANCH   8  19
ATOM     19  O   UNL     1     103.181 123.174 145.529  0.00  0.00    +0.000 OA
ATOM     20  C   UNL     1     103.735 122.773 145.068  0.00  0.00    +0.000 C 
ENDBRANCH   8  19
BRANCH   5  21
ATOM     21  C   UNL     1     102.077 124.031 146.406  0.00  0.00    +0.000 C 
BRANCH  21  23
ATOM     22  O   UNL     1     100.785 123.481 146.670  0.00  0.00    +0.000 OA
ATOM     23  C   UNL     1     101.588 123.538 146.852  0.00  0.00    +0.000 C 
ENDBRANCH  21  23
ENDBRANCH   5  21
TORSDOF 4
ENDMDL
MODEL 2
REMARK VINA RESULT:      -7.9      7.735      8.783
REMARK  Name = 15726097
REMARK  4 active torsions:
REMARK  status: ('A' for Active; 'I' for Inactive)
REMARK    1  A    between atoms: O_2  and  C_10
REMARK    2  A    between atoms: C_7  and  C_14
REMARK    3  A    between atoms: C_13  and  C_16
REMARK    4  A    between atoms: C_14  and  C_19
REMARK                            x       y       z     vdW  Elec       q    Type
REMARK                         _______ _______ _______ _____ _____    ______ ____
ROOT
ATOM      1  O   UNL     1     102.944 130.587 142.330  0.00  0.00    +0.000 OA
ATOM      2  O   UNL     1     103.897 128.370 140.731  0.00  0.00    +0.000 OA
ATOM      3  O   UNL     1     102.926 129.273 140.165  0.00  0.00    +0.000 OA
ATOM      4  C   UNL     1     103.429 129.464 141.523  0.00  0.00    +0.000 A 
ATOM      5  C   UNL     1     104.391 128.554 142.060  0.00  0.00    +0.000 A 
ATOM      6  C   UNL     1     103.437 129.889 142.230  0.00  0.00    +0.000 A 
ATOM      7  C   UNL     1     103.905 128.796 141.438  0.00  0.00    +0.000 A 
ATOM      8  C   UNL     1     104.399 128.980 142.767  0.00  0.00    +0.000 A 
ATOM      9  C   UNL     1     103.922 129.648 142.851  0.00  0.00    +0.000 A 
ATOM     10  C   UNL     1     102.927 129.706 140.868  0.00  0.00    +0.000 A 
ATOM     11  C   UNL     1     102.437 130.843 141.686  0.00  0.00    +0.000 A 
ATOM     12  C   UNL     1     102.428 130.400 140.950  0.00  0.00    +0.000 A 
ENDROOT
BRANCH  11  13
ATOM     13  C   UNL     1     101.960 131.511 141.773  0.00  0.00    +0.000 A 
ATOM     14  C   UNL     1     102.258 132.258 141.586  0.00  0.00    +0.000 A 
ATOM     15  C   UNL     1     101.186 131.433 142.048  0.00  0.00    +0.000 A 
ATOM     16  C   UNL     1     101.781 132.926 141.674  0.00  0.00    +0.000 A 
ATOM     17  C   UNL     1     100.710 132.101 142.135  0.00  0.00    +0.000 A 
ATOM     18  C   UNL     1     101.007 132.847 141.948  0.00  0.00    +0.000 A 
ENDBRANCH  11  13
BRANCH   8  19
ATOM     19  O   UNL     1     104.884 128.738 143.388  0.00  0.00    +0.000 OA
ATOM     20  C   UNL     1     104.800 129.080 144.134  0.00  0.00    +0.000 C 
ENDBRANCH   8  19
BRANCH   5  21
ATOM     21  C   UNL     1     104.868 127.887 141.975  0.00  0.00    +0.000 C 
BRANCH  21  23
ATOM     22  O   UNL     1     106.068 127.285 141.486  0.00  0.00    +0.000 OA
ATOM     23  C   UNL     1     105.627 127.960 141.658  0.00  0.00    +0.000 C 
ENDBRANCH  21  23
ENDBRANCH   5  21
TORSDOF 4
ENDMDL
MODEL 3
REMARK VINA RESULT:      -7.9      1.282      4.582
REMARK  Name = 15726097
REMARK  4 active torsions:
REMARK  status: ('A' for Active; 'I' for Inactive)
REMARK    1  A    between atoms: O_2  and  C_10
REMARK    2  A    between atoms: C_7  and  C_14
REMARK    3  A    between atoms: C_13  and  C_16
REMARK    4  A    between atoms: C_14  and  C_19
REMARK                            x       y       z     vdW  Elec       q    Type
REMARK                         _______ _______ _______ _____ _____    ______ ____
ROOT
ATOM      1  O   UNL     1     104.166 124.444 147.352  0.00  0.00    +0.000 OA
ATOM      2  O   UNL     1     106.726 124.947 146.099  0.00  0.00    +0.000 OA
ATOM      3  O   UNL     1     105.664 124.371 145.312  0.00  0.00    +0.000 OA
ATOM      4  C   UNL     1     105.463 124.699 146.720  0.00  0.00    +0.000 A 
ATOM      5  C   UNL     1     106.533 125.269 147.478  0.00  0.00    +0.000 A 
ATOM      6  C   UNL     1     104.978 124.724 147.387  0.00  0.00    +0.000 A 
ATOM      7  C   UNL     1     106.241 124.972 146.765  0.00  0.00    +0.000 A 
ATOM      8  C   UNL     1     106.047 125.294 148.145  0.00  0.00    +0.000 A 
ATOM      9  C   UNL     1     105.270 125.021 148.098  0.00  0.00    +0.000 A 
ATOM     10  C   UNL     1     105.171 124.392 145.973  0.00  0.00    +0.000 A 
ATOM     11  C   UNL     1     103.857 124.133 146.613  0.00  0.00    +0.000 A 
ATOM     12  C   UNL     1     104.362 124.107 145.919  0.00  0.00    +0.000 A 
ENDROOT
BRANCH  11  13
ATOM     13  C   UNL     1     103.079 123.862 146.570  0.00  0.00    +0.000 A 
ATOM     14  C   UNL     1     102.928 123.067 146.408  0.00  0.00    +0.000 A 
ATOM     15  C   UNL     1     102.452 124.385 146.690  0.00  0.00    +0.000 A 
ATOM     16  C   UNL     1     102.149 122.796 146.365  0.00  0.00    +0.000 A 
ATOM     17  C   UNL     1     101.674 124.113 146.647  0.00  0.00    +0.000 A 
ATOM     18  C   UNL     1     101.522 123.319 146.485  0.00  0.00    +0.000 A 
ENDBRANCH  11  13
BRANCH   8  19
ATOM     19  O   UNL     1     106.339 125.590 148.856  0.00  0.00    +0.000 OA
ATOM     20  C   UNL     1     105.819 125.790 149.464  0.00  0.00    +0.000 C 
ENDBRANCH   8  19
BRANCH   5  21
ATOM     21  C   UNL     1     107.310 125.541 147.523  0.00  0.00    +0.000 C 
BRANCH  21  23
ATOM     22  O   UNL     1     108.706 125.259 147.637  0.00  0.00    +0.000 OA
ATOM     23  C   UNL     1     107.921 125.015 147.702  0.00  0.00    +0.000 C 
ENDBRANCH  21  23
ENDBRANCH   5  21
TORSDOF 4
ENDMDL
MODEL 4
REMARK VINA RESULT:      -7.8     12.761     14.108
REMARK  Name = 15726097
REMARK  4 active torsions:
REMARK  status: ('A' for Active; 'I' for Inactive)
REMARK    1  A    between atoms: O_2  and  C_10
REMARK    2  A    between atoms: C_7  and  C_14
REMARK    3  A    between atoms: C_13  and  C_16
REMARK    4  A    between atoms: C_14  and  C_19
REMARK                            x       y       z     vdW  Elec       q    Type
REMARK                         _______ _______ _______ _____ _____    ______ ____
ROOT
ATOM      1  O   UNL     1     112.702 127.171 136.143  0.00  0.00    +0.000 OA
ATOM      2  O   UNL     1     113.553 124.496 136.850  0.00  0.00    +0.000 OA
ATOM      3  O   UNL     1     114.493 125.584 136.972  0.00  0.00    +0.000 OA
ATOM      4  C   UNL     1     113.130 125.816 136.500  0.00  0.00    +0.000 A 
ATOM      5  C   UNL     1     112.219 124.721 136.388  0.00  0.00    +0.000 A 
ATOM      6  C   UNL     1     112.544 126.330 136.230  0.00  0.00    +0.000 A 
ATOM      7  C   UNL     1     112.968 125.011 136.579  0.00  0.00    +0.000 A 
ATOM      8  C   UNL     1     111.633 125.235 136.118  0.00  0.00    +0.000 A 
ATOM      9  C   UNL     1     111.797 126.040 136.039  0.00  0.00    +0.000 A 
ATOM     10  C   UNL     1     113.913 126.107 136.702  0.00  0.00    +0.000 A 
ATOM     11  C   UNL     1     113.479 127.479 136.341  0.00  0.00    +0.000 A 
ATOM     12  C   UNL     1     114.089 126.944 136.622  0.00  0.00    +0.000 A 
ENDROOT
BRANCH  11  13
ATOM     13  C   UNL     1     113.639 128.285 136.261  0.00  0.00    +0.000 A 
ATOM     14  C   UNL     1     113.410 128.812 136.853  0.00  0.00    +0.000 A 
ATOM     15  C   UNL     1     114.027 128.563 135.588  0.00  0.00    +0.000 A 
ATOM     16  C   UNL     1     113.571 129.617 136.772  0.00  0.00    +0.000 A 
ATOM     17  C   UNL     1     114.187 129.369 135.508  0.00  0.00    +0.000 A 
ATOM     18  C   UNL     1     113.959 129.896 136.100  0.00  0.00    +0.000 A 
ENDBRANCH  11  13
BRANCH   8  19
ATOM     19  O   UNL     1     110.886 124.945 135.927  0.00  0.00    +0.000 OA
ATOM     20  C   UNL     1     110.381 125.389 135.449  0.00  0.00    +0.000 C 
ENDBRANCH   8  19
BRANCH   5  21
ATOM     21  C   UNL     1     112.057 123.916 136.467  0.00  0.00    +0.000 C 
BRANCH  21  23
ATOM     22  O   UNL     1     111.775 122.788 137.298  0.00  0.00    +0.000 OA
ATOM     23  C   UNL     1     111.895 123.599 137.213  0.00  0.00    +0.000 C 
ENDBRANCH  21  23
ENDBRANCH   5  21
TORSDOF 4
ENDMDL
MODEL 5
REMARK VINA RESULT:      -7.8     12.764     13.533
REMARK  Name = 15726097
REMARK  4 active torsions:
REMARK  status: ('A' for Active; 'I' for Inactive)
REMARK    1  A    between atoms: O_2  and  C_10
REMARK    2  A    between atoms: C_7  and  C_14
REMARK    3  A    between atoms: C_13  and  C_16
REMARK    4  A    between atoms: C_14  and  C_19
REMARK                            x       y       z     vdW  Elec       q    Type
REMARK                         _______ _______ _______ _____ _____    ______ ____
ROOT
ATOM      1  O   UNL     1     112.475 126.657 136.430  0.00  0.00    +0.000 OA
ATOM      2  O   UNL     1     109.781 126.141 135.508  0.00  0.00    +0.000 OA
ATOM      3  O   UNL     1     110.640 125.025 135.817  0.00  0.00    +0.000 OA
ATOM      4  C   UNL     1     111.111 126.399 135.963  0.00  0.00    +0.000 A 
ATOM      5  C   UNL     1     110.239 127.488 135.649  0.00  0.00    +0.000 A 
ATOM      6  C   UNL     1     111.707 126.934 136.161  0.00  0.00    +0.000 A 
ATOM      7  C   UNL     1     110.377 126.676 135.707  0.00  0.00    +0.000 A 
ATOM      8  C   UNL     1     110.835 128.022 135.848  0.00  0.00    +0.000 A 
ATOM      9  C   UNL     1     111.569 127.745 136.104  0.00  0.00    +0.000 A 
ATOM     10  C   UNL     1     111.242 125.552 136.018  0.00  0.00    +0.000 A 
ATOM     11  C   UNL     1     112.625 125.814 136.491  0.00  0.00    +0.000 A 
ATOM     12  C   UNL     1     112.004 125.257 136.284  0.00  0.00    +0.000 A 
ENDROOT
BRANCH  11  13
ATOM     13  C   UNL     1     113.359 125.540 136.747  0.00  0.00    +0.000 A 
ATOM     14  C   UNL     1     113.523 125.492 137.555  0.00  0.00    +0.000 A 
ATOM     15  C   UNL     1     113.930 125.313 136.196  0.00  0.00    +0.000 A 
ATOM     16  C   UNL     1     114.258 125.217 137.810  0.00  0.00    +0.000 A 
ATOM     17  C   UNL     1     114.665 125.039 136.453  0.00  0.00    +0.000 A 
ATOM     18  C   UNL     1     114.829 124.991 137.259  0.00  0.00    +0.000 A 
ENDBRANCH  11  13
BRANCH   8  19
ATOM     19  O   UNL     1     110.698 128.833 135.791  0.00  0.00    +0.000 OA
ATOM     20  C   UNL     1     111.332 129.361 135.805  0.00  0.00    +0.000 C 
ENDBRANCH   8  19
BRANCH   5  21
ATOM     21  C   UNL     1     109.505 127.764 135.393  0.00  0.00    +0.000 C 
BRANCH  21  23
ATOM     22  O   UNL     1     108.158 128.143 135.682  0.00  0.00    +0.000 OA
ATOM     23  C   UNL     1     108.879 127.827 135.928  0.00  0.00    +0.000 C 
ENDBRANCH  21  23
ENDBRANCH   5  21
TORSDOF 4
ENDMDL
MODEL 6
REMARK VINA RESULT:      -7.8     12.813     14.231
REMARK  Name = 15726097
REMARK  4 active torsions:
REMARK  status: ('A' for Active; 'I' for Inactive)
REMARK    1  A    between atoms: O_2  and  C_10
REMARK    2  A    between atoms: C_7  and  C_14
REMARK    3  A    between atoms: C_13  and  C_16
REMARK    4  A    between atoms: C_14  and  C_19
REMARK                            x       y       z     vdW  Elec       q    Type
REMARK                         _______ _______ _______ _____ _____    ______ ____
ROOT
ATOM      1  O   UNL     1     113.746 127.279 136.592  0.00  0.00    +0.000 OA
ATOM      2  O   UNL     1     111.582 125.439 136.037  0.00  0.00    +0.000 OA
ATOM      3  O   UNL     1     111.408 126.836 135.726  0.00  0.00    +0.000 OA
ATOM      4  C   UNL     1     112.652 126.345 136.313  0.00  0.00    +0.000 A 
ATOM      5  C   UNL     1     112.799 124.955 136.612  0.00  0.00    +0.000 A 
ATOM      6  C   UNL     1     113.414 126.486 136.596  0.00  0.00    +0.000 A 
ATOM      7  C   UNL     1     112.344 125.580 136.320  0.00  0.00    +0.000 A 
ATOM      8  C   UNL     1     113.561 125.097 136.895  0.00  0.00    +0.000 A 
ATOM      9  C   UNL     1     113.868 125.862 136.887  0.00  0.00    +0.000 A 
ATOM     10  C   UNL     1     112.169 126.987 136.007  0.00  0.00    +0.000 A 
ATOM     11  C   UNL     1     113.278 127.933 136.290  0.00  0.00    +0.000 A 
ATOM     12  C   UNL     1     112.484 127.786 135.996  0.00  0.00    +0.000 A 
ENDROOT
BRANCH  11  13
ATOM     13  C   UNL     1     113.588 128.698 136.283  0.00  0.00    +0.000 A 
ATOM     14  C   UNL     1     113.444 129.207 136.916  0.00  0.00    +0.000 A 
ATOM     15  C   UNL     1     114.043 128.952 135.644  0.00  0.00    +0.000 A 
ATOM     16  C   UNL     1     113.754 129.972 136.908  0.00  0.00    +0.000 A 
ATOM     17  C   UNL     1     114.353 129.717 135.637  0.00  0.00    +0.000 A 
ATOM     18  C   UNL     1     114.209 130.227 136.269  0.00  0.00    +0.000 A 
ENDBRANCH  11  13
BRANCH   8  19
ATOM     19  O   UNL     1     114.014 124.473 137.186  0.00  0.00    +0.000 OA
ATOM     20  C   UNL     1     114.811 124.591 137.366  0.00  0.00    +0.000 C 
ENDBRANCH   8  19
BRANCH   5  21
ATOM     21  C   UNL     1     112.490 124.190 136.620  0.00  0.00    +0.000 C 
BRANCH  21  23
ATOM     22  O   UNL     1     111.711 123.180 137.263  0.00  0.00    +0.000 OA
ATOM     23  C   UNL     1     111.970 123.962 137.219  0.00  0.00    +0.000 C 
ENDBRANCH  21  23
ENDBRANCH   5  21
TORSDOF 4
ENDMDL
MODEL 7
REMARK VINA RESULT:      -7.7      1.056      2.034
REMARK  Name = 15726097
REMARK  4 active torsions:
REMARK  status: ('A' for Active; 'I' for Inactive)
REMARK    1  A    between atoms: O_2  and  C_10
REMARK    2  A    between atoms: C_7  and  C_14
REMARK    3  A    between atoms: C_13  and  C_16
REMARK    4  A    between atoms: C_14  and  C_19
REMARK                            x       y       z     vdW  Elec       q    Type
REMARK                         _______ _______ _______ _____ _____    ______ ____
ROOT
ATOM      1  O   UNL     1     103.983 124.303 147.721  0.00  0.00    +0.000 OA
ATOM      2  O   UNL     1     103.130 123.353 145.124  0.00  0.00    +0.000 OA
ATOM      3  O   UNL     1     104.388 124.048 145.235  0.00  0.00    +0.000 OA
ATOM      4  C   UNL     1     103.548 123.820 146.408  0.00  0.00    +0.000 A 
ATOM      5  C   UNL     1     102.306 123.128 146.270  0.00  0.00    +0.000 A 
ATOM      6  C   UNL     1     103.414 123.902 147.217  0.00  0.00    +0.000 A 
ATOM      7  C   UNL     1     102.995 123.434 145.933  0.00  0.00    +0.000 A 
ATOM      8  C   UNL     1     102.171 123.209 147.080  0.00  0.00    +0.000 A 
ATOM      9  C   UNL     1     102.726 123.596 147.553  0.00  0.00    +0.000 A 
ATOM     10  C   UNL     1     104.262 124.135 146.046  0.00  0.00    +0.000 A 
ATOM     11  C   UNL     1     104.702 124.623 147.377  0.00  0.00    +0.000 A 
ATOM     12  C   UNL     1     104.842 124.538 146.534  0.00  0.00    +0.000 A 
ENDROOT
BRANCH  11  13
ATOM     13  C   UNL     1     105.254 125.009 147.853  0.00  0.00    +0.000 A 
ATOM     14  C   UNL     1     105.925 124.607 148.116  0.00  0.00    +0.000 A 
ATOM     15  C   UNL     1     105.135 125.797 148.066  0.00  0.00    +0.000 A 
ATOM     16  C   UNL     1     106.477 124.995 148.592  0.00  0.00    +0.000 A 
ATOM     17  C   UNL     1     105.687 126.184 148.542  0.00  0.00    +0.000 A 
ATOM     18  C   UNL     1     106.358 125.783 148.805  0.00  0.00    +0.000 A 
ENDBRANCH  11  13
BRANCH   8  19
ATOM     19  O   UNL     1     101.483 122.904 147.416  0.00  0.00    +0.000 OA
ATOM     20  C   UNL     1     101.432 122.804 148.233  0.00  0.00    +0.000 C 
ENDBRANCH   8  19
BRANCH   5  21
ATOM     21  C   UNL     1     101.753 122.741 145.796  0.00  0.00    +0.000 C 
BRANCH  21  23
ATOM     22  O   UNL     1     100.710 122.802 144.821  0.00  0.00    +0.000 OA
ATOM     23  C   UNL     1     101.200 123.179 145.367  0.00  0.00    +0.000 C 
ENDBRANCH  21  23
ENDBRANCH   5  21
TORSDOF 4
ENDMDL
