MODEL 1
REMARK VINA RESULT:     -11.5      0.000      0.000
REMARK  Name = 74977634
REMARK  7 active torsions:
REMARK  status: ('A' for Active; 'I' for Inactive)
REMARK    1  A    between atoms: O_3  and  C_32
REMARK    2  A    between atoms: O_3  and  C_35
REMARK    3  A    between atoms: C_21  and  C_25
REMARK    4  A    between atoms: C_22  and  C_28
REMARK    5  A    between atoms: C_31  and  C_42
REMARK    6  A    between atoms: C_33  and  C_43
REMARK    7  A    between atoms: C_46  and  C_48
REMARK                            x       y       z     vdW  Elec       q    Type
REMARK                         _______ _______ _______ _____ _____    ______ ____
ROOT
ATOM      1  O   UNL     1     113.140 128.959 139.692  0.00  0.00    +0.000 OA
ATOM      2  O   UNL     1     113.707 126.137 139.387  0.00  0.00    +0.000 OA
ATOM      3  O   UNL     1     114.185 126.823 140.563  0.00  0.00    +0.000 OA
ATOM      4  C   UNL     1     112.682 128.220 138.528  0.00  0.00    +0.000 A 
ATOM      5  C   UNL     1     112.964 126.827 138.380  0.00  0.00    +0.000 A 
ATOM      6  C   UNL     1     112.622 127.521 138.094  0.00  0.00    +0.000 A 
ATOM      7  C   UNL     1     113.084 128.224 139.249  0.00  0.00    +0.000 A 
ATOM      8  C   UNL     1     113.366 126.831 139.101  0.00  0.00    +0.000 A 
ATOM      9  C   UNL     1     113.425 127.530 139.534  0.00  0.00    +0.000 A 
ATOM     10  C   UNL     1     113.846 127.522 140.284  0.00  0.00    +0.000 A 
ATOM     11  C   UNL     1     113.557 128.969 140.443  0.00  0.00    +0.000 A 
ATOM     12  C   UNL     1     113.912 128.247 140.741  0.00  0.00    +0.000 A 
ENDROOT
BRANCH   4  17
ATOM     13  O   UNL     1     111.569 129.113 138.457  0.00  0.00    +0.000 OA
ATOM     14  O   UNL     1     113.541 129.210 137.527  0.00  0.00    +0.000 OA
ATOM     15  O   UNL     1     112.859 130.598 136.954  0.00  0.00    +0.000 OA
ATOM     16  O   UNL     1     111.316 130.996 137.383  0.00  0.00    +0.000 OA
ATOM     17  C   UNL     1     112.341 128.914 138.242  0.00  0.00    +0.000 C 
ATOM     18  C   UNL     1     112.770 129.409 137.741  0.00  0.00    +0.000 C 
ATOM     19  C   UNL     1     112.428 130.103 137.455  0.00  0.00    +0.000 C 
ATOM     20  C   UNL     1     111.657 130.303 137.669  0.00  0.00    +0.000 C 
ATOM     21  C   UNL     1     111.227 129.808 138.171  0.00  0.00    +0.000 C 
BRANCH  21  23
ATOM     22  O   UNL     1     110.159 129.776 139.119  0.00  0.00    +0.000 OA
ATOM     23  C   UNL     1     110.456 130.007 138.385  0.00  0.00    +0.000 C 
ENDBRANCH  21  23
ENDBRANCH   4  17
BRANCH   5  28
ATOM     24  O   UNL     1     113.414 125.991 137.312  0.00  0.00    +0.000 OA
ATOM     25  O   UNL     1     111.824 125.701 138.779  0.00  0.00    +0.000 OA
ATOM     26  O   UNL     1     111.705 124.304 137.911  0.00  0.00    +0.000 OA
ATOM     27  O   UNL     1     112.726 124.030 136.643  0.00  0.00    +0.000 OA
ATOM     28  C   UNL     1     112.904 126.127 137.946  0.00  0.00    +0.000 C 
ATOM     29  C   UNL     1     112.335 125.565 138.145  0.00  0.00    +0.000 C 
ATOM     30  C   UNL     1     112.276 124.866 137.711  0.00  0.00    +0.000 C 
ATOM     31  C   UNL     1     112.786 124.729 137.077  0.00  0.00    +0.000 C 
ATOM     32  C   UNL     1     113.355 125.292 136.878  0.00  0.00    +0.000 C 
BRANCH  32  34
ATOM     33  O   UNL     1     114.667 125.339 136.312  0.00  0.00    +0.000 OA
ATOM     34  C   UNL     1     113.866 125.156 136.244  0.00  0.00    +0.000 C 
ENDBRANCH  32  34
ENDBRANCH   5  28
BRANCH  11  37
ATOM     35  O   UNL     1     114.947 131.389 141.060  0.00  0.00    +0.000 OA
ATOM     36  O   UNL     1     113.787 131.772 142.171  0.00  0.00    +0.000 OA
ATOM     37  C   UNL     1     113.615 129.670 140.875  0.00  0.00    +0.000 A 
ATOM     38  C   UNL     1     114.252 130.179 140.752  0.00  0.00    +0.000 A 
ATOM     39  C   UNL     1     113.035 129.862 141.430  0.00  0.00    +0.000 A 
ATOM     40  C   UNL     1     114.309 130.880 141.184  0.00  0.00    +0.000 A 
ATOM     41  C   UNL     1     113.092 130.562 141.862  0.00  0.00    +0.000 A 
ATOM     42  C   UNL     1     113.730 131.072 141.739  0.00  0.00    +0.000 A 
ENDBRANCH  11  37
BRANCH   6  43
ATOM     43  O   UNL     1     112.221 127.516 137.373  0.00  0.00    +0.000 OA
BRANCH  43  48
ATOM     44  O   UNL     1     110.844 127.256 137.091  0.00  0.00    +0.000 OA
ATOM     45  O   UNL     1     112.505 127.759 135.766  0.00  0.00    +0.000 OA
ATOM     46  O   UNL     1     111.270 127.620 134.680  0.00  0.00    +0.000 OA
ATOM     47  O   UNL     1     109.752 127.239 135.201  0.00  0.00    +0.000 OA
ATOM     48  C   UNL     1     111.603 127.447 136.830  0.00  0.00    +0.000 C 
ATOM     49  C   UNL     1     111.745 127.568 136.027  0.00  0.00    +0.000 C 
ATOM     50  C   UNL     1     111.128 127.499 135.483  0.00  0.00    +0.000 C 
ATOM     51  C   UNL     1     110.368 127.308 135.744  0.00  0.00    +0.000 C 
ATOM     52  C   UNL     1     110.226 127.187 136.548  0.00  0.00    +0.000 C 
ATOM     53  C   UNL     1     109.468 126.996 136.808  0.00  0.00    +0.000 C 
ENDBRANCH  43  48
ENDBRANCH   6  43
TORSDOF 7
ENDMDL
MODEL 2
REMARK VINA RESULT:     -11.4      2.117      5.193
REMARK  Name = 74977634
REMARK  7 active torsions:
REMARK  status: ('A' for Active; 'I' for Inactive)
REMARK    1  A    between atoms: O_3  and  C_32
REMARK    2  A    between atoms: O_3  and  C_35
REMARK    3  A    between atoms: C_21  and  C_25
REMARK    4  A    between atoms: C_22  and  C_28
REMARK    5  A    between atoms: C_31  and  C_42
REMARK    6  A    between atoms: C_33  and  C_43
REMARK    7  A    between atoms: C_46  and  C_48
REMARK                            x       y       z     vdW  Elec       q    Type
REMARK                         _______ _______ _______ _____ _____    ______ ____
ROOT
ATOM      1  O   UNL     1     109.811 130.830 136.878  0.00  0.00    +0.000 OA
ATOM      2  O   UNL     1     111.178 131.524 139.333  0.00  0.00    +0.000 OA
ATOM      3  O   UNL     1     110.154 132.407 138.829  0.00  0.00    +0.000 OA
ATOM      4  C   UNL     1     110.849 129.977 137.429  0.00  0.00    +0.000 A 
ATOM      5  C   UNL     1     111.523 130.321 138.641  0.00  0.00    +0.000 A 
ATOM      6  C   UNL     1     111.413 129.806 138.007  0.00  0.00    +0.000 A 
ATOM      7  C   UNL     1     110.395 130.663 137.486  0.00  0.00    +0.000 A 
ATOM      8  C   UNL     1     111.068 131.008 138.699  0.00  0.00    +0.000 A 
ATOM      9  C   UNL     1     110.505 131.178 138.121  0.00  0.00    +0.000 A 
ATOM     10  C   UNL     1     110.038 131.897 138.191  0.00  0.00    +0.000 A 
ATOM     11  C   UNL     1     109.335 131.543 136.932  0.00  0.00    +0.000 A 
ATOM     12  C   UNL     1     109.449 132.080 137.592  0.00  0.00    +0.000 A 
ENDROOT
BRANCH   4  17
ATOM     13  O   UNL     1     110.177 128.860 136.844  0.00  0.00    +0.000 OA
ATOM     14  O   UNL     1     111.755 130.147 136.061  0.00  0.00    +0.000 OA
ATOM     15  O   UNL     1     111.537 129.117 134.792  0.00  0.00    +0.000 OA
ATOM     16  O   UNL     1     110.412 127.914 134.891  0.00  0.00    +0.000 OA
ATOM     17  C   UNL     1     110.740 129.461 136.794  0.00  0.00    +0.000 C 
ATOM     18  C   UNL     1     111.193 129.546 136.110  0.00  0.00    +0.000 C 
ATOM     19  C   UNL     1     111.084 129.031 135.476  0.00  0.00    +0.000 C 
ATOM     20  C   UNL     1     110.521 128.429 135.525  0.00  0.00    +0.000 C 
ATOM     21  C   UNL     1     110.067 128.344 136.209  0.00  0.00    +0.000 C 
BRANCH  21  23
ATOM     22  O   UNL     1     108.792 127.875 136.651  0.00  0.00    +0.000 OA
ATOM     23  C   UNL     1     109.504 127.742 136.258  0.00  0.00    +0.000 C 
ENDBRANCH  21  23
ENDBRANCH   4  17
BRANCH   5  28
ATOM     24  O   UNL     1     112.883 130.315 139.079  0.00  0.00    +0.000 OA
ATOM     25  O   UNL     1     111.058 129.653 140.077  0.00  0.00    +0.000 OA
ATOM     26  O   UNL     1     112.185 129.314 141.232  0.00  0.00    +0.000 OA
ATOM     27  O   UNL     1     113.778 129.641 140.952  0.00  0.00    +0.000 OA
ATOM     28  C   UNL     1     112.087 130.151 139.220  0.00  0.00    +0.000 C 
ATOM     29  C   UNL     1     111.854 129.817 139.937  0.00  0.00    +0.000 C 
ATOM     30  C   UNL     1     112.418 129.648 140.514  0.00  0.00    +0.000 C 
ATOM     31  C   UNL     1     113.215 129.812 140.375  0.00  0.00    +0.000 C 
ATOM     32  C   UNL     1     113.446 130.145 139.656  0.00  0.00    +0.000 C 
BRANCH  32  34
ATOM     33  O   UNL     1     114.465 131.032 139.188  0.00  0.00    +0.000 OA
ATOM     34  C   UNL     1     114.243 130.309 139.517  0.00  0.00    +0.000 C 
ENDBRANCH  32  34
ENDBRANCH   5  28
BRANCH  11  37
ATOM     35  O   UNL     1     106.662 131.333 135.942  0.00  0.00    +0.000 OA
ATOM     36  O   UNL     1     107.085 132.214 134.612  0.00  0.00    +0.000 OA
ATOM     37  C   UNL     1     108.772 131.711 136.352  0.00  0.00    +0.000 A 
ATOM     38  C   UNL     1     107.999 131.438 136.437  0.00  0.00    +0.000 A 
ATOM     39  C   UNL     1     108.984 132.151 135.687  0.00  0.00    +0.000 A 
ATOM     40  C   UNL     1     107.437 131.606 135.857  0.00  0.00    +0.000 A 
ATOM     41  C   UNL     1     108.422 132.319 135.107  0.00  0.00    +0.000 A 
ATOM     42  C   UNL     1     107.647 132.046 135.192  0.00  0.00    +0.000 A 
ENDBRANCH  11  37
BRANCH   6  43
ATOM     43  O   UNL     1     111.867 129.120 137.950  0.00  0.00    +0.000 OA
BRANCH  43  48
ATOM     44  O   UNL     1     111.623 127.811 138.470  0.00  0.00    +0.000 OA
ATOM     45  O   UNL     1     113.285 128.593 137.290  0.00  0.00    +0.000 OA
ATOM     46  O   UNL     1     113.750 127.021 137.481  0.00  0.00    +0.000 OA
ATOM     47  O   UNL     1     112.797 125.976 138.331  0.00  0.00    +0.000 OA
ATOM     48  C   UNL     1     112.099 128.333 138.045  0.00  0.00    +0.000 C 
ATOM     49  C   UNL     1     112.808 128.070 137.716  0.00  0.00    +0.000 C 
ATOM     50  C   UNL     1     113.041 127.285 137.811  0.00  0.00    +0.000 C 
ATOM     51  C   UNL     1     112.564 126.762 138.236  0.00  0.00    +0.000 C 
ATOM     52  C   UNL     1     111.855 127.025 138.565  0.00  0.00    +0.000 C 
ATOM     53  C   UNL     1     111.379 126.503 138.990  0.00  0.00    +0.000 C 
ENDBRANCH  43  48
ENDBRANCH   6  43
TORSDOF 7
ENDMDL
MODEL 3
REMARK VINA RESULT:     -11.3      1.901      4.807
REMARK  Name = 74977634
REMARK  7 active torsions:
REMARK  status: ('A' for Active; 'I' for Inactive)
REMARK    1  A    between atoms: O_3  and  C_32
REMARK    2  A    between atoms: O_3  and  C_35
REMARK    3  A    between atoms: C_21  and  C_25
REMARK    4  A    between atoms: C_22  and  C_28
REMARK    5  A    between atoms: C_31  and  C_42
REMARK    6  A    between atoms: C_33  and  C_43
REMARK    7  A    between atoms: C_46  and  C_48
REMARK                            x       y       z     vdW  Elec       q    Type
REMARK                         _______ _______ _______ _____ _____    ______ ____
ROOT
ATOM      1  O   UNL     1     112.531 127.340 138.081  0.00  0.00    +0.000 OA
ATOM      2  O   UNL     1     110.724 128.090 140.213  0.00  0.00    +0.000 OA
ATOM      3  O   UNL     1     111.355 126.793 140.255  0.00  0.00    +0.000 OA
ATOM      4  C   UNL     1     111.871 128.633 138.088  0.00  0.00    +0.000 A 
ATOM      5  C   UNL     1     110.979 129.001 139.142  0.00  0.00    +0.000 A 
ATOM      6  C   UNL     1     111.361 129.182 138.433  0.00  0.00    +0.000 A 
ATOM      7  C   UNL     1     111.998 127.903 138.451  0.00  0.00    +0.000 A 
ATOM      8  C   UNL     1     111.106 128.271 139.505  0.00  0.00    +0.000 A 
ATOM      9  C   UNL     1     111.616 127.723 139.159  0.00  0.00    +0.000 A 
ATOM     10  C   UNL     1     111.741 126.966 139.547  0.00  0.00    +0.000 A 
ATOM     11  C   UNL     1     112.668 126.578 138.454  0.00  0.00    +0.000 A 
ATOM     12  C   UNL     1     112.271 126.390 139.191  0.00  0.00    +0.000 A 
ENDROOT
BRANCH   4  17
ATOM     13  O   UNL     1     111.905 128.608 136.659  0.00  0.00    +0.000 OA
ATOM     14  O   UNL     1     113.327 129.407 138.110  0.00  0.00    +0.000 OA
ATOM     15  O   UNL     1     114.091 129.769 136.694  0.00  0.00    +0.000 OA
ATOM     16  O   UNL     1     113.398 129.357 135.254  0.00  0.00    +0.000 OA
ATOM     17  C   UNL     1     112.252 128.814 137.379  0.00  0.00    +0.000 C 
ATOM     18  C   UNL     1     112.981 129.201 137.390  0.00  0.00    +0.000 C 
ATOM     19  C   UNL     1     113.362 129.382 136.682  0.00  0.00    +0.000 C 
ATOM     20  C   UNL     1     113.016 129.176 135.962  0.00  0.00    +0.000 C 
ATOM     21  C   UNL     1     112.287 128.789 135.950  0.00  0.00    +0.000 C 
BRANCH  21  23
ATOM     22  O   UNL     1     111.471 127.907 135.177  0.00  0.00    +0.000 OA
ATOM     23  C   UNL     1     111.941 128.583 135.230  0.00  0.00    +0.000 C 
ENDBRANCH  21  23
ENDBRANCH   4  17
BRANCH   5  28
ATOM     24  O   UNL     1     110.775 130.177 139.927  0.00  0.00    +0.000 OA
ATOM     25  O   UNL     1     109.346 128.844 138.956  0.00  0.00    +0.000 OA
ATOM     26  O   UNL     1     108.327 129.941 139.648  0.00  0.00    +0.000 OA
ATOM     27  O   UNL     1     108.940 131.196 140.527  0.00  0.00    +0.000 OA
ATOM     28  C   UNL     1     110.468 129.550 139.488  0.00  0.00    +0.000 C 
ATOM     29  C   UNL     1     109.653 129.472 139.395  0.00  0.00    +0.000 C 
ATOM     30  C   UNL     1     109.144 130.020 139.741  0.00  0.00    +0.000 C 
ATOM     31  C   UNL     1     109.450 130.648 140.181  0.00  0.00    +0.000 C 
ATOM     32  C   UNL     1     110.266 130.726 140.274  0.00  0.00    +0.000 C 
BRANCH  32  34
ATOM     33  O   UNL     1     111.223 131.235 141.206  0.00  0.00    +0.000 OA
ATOM     34  C   UNL     1     110.572 131.354 140.713  0.00  0.00    +0.000 C 
ENDBRANCH  32  34
ENDBRANCH   5  28
BRANCH  11  37
ATOM     35  O   UNL     1     113.139 124.483 136.568  0.00  0.00    +0.000 OA
ATOM     36  O   UNL     1     114.712 124.393 137.061  0.00  0.00    +0.000 OA
ATOM     37  C   UNL     1     113.179 126.032 138.105  0.00  0.00    +0.000 A 
ATOM     38  C   UNL     1     112.904 125.531 137.511  0.00  0.00    +0.000 A 
ATOM     39  C   UNL     1     113.965 125.987 138.352  0.00  0.00    +0.000 A 
ATOM     40  C   UNL     1     113.415 124.985 137.163  0.00  0.00    +0.000 A 
ATOM     41  C   UNL     1     114.476 125.440 138.004  0.00  0.00    +0.000 A 
ATOM     42  C   UNL     1     114.201 124.939 137.409  0.00  0.00    +0.000 A 
ENDBRANCH  11  37
BRANCH   6  43
ATOM     43  O   UNL     1     111.233 129.912 138.070  0.00  0.00    +0.000 OA
BRANCH  43  48
ATOM     44  O   UNL     1     110.247 130.301 137.112  0.00  0.00    +0.000 OA
ATOM     45  O   UNL     1     111.854 131.441 138.052  0.00  0.00    +0.000 OA
ATOM     46  O   UNL     1     111.178 132.594 137.085  0.00  0.00    +0.000 OA
ATOM     47  O   UNL     1     109.881 132.219 136.136  0.00  0.00    +0.000 OA
ATOM     48  C   UNL     1     110.894 130.488 137.586  0.00  0.00    +0.000 C 
ATOM     49  C   UNL     1     111.205 131.253 137.577  0.00  0.00    +0.000 C 
ATOM     50  C   UNL     1     110.867 131.830 137.094  0.00  0.00    +0.000 C 
ATOM     51  C   UNL     1     110.219 131.642 136.619  0.00  0.00    +0.000 C 
ATOM     52  C   UNL     1     109.908 130.877 136.628  0.00  0.00    +0.000 C 
ATOM     53  C   UNL     1     109.261 130.690 136.154  0.00  0.00    +0.000 C 
ENDBRANCH  43  48
ENDBRANCH   6  43
TORSDOF 7
ENDMDL
MODEL 4
REMARK VINA RESULT:     -11.1      1.168      4.979
REMARK  Name = 74977634
REMARK  7 active torsions:
REMARK  status: ('A' for Active; 'I' for Inactive)
REMARK    1  A    between atoms: O_3  and  C_32
REMARK    2  A    between atoms: O_3  and  C_35
REMARK    3  A    between atoms: C_21  and  C_25
REMARK    4  A    between atoms: C_22  and  C_28
REMARK    5  A    between atoms: C_31  and  C_42
REMARK    6  A    between atoms: C_33  and  C_43
REMARK    7  A    between atoms: C_46  and  C_48
REMARK                            x       y       z     vdW  Elec       q    Type
REMARK                         _______ _______ _______ _____ _____    ______ ____
ROOT
ATOM      1  O   UNL     1     112.818 126.984 138.275  0.00  0.00    +0.000 OA
ATOM      2  O   UNL     1     113.929 128.048 140.726  0.00  0.00    +0.000 OA
ATOM      3  O   UNL     1     114.354 126.746 140.273  0.00  0.00    +0.000 OA
ATOM      4  C   UNL     1     112.425 128.289 138.775  0.00  0.00    +0.000 A 
ATOM      5  C   UNL     1     112.974 128.812 139.986  0.00  0.00    +0.000 A 
ATOM      6  C   UNL     1     112.473 128.893 139.336  0.00  0.00    +0.000 A 
ATOM      7  C   UNL     1     112.878 127.605 138.865  0.00  0.00    +0.000 A 
ATOM      8  C   UNL     1     113.428 128.128 140.076  0.00  0.00    +0.000 A 
ATOM      9  C   UNL     1     113.379 127.526 139.516  0.00  0.00    +0.000 A 
ATOM     10  C   UNL     1     113.856 126.818 139.620  0.00  0.00    +0.000 A 
ATOM     11  C   UNL     1     113.287 126.269 138.363  0.00  0.00    +0.000 A 
ATOM     12  C   UNL     1     113.809 126.186 139.040  0.00  0.00    +0.000 A 
ENDROOT
BRANCH   4  17
ATOM     13  O   UNL     1     111.144 128.099 138.170  0.00  0.00    +0.000 OA
ATOM     14  O   UNL     1     112.978 128.988 137.388  0.00  0.00    +0.000 OA
ATOM     15  O   UNL     1     111.976 129.149 136.087  0.00  0.00    +0.000 OA
ATOM     16  O   UNL     1     110.419 128.610 136.175  0.00  0.00    +0.000 OA
ATOM     17  C   UNL     1     111.923 128.369 138.125  0.00  0.00    +0.000 C 
ATOM     18  C   UNL     1     112.200 128.718 137.431  0.00  0.00    +0.000 C 
ATOM     19  C   UNL     1     111.699 128.799 136.781  0.00  0.00    +0.000 C 
ATOM     20  C   UNL     1     110.920 128.530 136.825  0.00  0.00    +0.000 C 
ATOM     21  C   UNL     1     110.642 128.180 137.519  0.00  0.00    +0.000 C 
BRANCH  21  23
ATOM     22  O   UNL     1     109.679 127.256 138.029  0.00  0.00    +0.000 OA
ATOM     23  C   UNL     1     109.864 127.911 137.562  0.00  0.00    +0.000 C 
ENDBRANCH  21  23
ENDBRANCH   4  17
BRANCH   5  28
ATOM     24  O   UNL     1     112.503 129.426 141.187  0.00  0.00    +0.000 OA
ATOM     25  O   UNL     1     114.113 129.997 139.829  0.00  0.00    +0.000 OA
ATOM     26  O   UNL     1     114.210 131.203 140.950  0.00  0.00    +0.000 OA
ATOM     27  O   UNL     1     113.169 131.224 142.230  0.00  0.00    +0.000 OA
ATOM     28  C   UNL     1     113.023 129.416 140.547  0.00  0.00    +0.000 C 
ATOM     29  C   UNL     1     113.592 130.008 140.468  0.00  0.00    +0.000 C 
ATOM     30  C   UNL     1     113.640 130.610 141.029  0.00  0.00    +0.000 C 
ATOM     31  C   UNL     1     113.120 130.621 141.670  0.00  0.00    +0.000 C 
ATOM     32  C   UNL     1     112.551 130.029 141.748  0.00  0.00    +0.000 C 
BRANCH  32  34
ATOM     33  O   UNL     1     111.861 129.343 142.795  0.00  0.00    +0.000 OA
ATOM     34  C   UNL     1     112.030 130.040 142.388  0.00  0.00    +0.000 C 
ENDBRANCH  32  34
ENDBRANCH   5  28
BRANCH  11  37
ATOM     35  O   UNL     1     111.891 124.044 137.237  0.00  0.00    +0.000 OA
ATOM     36  O   UNL     1     113.085 123.864 136.112  0.00  0.00    +0.000 OA
ATOM     37  C   UNL     1     113.236 125.668 137.800  0.00  0.00    +0.000 A 
ATOM     38  C   UNL     1     112.589 125.157 137.800  0.00  0.00    +0.000 A 
ATOM     39  C   UNL     1     113.833 125.578 137.238  0.00  0.00    +0.000 A 
ATOM     40  C   UNL     1     112.539 124.556 137.237  0.00  0.00    +0.000 A 
ATOM     41  C   UNL     1     113.783 124.976 136.675  0.00  0.00    +0.000 A 
ATOM     42  C   UNL     1     113.135 124.465 136.675  0.00  0.00    +0.000 A 
ENDBRANCH  11  37
BRANCH   6  43
ATOM     43  O   UNL     1     112.020 129.576 139.246  0.00  0.00    +0.000 OA
BRANCH  43  48
ATOM     44  O   UNL     1     110.701 129.871 139.709  0.00  0.00    +0.000 OA
ATOM     45  O   UNL     1     112.110 131.069 138.550  0.00  0.00    +0.000 OA
ATOM     46  O   UNL     1     110.835 132.111 138.665  0.00  0.00    +0.000 OA
ATOM     47  O   UNL     1     109.471 131.659 139.476  0.00  0.00    +0.000 OA
ATOM     48  C   UNL     1     111.382 130.097 139.304  0.00  0.00    +0.000 C 
ATOM     49  C   UNL     1     111.427 130.843 138.956  0.00  0.00    +0.000 C 
ATOM     50  C   UNL     1     110.790 131.364 139.013  0.00  0.00    +0.000 C 
ATOM     51  C   UNL     1     110.108 131.138 139.419  0.00  0.00    +0.000 C 
ATOM     52  C   UNL     1     110.063 130.391 139.767  0.00  0.00    +0.000 C 
ATOM     53  C   UNL     1     109.381 130.166 140.172  0.00  0.00    +0.000 C 
ENDBRANCH  43  48
ENDBRANCH   6  43
TORSDOF 7
ENDMDL
MODEL 5
REMARK VINA RESULT:     -11.1      1.206      5.699
REMARK  Name = 74977634
REMARK  7 active torsions:
REMARK  status: ('A' for Active; 'I' for Inactive)
REMARK    1  A    between atoms: O_3  and  C_32
REMARK    2  A    between atoms: O_3  and  C_35
REMARK    3  A    between atoms: C_21  and  C_25
REMARK    4  A    between atoms: C_22  and  C_28
REMARK    5  A    between atoms: C_31  and  C_42
REMARK    6  A    between atoms: C_33  and  C_43
REMARK    7  A    between atoms: C_46  and  C_48
REMARK                            x       y       z     vdW  Elec       q    Type
REMARK                         _______ _______ _______ _____ _____    ______ ____
ROOT
ATOM      1  O   UNL     1     112.167 126.622 137.496  0.00  0.00    +0.000 OA
ATOM      2  O   UNL     1     111.915 129.048 135.936  0.00  0.00    +0.000 OA
ATOM      3  O   UNL     1     111.901 127.775 135.257  0.00  0.00    +0.000 OA
ATOM      4  C   UNL     1     112.175 127.929 138.129  0.00  0.00    +0.000 A 
ATOM      5  C   UNL     1     112.051 129.125 137.358  0.00  0.00    +0.000 A 
ATOM      6  C   UNL     1     112.138 128.753 138.088  0.00  0.00    +0.000 A 
ATOM      7  C   UNL     1     112.127 127.479 137.440  0.00  0.00    +0.000 A 
ATOM      8  C   UNL     1     112.002 128.675 136.667  0.00  0.00    +0.000 A 
ATOM      9  C   UNL     1     112.040 127.852 136.709  0.00  0.00    +0.000 A 
ATOM     10  C   UNL     1     111.988 127.394 135.984  0.00  0.00    +0.000 A 
ATOM     11  C   UNL     1     112.117 126.148 136.781  0.00  0.00    +0.000 A 
ATOM     12  C   UNL     1     112.027 126.536 136.021  0.00  0.00    +0.000 A 
ENDROOT
BRANCH   4  17
ATOM     13  O   UNL     1     113.016 127.388 139.150  0.00  0.00    +0.000 OA
ATOM     14  O   UNL     1     110.842 127.520 139.010  0.00  0.00    +0.000 OA
ATOM     15  O   UNL     1     111.015 126.775 140.472  0.00  0.00    +0.000 OA
ATOM     16  O   UNL     1     112.522 126.438 141.053  0.00  0.00    +0.000 OA
ATOM     17  C   UNL     1     112.262 127.556 138.860  0.00  0.00    +0.000 C 
ATOM     18  C   UNL     1     111.596 127.352 139.301  0.00  0.00    +0.000 C 
ATOM     19  C   UNL     1     111.682 126.979 140.031  0.00  0.00    +0.000 C 
ATOM     20  C   UNL     1     112.436 126.811 140.322  0.00  0.00    +0.000 C 
ATOM     21  C   UNL     1     113.103 127.015 139.882  0.00  0.00    +0.000 C 
BRANCH  21  23
ATOM     22  O   UNL     1     114.412 126.475 139.689  0.00  0.00    +0.000 OA
ATOM     23  C   UNL     1     113.857 126.847 140.172  0.00  0.00    +0.000 C 
ENDBRANCH  21  23
ENDBRANCH   4  17
BRANCH   5  28
ATOM     24  O   UNL     1     111.307 130.338 137.490  0.00  0.00    +0.000 OA
ATOM     25  O   UNL     1     113.387 129.993 136.925  0.00  0.00    +0.000 OA
ATOM     26  O   UNL     1     113.310 131.638 136.841  0.00  0.00    +0.000 OA
ATOM     27  O   UNL     1     111.898 132.417 137.190  0.00  0.00    +0.000 OA
ATOM     28  C   UNL     1     112.013 129.949 137.315  0.00  0.00    +0.000 C 
ATOM     29  C   UNL     1     112.681 130.382 137.099  0.00  0.00    +0.000 C 
ATOM     30  C   UNL     1     112.642 131.205 137.058  0.00  0.00    +0.000 C 
ATOM     31  C   UNL     1     111.936 131.595 137.232  0.00  0.00    +0.000 C 
ATOM     32  C   UNL     1     111.268 131.160 137.448  0.00  0.00    +0.000 C 
BRANCH  32  34
ATOM     33  O   UNL     1     109.849 131.267 137.320  0.00  0.00    +0.000 OA
ATOM     34  C   UNL     1     110.562 131.550 137.622  0.00  0.00    +0.000 C 
ENDBRANCH  32  34
ENDBRANCH   5  28
BRANCH  11  37
ATOM     35  O   UNL     1     113.657 123.747 136.968  0.00  0.00    +0.000 OA
ATOM     36  O   UNL     1     112.268 122.856 136.962  0.00  0.00    +0.000 OA
ATOM     37  C   UNL     1     112.155 125.325 136.826  0.00  0.00    +0.000 A 
ATOM     38  C   UNL     1     112.887 124.948 136.875  0.00  0.00    +0.000 A 
ATOM     39  C   UNL     1     111.460 124.879 136.823  0.00  0.00    +0.000 A 
ATOM     40  C   UNL     1     112.924 124.125 136.920  0.00  0.00    +0.000 A 
ATOM     41  C   UNL     1     111.498 124.056 136.868  0.00  0.00    +0.000 A 
ATOM     42  C   UNL     1     112.230 123.679 136.917  0.00  0.00    +0.000 A 
ENDBRANCH  11  37
BRANCH   6  43
ATOM     43  O   UNL     1     112.186 129.203 138.778  0.00  0.00    +0.000 OA
BRANCH  43  48
ATOM     44  O   UNL     1     113.330 129.748 139.439  0.00  0.00    +0.000 OA
ATOM     45  O   UNL     1     111.208 129.842 139.942  0.00  0.00    +0.000 OA
ATOM     46  O   UNL     1     111.862 130.708 141.185  0.00  0.00    +0.000 OA
ATOM     47  O   UNL     1     113.494 130.934 141.264  0.00  0.00    +0.000 OA
ATOM     48  C   UNL     1     112.514 129.635 139.399  0.00  0.00    +0.000 C 
ATOM     49  C   UNL     1     112.025 129.955 139.981  0.00  0.00    +0.000 C 
ATOM     50  C   UNL     1     112.351 130.388 140.603  0.00  0.00    +0.000 C 
ATOM     51  C   UNL     1     113.168 130.501 140.642  0.00  0.00    +0.000 C 
ATOM     52  C   UNL     1     113.657 130.181 140.060  0.00  0.00    +0.000 C 
ATOM     53  C   UNL     1     114.473 130.294 140.100  0.00  0.00    +0.000 C 
ENDBRANCH  43  48
ENDBRANCH   6  43
TORSDOF 7
ENDMDL
MODEL 6
REMARK VINA RESULT:     -11.1      2.040      5.445
REMARK  Name = 74977634
REMARK  7 active torsions:
REMARK  status: ('A' for Active; 'I' for Inactive)
REMARK    1  A    between atoms: O_3  and  C_32
REMARK    2  A    between atoms: O_3  and  C_35
REMARK    3  A    between atoms: C_21  and  C_25
REMARK    4  A    between atoms: C_22  and  C_28
REMARK    5  A    between atoms: C_31  and  C_42
REMARK    6  A    between atoms: C_33  and  C_43
REMARK    7  A    between atoms: C_46  and  C_48
REMARK                            x       y       z     vdW  Elec       q    Type
REMARK                         _______ _______ _______ _____ _____    ______ ____
ROOT
ATOM      1  O   UNL     1     112.138 127.467 137.327  0.00  0.00    +0.000 OA
ATOM      2  O   UNL     1     112.164 129.972 135.878  0.00  0.00    +0.000 OA
ATOM      3  O   UNL     1     113.039 128.907 135.450  0.00  0.00    +0.000 OA
ATOM      4  C   UNL     1     111.278 128.571 137.716  0.00  0.00    +0.000 A 
ATOM      5  C   UNL     1     111.293 129.806 136.999  0.00  0.00    +0.000 A 
ATOM      6  C   UNL     1     110.997 129.340 137.611  0.00  0.00    +0.000 A 
ATOM      7  C   UNL     1     111.854 128.269 137.208  0.00  0.00    +0.000 A 
ATOM      8  C   UNL     1     111.869 129.505 136.490  0.00  0.00    +0.000 A 
ATOM      9  C   UNL     1     112.149 128.737 136.596  0.00  0.00    +0.000 A 
ATOM     10  C   UNL     1     112.749 128.433 136.060  0.00  0.00    +0.000 A 
ATOM     11  C   UNL     1     112.738 127.147 136.802  0.00  0.00    +0.000 A 
ATOM     12  C   UNL     1     113.045 127.634 136.164  0.00  0.00    +0.000 A 
ENDROOT
BRANCH   4  17
ATOM     13  O   UNL     1     111.361 128.098 139.062  0.00  0.00    +0.000 OA
ATOM     14  O   UNL     1     109.932 127.649 137.475  0.00  0.00    +0.000 OA
ATOM     15  O   UNL     1     109.340 126.715 138.700  0.00  0.00    +0.000 OA
ATOM     16  O   UNL     1     110.096 126.703 140.166  0.00  0.00    +0.000 OA
ATOM     17  C   UNL     1     110.983 128.104 138.328  0.00  0.00    +0.000 C 
ATOM     18  C   UNL     1     110.309 127.643 138.208  0.00  0.00    +0.000 C 
ATOM     19  C   UNL     1     110.014 127.176 138.821  0.00  0.00    +0.000 C 
ATOM     20  C   UNL     1     110.392 127.170 139.554  0.00  0.00    +0.000 C 
ATOM     21  C   UNL     1     111.066 127.631 139.675  0.00  0.00    +0.000 C 
BRANCH  21  23
ATOM     22  O   UNL     1     112.260 127.735 140.453  0.00  0.00    +0.000 OA
ATOM     23  C   UNL     1     111.444 127.624 140.408  0.00  0.00    +0.000 C 
ENDBRANCH  21  23
ENDBRANCH   4  17
BRANCH   5  28
ATOM     24  O   UNL     1     110.292 130.703 136.512  0.00  0.00    +0.000 OA
ATOM     25  O   UNL     1     112.171 131.090 137.552  0.00  0.00    +0.000 OA
ATOM     26  O   UNL     1     111.611 132.626 137.341  0.00  0.00    +0.000 OA
ATOM     27  O   UNL     1     110.171 132.881 136.577  0.00  0.00    +0.000 OA
ATOM     28  C   UNL     1     111.012 130.576 136.893  0.00  0.00    +0.000 C 
ATOM     29  C   UNL     1     111.452 131.217 137.170  0.00  0.00    +0.000 C 
ATOM     30  C   UNL     1     111.171 131.985 137.064  0.00  0.00    +0.000 C 
ATOM     31  C   UNL     1     110.450 132.113 136.682  0.00  0.00    +0.000 C 
ATOM     32  C   UNL     1     110.012 131.471 136.406  0.00  0.00    +0.000 C 
BRANCH  32  34
ATOM     33  O   UNL     1     109.111 131.186 135.334  0.00  0.00    +0.000 OA
ATOM     34  C   UNL     1     109.291 131.599 136.024  0.00  0.00    +0.000 C 
ENDBRANCH  32  34
ENDBRANCH   5  28
BRANCH  11  37
ATOM     35  O   UNL     1     114.572 125.326 138.022  0.00  0.00    +0.000 OA
ATOM     36  O   UNL     1     113.850 124.070 137.232  0.00  0.00    +0.000 OA
ATOM     37  C   UNL     1     113.016 126.378 136.910  0.00  0.00    +0.000 A 
ATOM     38  C   UNL     1     113.655 126.237 137.412  0.00  0.00    +0.000 A 
ATOM     39  C   UNL     1     112.655 125.750 136.514  0.00  0.00    +0.000 A 
ATOM     40  C   UNL     1     113.932 125.467 137.519  0.00  0.00    +0.000 A 
ATOM     41  C   UNL     1     112.933 124.980 136.622  0.00  0.00    +0.000 A 
ATOM     42  C   UNL     1     113.572 124.839 137.125  0.00  0.00    +0.000 A 
ENDBRANCH  11  37
BRANCH   6  43
ATOM     43  O   UNL     1     110.421 129.641 138.119  0.00  0.00    +0.000 OA
BRANCH  43  48
ATOM     44  O   UNL     1     110.564 130.358 139.347  0.00  0.00    +0.000 OA
ATOM     45  O   UNL     1     108.780 129.752 138.245  0.00  0.00    +0.000 OA
ATOM     46  O   UNL     1     108.102 130.524 139.536  0.00  0.00    +0.000 OA
ATOM     47  O   UNL     1     109.065 131.185 140.701  0.00  0.00    +0.000 OA
ATOM     48  C   UNL     1     110.083 130.027 138.765  0.00  0.00    +0.000 C 
ATOM     49  C   UNL     1     109.262 130.083 138.828  0.00  0.00    +0.000 C 
ATOM     50  C   UNL     1     108.923 130.469 139.473  0.00  0.00    +0.000 C 
ATOM     51  C   UNL     1     109.405 130.799 140.056  0.00  0.00    +0.000 C 
ATOM     52  C   UNL     1     110.226 130.744 139.993  0.00  0.00    +0.000 C 
ATOM     53  C   UNL     1     110.707 131.075 140.575  0.00  0.00    +0.000 C 
ENDBRANCH  43  48
ENDBRANCH   6  43
TORSDOF 7
ENDMDL
MODEL 7
REMARK VINA RESULT:     -11.0      1.763      4.534
REMARK  Name = 74977634
REMARK  7 active torsions:
REMARK  status: ('A' for Active; 'I' for Inactive)
REMARK    1  A    between atoms: O_3  and  C_32
REMARK    2  A    between atoms: O_3  and  C_35
REMARK    3  A    between atoms: C_21  and  C_25
REMARK    4  A    between atoms: C_22  and  C_28
REMARK    5  A    between atoms: C_31  and  C_42
REMARK    6  A    between atoms: C_33  and  C_43
REMARK    7  A    between atoms: C_46  and  C_48
REMARK                            x       y       z     vdW  Elec       q    Type
REMARK                         _______ _______ _______ _____ _____    ______ ____
ROOT
ATOM      1  O   UNL     1     110.137 129.098 136.668  0.00  0.00    +0.000 OA
ATOM      2  O   UNL     1     111.404 126.764 135.518  0.00  0.00    +0.000 OA
ATOM      3  O   UNL     1     110.732 127.695 134.646  0.00  0.00    +0.000 OA
ATOM      4  C   UNL     1     110.827 128.128 137.501  0.00  0.00    +0.000 A 
ATOM      5  C   UNL     1     111.452 126.977 136.931  0.00  0.00    +0.000 A 
ATOM      6  C   UNL     1     111.260 127.431 137.592  0.00  0.00    +0.000 A 
ATOM      7  C   UNL     1     110.587 128.370 136.750  0.00  0.00    +0.000 A 
ATOM      8  C   UNL     1     111.212 127.218 136.179  0.00  0.00    +0.000 A 
ATOM      9  C   UNL     1     110.780 127.915 136.089  0.00  0.00    +0.000 A 
ATOM     10  C   UNL     1     110.535 128.156 135.301  0.00  0.00    +0.000 A 
ATOM     11  C   UNL     1     109.884 129.354 135.889  0.00  0.00    +0.000 A 
ATOM     12  C   UNL     1     110.084 128.881 135.201  0.00  0.00    +0.000 A 
ENDROOT
BRANCH   4  17
ATOM     13  O   UNL     1     111.141 129.186 138.409  0.00  0.00    +0.000 OA
ATOM     14  O   UNL     1     109.431 127.833 138.328  0.00  0.00    +0.000 OA
ATOM     15  O   UNL     1     109.045 128.742 139.650  0.00  0.00    +0.000 OA
ATOM     16  O   UNL     1     110.058 129.948 140.144  0.00  0.00    +0.000 OA
ATOM     17  C   UNL     1     110.635 128.583 138.162  0.00  0.00    +0.000 C 
ATOM     18  C   UNL     1     109.937 128.436 138.576  0.00  0.00    +0.000 C 
ATOM     19  C   UNL     1     109.744 128.890 139.236  0.00  0.00    +0.000 C 
ATOM     20  C   UNL     1     110.250 129.493 139.484  0.00  0.00    +0.000 C 
ATOM     21  C   UNL     1     110.949 129.641 139.070  0.00  0.00    +0.000 C 
BRANCH  21  23
ATOM     22  O   UNL     1     111.809 130.739 138.762  0.00  0.00    +0.000 OA
ATOM     23  C   UNL     1     111.454 130.244 139.318  0.00  0.00    +0.000 C 
ENDBRANCH  21  23
ENDBRANCH   4  17
BRANCH   5  28
ATOM     24  O   UNL     1     112.709 126.303 137.012  0.00  0.00    +0.000 OA
ATOM     25  O   UNL     1     110.669 125.537 137.129  0.00  0.00    +0.000 OA
ATOM     26  O   UNL     1     111.534 124.145 137.309  0.00  0.00    +0.000 OA
ATOM     27  O   UNL     1     113.184 124.191 137.290  0.00  0.00    +0.000 OA
ATOM     28  C   UNL     1     111.885 126.280 137.021  0.00  0.00    +0.000 C 
ATOM     29  C   UNL     1     111.494 125.560 137.120  0.00  0.00    +0.000 C 
ATOM     30  C   UNL     1     111.927 124.865 137.210  0.00  0.00    +0.000 C 
ATOM     31  C   UNL     1     112.752 124.887 137.201  0.00  0.00    +0.000 C 
ATOM     32  C   UNL     1     113.142 125.607 137.102  0.00  0.00    +0.000 C 
BRANCH  32  34
ATOM     33  O   UNL     1     114.363 126.047 136.502  0.00  0.00    +0.000 OA
ATOM     34  C   UNL     1     113.968 125.629 137.092  0.00  0.00    +0.000 C 
ENDBRANCH  32  34
ENDBRANCH   5  28
BRANCH  11  37
ATOM     35  O   UNL     1     107.374 130.722 135.839  0.00  0.00    +0.000 OA
ATOM     36  O   UNL     1     108.155 132.145 135.541  0.00  0.00    +0.000 OA
ATOM     37  C   UNL     1     109.451 130.052 135.802  0.00  0.00    +0.000 A 
ATOM     38  C   UNL     1     108.629 130.038 135.864  0.00  0.00    +0.000 A 
ATOM     39  C   UNL     1     109.842 130.763 135.653  0.00  0.00    +0.000 A 
ATOM     40  C   UNL     1     108.197 130.736 135.777  0.00  0.00    +0.000 A 
ATOM     41  C   UNL     1     109.410 131.461 135.566  0.00  0.00    +0.000 A 
ATOM     42  C   UNL     1     108.587 131.447 135.628  0.00  0.00    +0.000 A 
ENDBRANCH  11  37
BRANCH   6  43
ATOM     43  O   UNL     1     111.500 127.190 138.343  0.00  0.00    +0.000 OA
BRANCH  43  48
ATOM     44  O   UNL     1     112.690 127.500 139.071  0.00  0.00    +0.000 OA
ATOM     45  O   UNL     1     110.968 126.269 139.605  0.00  0.00    +0.000 OA
ATOM     46  O   UNL     1     111.892 126.119 140.963  0.00  0.00    +0.000 OA
ATOM     47  O   UNL     1     113.348 126.889 141.060  0.00  0.00    +0.000 OA
ATOM     48  C   UNL     1     111.962 127.115 139.022  0.00  0.00    +0.000 C 
ATOM     49  C   UNL     1     111.697 126.655 139.653  0.00  0.00    +0.000 C 
ATOM     50  C   UNL     1     112.158 126.579 140.333  0.00  0.00    +0.000 C 
ATOM     51  C   UNL     1     112.887 126.965 140.381  0.00  0.00    +0.000 C 
ATOM     52  C   UNL     1     113.152 127.425 139.750  0.00  0.00    +0.000 C 
ATOM     53  C   UNL     1     113.880 127.810 139.799  0.00  0.00    +0.000 C 
ENDBRANCH  43  48
ENDBRANCH   6  43
TORSDOF 7
ENDMDL
MODEL 8
REMARK VINA RESULT:     -10.8      1.999      5.303
REMARK  Name = 74977634
REMARK  7 active torsions:
REMARK  status: ('A' for Active; 'I' for Inactive)
REMARK    1  A    between atoms: O_3  and  C_32
REMARK    2  A    between atoms: O_3  and  C_35
REMARK    3  A    between atoms: C_21  and  C_25
REMARK    4  A    between atoms: C_22  and  C_28
REMARK    5  A    between atoms: C_31  and  C_42
REMARK    6  A    between atoms: C_33  and  C_43
REMARK    7  A    between atoms: C_46  and  C_48
REMARK                            x       y       z     vdW  Elec       q    Type
REMARK                         _______ _______ _______ _____ _____    ______ ____
ROOT
ATOM      1  O   UNL     1     111.428 127.069 137.852  0.00  0.00    +0.000 OA
ATOM      2  O   UNL     1     111.034 128.357 140.414  0.00  0.00    +0.000 OA
ATOM      3  O   UNL     1     111.772 127.119 140.360  0.00  0.00    +0.000 OA
ATOM      4  C   UNL     1     110.692 128.316 137.963  0.00  0.00    +0.000 A 
ATOM      5  C   UNL     1     110.499 128.950 139.229  0.00  0.00    +0.000 A 
ATOM      6  C   UNL     1     110.385 128.937 138.412  0.00  0.00    +0.000 A 
ATOM      7  C   UNL     1     111.113 127.710 138.331  0.00  0.00    +0.000 A 
ATOM      8  C   UNL     1     110.920 128.344 139.598  0.00  0.00    +0.000 A 
ATOM      9  C   UNL     1     111.226 127.724 139.148  0.00  0.00    +0.000 A 
ATOM     10  C   UNL     1     111.663 127.097 139.543  0.00  0.00    +0.000 A 
ATOM     11  C   UNL     1     111.867 126.434 138.230  0.00  0.00    +0.000 A 
ATOM     12  C   UNL     1     111.985 126.449 139.080  0.00  0.00    +0.000 A 
ENDROOT
BRANCH   4  17
ATOM     13  O   UNL     1     111.140 128.642 136.646  0.00  0.00    +0.000 OA
ATOM     14  O   UNL     1     109.342 127.612 137.330  0.00  0.00    +0.000 OA
ATOM     15  O   UNL     1     109.113 127.584 135.696  0.00  0.00    +0.000 OA
ATOM     16  O   UNL     1     110.237 128.262 134.695  0.00  0.00    +0.000 OA
ATOM     17  C   UNL     1     110.578 128.303 137.146  0.00  0.00    +0.000 C 
ATOM     18  C   UNL     1     109.903 127.951 136.829  0.00  0.00    +0.000 C 
ATOM     19  C   UNL     1     109.789 127.937 136.012  0.00  0.00    +0.000 C 
ATOM     20  C   UNL     1     110.351 128.276 135.512  0.00  0.00    +0.000 C 
ATOM     21  C   UNL     1     111.027 128.629 135.828  0.00  0.00    +0.000 C 
BRANCH  21  23
ATOM     22  O   UNL     1     112.387 128.943 135.528  0.00  0.00    +0.000 OA
ATOM     23  C   UNL     1     111.588 128.967 135.328  0.00  0.00    +0.000 C 
ENDBRANCH  21  23
ENDBRANCH   4  17
BRANCH   5  28
ATOM     24  O   UNL     1     109.394 129.573 139.886  0.00  0.00    +0.000 OA
ATOM     25  O   UNL     1     111.481 130.185 139.713  0.00  0.00    +0.000 OA
ATOM     26  O   UNL     1     110.868 131.425 140.611  0.00  0.00    +0.000 OA
ATOM     27  O   UNL     1     109.271 131.430 141.027  0.00  0.00    +0.000 OA
ATOM     28  C   UNL     1     110.192 129.571 139.679  0.00  0.00    +0.000 C 
ATOM     29  C   UNL     1     110.683 130.188 139.920  0.00  0.00    +0.000 C 
ATOM     30  C   UNL     1     110.376 130.807 140.370  0.00  0.00    +0.000 C 
ATOM     31  C   UNL     1     109.577 130.810 140.578  0.00  0.00    +0.000 C 
ATOM     32  C   UNL     1     109.087 130.193 140.335  0.00  0.00    +0.000 C 
BRANCH  32  34
ATOM     33  O   UNL     1     107.895 129.485 140.685  0.00  0.00    +0.000 OA
ATOM     34  C   UNL     1     108.288 130.196 140.544  0.00  0.00    +0.000 C 
ENDBRANCH  32  34
ENDBRANCH   5  28
BRANCH  11  37
ATOM     35  O   UNL     1     111.587 123.829 137.088  0.00  0.00    +0.000 OA
ATOM     36  O   UNL     1     113.090 123.960 136.421  0.00  0.00    +0.000 OA
ATOM     37  C   UNL     1     112.172 125.815 137.778  0.00  0.00    +0.000 A 
ATOM     38  C   UNL     1     111.727 125.132 137.659  0.00  0.00    +0.000 A 
ATOM     39  C   UNL     1     112.924 125.881 137.444  0.00  0.00    +0.000 A 
ATOM     40  C   UNL     1     112.033 124.513 137.207  0.00  0.00    +0.000 A 
ATOM     41  C   UNL     1     113.230 125.263 136.991  0.00  0.00    +0.000 A 
ATOM     42  C   UNL     1     112.784 124.578 136.873  0.00  0.00    +0.000 A 
ENDBRANCH  11  37
BRANCH   6  43
ATOM     43  O   UNL     1     109.964 129.543 138.044  0.00  0.00    +0.000 OA
BRANCH  43  48
ATOM     44  O   UNL     1     110.424 130.787 137.510  0.00  0.00    +0.000 OA
ATOM     45  O   UNL     1     108.420 129.925 137.605  0.00  0.00    +0.000 OA
ATOM     46  O   UNL     1     108.108 131.360 136.851  0.00  0.00    +0.000 OA
ATOM     47  O   UNL     1     109.339 132.412 136.537  0.00  0.00    +0.000 OA
ATOM     48  C   UNL     1     109.809 130.261 137.667  0.00  0.00    +0.000 C 
ATOM     49  C   UNL     1     109.037 130.452 137.448  0.00  0.00    +0.000 C 
ATOM     50  C   UNL     1     108.880 131.169 137.071  0.00  0.00    +0.000 C 
ATOM     51  C   UNL     1     109.496 131.695 136.914  0.00  0.00    +0.000 C 
ATOM     52  C   UNL     1     110.268 131.504 137.133  0.00  0.00    +0.000 C 
ATOM     53  C   UNL     1     110.883 132.030 136.976  0.00  0.00    +0.000 C 
ENDBRANCH  43  48
ENDBRANCH   6  43
TORSDOF 7
ENDMDL
MODEL 9
REMARK VINA RESULT:     -10.7      1.503      5.433
REMARK  Name = 74977634
REMARK  7 active torsions:
REMARK  status: ('A' for Active; 'I' for Inactive)
REMARK    1  A    between atoms: O_3  and  C_32
REMARK    2  A    between atoms: O_3  and  C_35
REMARK    3  A    between atoms: C_21  and  C_25
REMARK    4  A    between atoms: C_22  and  C_28
REMARK    5  A    between atoms: C_31  and  C_42
REMARK    6  A    between atoms: C_33  and  C_43
REMARK    7  A    between atoms: C_46  and  C_48
REMARK                            x       y       z     vdW  Elec       q    Type
REMARK                         _______ _______ _______ _____ _____    ______ ____
ROOT
ATOM      1  O   UNL     1     112.775 127.189 137.856  0.00  0.00    +0.000 OA
ATOM      2  O   UNL     1     111.403 129.250 136.357  0.00  0.00    +0.000 OA
ATOM      3  O   UNL     1     111.961 128.123 135.648  0.00  0.00    +0.000 OA
ATOM      4  C   UNL     1     112.196 128.343 138.520  0.00  0.00    +0.000 A 
ATOM      5  C   UNL     1     111.519 129.360 137.777  0.00  0.00    +0.000 A 
ATOM      6  C   UNL     1     111.783 129.058 138.498  0.00  0.00    +0.000 A 
ATOM      7  C   UNL     1     112.344 127.931 137.821  0.00  0.00    +0.000 A 
ATOM      8  C   UNL     1     111.667 128.948 137.077  0.00  0.00    +0.000 A 
ATOM      9  C   UNL     1     112.080 128.234 137.100  0.00  0.00    +0.000 A 
ATOM     10  C   UNL     1     112.229 127.814 136.365  0.00  0.00    +0.000 A 
ATOM     11  C   UNL     1     112.933 126.755 137.132  0.00  0.00    +0.000 A 
ATOM     12  C   UNL     1     112.658 127.070 136.381  0.00  0.00    +0.000 A 
ENDROOT
BRANCH   4  17
ATOM     13  O   UNL     1     111.985 127.518 139.667  0.00  0.00    +0.000 OA
ATOM     14  O   UNL     1     113.672 128.785 139.108  0.00  0.00    +0.000 OA
ATOM     15  O   UNL     1     114.200 128.182 140.550  0.00  0.00    +0.000 OA
ATOM     16  O   UNL     1     113.251 127.136 141.403  0.00  0.00    +0.000 OA
ATOM     17  C   UNL     1     112.460 128.042 139.240  0.00  0.00    +0.000 C 
ATOM     18  C   UNL     1     113.198 128.262 139.535  0.00  0.00    +0.000 C 
ATOM     19  C   UNL     1     113.462 127.960 140.256  0.00  0.00    +0.000 C 
ATOM     20  C   UNL     1     112.988 127.437 140.683  0.00  0.00    +0.000 C 
ATOM     21  C   UNL     1     112.249 127.216 140.389  0.00  0.00    +0.000 C 
BRANCH  21  23
ATOM     22  O   UNL     1     111.340 126.114 140.421  0.00  0.00    +0.000 OA
ATOM     23  C   UNL     1     111.775 126.693 140.815  0.00  0.00    +0.000 C 
ENDBRANCH  21  23
ENDBRANCH   4  17
BRANCH   5  28
ATOM     24  O   UNL     1     110.286 130.079 137.844  0.00  0.00    +0.000 OA
ATOM     25  O   UNL     1     112.333 130.778 137.555  0.00  0.00    +0.000 OA
ATOM     26  O   UNL     1     111.507 132.205 137.510  0.00  0.00    +0.000 OA
ATOM     27  O   UNL     1     109.867 132.215 137.688  0.00  0.00    +0.000 OA
ATOM     28  C   UNL     1     111.106 130.074 137.755  0.00  0.00    +0.000 C 
ATOM     29  C   UNL     1     111.513 130.783 137.644  0.00  0.00    +0.000 C 
ATOM     30  C   UNL     1     111.100 131.496 137.621  0.00  0.00    +0.000 C 
ATOM     31  C   UNL     1     110.279 131.501 137.710  0.00  0.00    +0.000 C 
ATOM     32  C   UNL     1     109.873 130.792 137.821  0.00  0.00    +0.000 C 
BRANCH  32  34
ATOM     33  O   UNL     1     108.598 130.190 137.586  0.00  0.00    +0.000 OA
ATOM     34  C   UNL     1     109.052 130.797 137.910  0.00  0.00    +0.000 C 
ENDBRANCH  32  34
ENDBRANCH   5  28
BRANCH  11  37
ATOM     35  O   UNL     1     112.936 123.899 137.237  0.00  0.00    +0.000 OA
ATOM     36  O   UNL     1     114.587 123.901 137.234  0.00  0.00    +0.000 OA
ATOM     37  C   UNL     1     113.346 126.041 137.157  0.00  0.00    +0.000 A 
ATOM     38  C   UNL     1     112.935 125.327 137.184  0.00  0.00    +0.000 A 
ATOM     39  C   UNL     1     114.171 126.042 137.156  0.00  0.00    +0.000 A 
ATOM     40  C   UNL     1     113.348 124.614 137.210  0.00  0.00    +0.000 A 
ATOM     41  C   UNL     1     114.585 125.329 137.181  0.00  0.00    +0.000 A 
ATOM     42  C   UNL     1     114.173 124.614 137.208  0.00  0.00    +0.000 A 
ENDBRANCH  11  37
BRANCH   6  43
ATOM     43  O   UNL     1     111.635 129.470 139.197  0.00  0.00    +0.000 OA
BRANCH  43  48
ATOM     44  O   UNL     1     110.533 129.375 140.102  0.00  0.00    +0.000 OA
ATOM     45  O   UNL     1     112.312 130.639 140.144  0.00  0.00    +0.000 OA
ATOM     46  O   UNL     1     111.549 131.130 141.522  0.00  0.00    +0.000 OA
ATOM     47  O   UNL     1     110.108 130.450 141.954  0.00  0.00    +0.000 OA
ATOM     48  C   UNL     1     111.252 129.714 139.886  0.00  0.00    +0.000 C 
ATOM     49  C   UNL     1     111.591 130.299 140.360  0.00  0.00    +0.000 C 
ATOM     50  C   UNL     1     111.210 130.545 141.049  0.00  0.00    +0.000 C 
ATOM     51  C   UNL     1     110.489 130.205 141.265  0.00  0.00    +0.000 C 
ATOM     52  C   UNL     1     110.151 129.620 140.792  0.00  0.00    +0.000 C 
ATOM     53  C   UNL     1     109.431 129.280 141.008  0.00  0.00    +0.000 C 
ENDBRANCH  43  48
ENDBRANCH   6  43
TORSDOF 7
ENDMDL
MODEL 10
REMARK VINA RESULT:     -10.6      1.549      1.938
REMARK  Name = 74977634
REMARK  7 active torsions:
REMARK  status: ('A' for Active; 'I' for Inactive)
REMARK    1  A    between atoms: O_3  and  C_32
REMARK    2  A    between atoms: O_3  and  C_35
REMARK    3  A    between atoms: C_21  and  C_25
REMARK    4  A    between atoms: C_22  and  C_28
REMARK    5  A    between atoms: C_31  and  C_42
REMARK    6  A    between atoms: C_33  and  C_43
REMARK    7  A    between atoms: C_46  and  C_48
REMARK                            x       y       z     vdW  Elec       q    Type
REMARK                         _______ _______ _______ _____ _____    ______ ____
ROOT
ATOM      1  O   UNL     1     111.652 128.604 140.679  0.00  0.00    +0.000 OA
ATOM      2  O   UNL     1     112.035 125.808 140.039  0.00  0.00    +0.000 OA
ATOM      3  O   UNL     1     111.727 126.178 141.399  0.00  0.00    +0.000 OA
ATOM      4  C   UNL     1     111.964 128.178 139.327  0.00  0.00    +0.000 A 
ATOM      5  C   UNL     1     112.152 126.796 139.013  0.00  0.00    +0.000 A 
ATOM      6  C   UNL     1     112.128 127.586 138.775  0.00  0.00    +0.000 A 
ATOM      7  C   UNL     1     111.823 127.979 140.115  0.00  0.00    +0.000 A 
ATOM      8  C   UNL     1     112.011 126.597 139.801  0.00  0.00    +0.000 A 
ATOM      9  C   UNL     1     111.847 127.189 140.351  0.00  0.00    +0.000 A 
ATOM     10  C   UNL     1     111.701 126.970 141.170  0.00  0.00    +0.000 A 
ATOM     11  C   UNL     1     111.505 128.404 141.502  0.00  0.00    +0.000 A 
ATOM     12  C   UNL     1     111.529 127.582 141.748  0.00  0.00    +0.000 A 
ENDROOT
BRANCH   4  17
ATOM     13  O   UNL     1     111.226 129.303 138.845  0.00  0.00    +0.000 OA
ATOM     14  O   UNL     1     113.341 129.084 139.339  0.00  0.00    +0.000 OA
ATOM     15  O   UNL     1     113.294 130.664 138.864  0.00  0.00    +0.000 OA
ATOM     16  O   UNL     1     111.868 131.336 138.377  0.00  0.00    +0.000 OA
ATOM     17  C   UNL     1     111.940 128.967 139.089  0.00  0.00    +0.000 C 
ATOM     18  C   UNL     1     112.628 129.421 139.095  0.00  0.00    +0.000 C 
ATOM     19  C   UNL     1     112.605 130.210 138.858  0.00  0.00    +0.000 C 
ATOM     20  C   UNL     1     111.892 130.547 138.614  0.00  0.00    +0.000 C 
ATOM     21  C   UNL     1     111.202 130.093 138.608  0.00  0.00    +0.000 C 
BRANCH  21  23
ATOM     22  O   UNL     1     109.778 130.168 138.687  0.00  0.00    +0.000 OA
ATOM     23  C   UNL     1     110.490 130.430 138.364  0.00  0.00    +0.000 C 
ENDBRANCH  21  23
ENDBRANCH   4  17
BRANCH   5  28
ATOM     24  O   UNL     1     113.096 126.061 138.231  0.00  0.00    +0.000 OA
ATOM     25  O   UNL     1     110.924 125.898 138.373  0.00  0.00    +0.000 OA
ATOM     26  O   UNL     1     111.254 124.714 137.272  0.00  0.00    +0.000 OA
ATOM     27  O   UNL     1     112.812 124.428 136.811  0.00  0.00    +0.000 OA
ATOM     28  C   UNL     1     112.317 126.204 138.462  0.00  0.00    +0.000 C 
ATOM     29  C   UNL     1     111.703 125.755 138.142  0.00  0.00    +0.000 C 
ATOM     30  C   UNL     1     111.868 125.163 137.592  0.00  0.00    +0.000 C 
ATOM     31  C   UNL     1     112.648 125.020 137.361  0.00  0.00    +0.000 C 
ATOM     32  C   UNL     1     113.261 125.470 137.681  0.00  0.00    +0.000 C 
BRANCH  32  34
ATOM     33  O   UNL     1     114.644 125.327 138.011  0.00  0.00    +0.000 OA
ATOM     34  C   UNL     1     114.040 125.326 137.450  0.00  0.00    +0.000 C 
ENDBRANCH  32  34
ENDBRANCH   5  28
BRANCH  11  37
ATOM     35  O   UNL     1     109.632 130.145 142.780  0.00  0.00    +0.000 OA
ATOM     36  O   UNL     1     110.849 130.781 143.695  0.00  0.00    +0.000 OA
ATOM     37  C   UNL     1     111.340 128.998 142.050  0.00  0.00    +0.000 A 
ATOM     38  C   UNL     1     110.568 129.274 142.141  0.00  0.00    +0.000 A 
ATOM     39  C   UNL     1     111.949 129.317 142.508  0.00  0.00    +0.000 A 
ATOM     40  C   UNL     1     110.405 129.869 142.689  0.00  0.00    +0.000 A 
ATOM     41  C   UNL     1     111.785 129.911 143.056  0.00  0.00    +0.000 A 
ATOM     42  C   UNL     1     111.012 130.187 143.147  0.00  0.00    +0.000 A 
ENDBRANCH  11  37
BRANCH   6  43
ATOM     43  O   UNL     1     112.269 127.784 137.987  0.00  0.00    +0.000 OA
BRANCH  43  48
ATOM     44  O   UNL     1     111.359 127.893 136.891  0.00  0.00    +0.000 OA
ATOM     45  O   UNL     1     113.518 128.199 136.992  0.00  0.00    +0.000 OA
ATOM     46  O   UNL     1     113.232 128.516 135.398  0.00  0.00    +0.000 OA
ATOM     47  O   UNL     1     111.698 128.417 134.799  0.00  0.00    +0.000 OA
ATOM     48  C   UNL     1     112.126 127.942 137.190  0.00  0.00    +0.000 C 
ATOM     49  C   UNL     1     112.750 128.150 136.692  0.00  0.00    +0.000 C 
ATOM     50  C   UNL     1     112.608 128.308 135.895  0.00  0.00    +0.000 C 
ATOM     51  C   UNL     1     111.840 128.259 135.596  0.00  0.00    +0.000 C 
ATOM     52  C   UNL     1     111.216 128.051 136.094  0.00  0.00    +0.000 C 
ATOM     53  C   UNL     1     110.449 128.002 135.794  0.00  0.00    +0.000 C 
ENDBRANCH  43  48
ENDBRANCH   6  43
TORSDOF 7
ENDMDL
