MODEL 1
REMARK VINA RESULT:      -8.9      0.000      0.000
REMARK  Name = 23846551
REMARK  12 active torsions:
REMARK  status: ('A' for Active; 'I' for Inactive)
REMARK    1  A    between atoms: O_2  and  C_18
REMARK    2  A    between atoms: O_2  and  C_35
REMARK    3  A    between atoms: O_4  and  C_19
REMARK    4  A    between atoms: O_4  and  C_36
REMARK    5  A    between atoms: O_5  and  C_21
REMARK    6  A    between atoms: O_5  and  C_37
REMARK    7  A    between atoms: O_6  and  C_28
REMARK    8  A    between atoms: O_6  and  C_39
REMARK    9  A    between atoms: O_10  and  C_29
REMARK   10  A    between atoms: C_20  and  C_26
REMARK   11  A    between atoms: C_25  and  C_30
REMARK   12  A    between atoms: C_40  and  C_42
REMARK                            x       y       z     vdW  Elec       q    Type
REMARK                         _______ _______ _______ _____ _____    ______ ____
ROOT
ATOM      1  O   UNL     1     111.505 128.478 142.459  0.00  0.00    +0.000 OA
ATOM      2  O   UNL     1     111.569 126.074 140.874  0.00  0.00    +0.000 OA
ATOM      3  O   UNL     1     112.867 129.649 140.675  0.00  0.00    +0.000 OA
ATOM      4  C   UNL     1     112.223 127.250 140.393  0.00  0.00    +0.000 A 
ATOM      5  C   UNL     1     112.432 128.042 140.491  0.00  0.00    +0.000 A 
ATOM      6  C   UNL     1     111.779 126.865 140.972  0.00  0.00    +0.000 A 
ATOM      7  C   UNL     1     112.198 128.449 141.169  0.00  0.00    +0.000 A 
ATOM      8  C   UNL     1     111.754 128.065 141.749  0.00  0.00    +0.000 A 
ATOM      9  C   UNL     1     111.545 127.273 141.650  0.00  0.00    +0.000 A 
ATOM     10  C   UNL     1     112.423 129.273 141.260  0.00  0.00    +0.000 A 
ATOM     11  C   UNL     1     111.720 129.304 142.568  0.00  0.00    +0.000 A 
ATOM     12  C   UNL     1     112.182 129.703 141.964  0.00  0.00    +0.000 A 
ENDROOT
BRANCH   4  16
ATOM     13  O   UNL     1     113.240 126.603 139.627  0.00  0.00    +0.000 OA
ATOM     14  C   UNL     1     111.906 126.674 139.124  0.00  0.00    +0.000 C 
ATOM     15  C   UNL     1     112.139 126.266 138.446  0.00  0.00    +0.000 C 
ATOM     16  C   UNL     1     112.457 126.842 139.715  0.00  0.00    +0.000 C 
ATOM     17  C   UNL     1     112.924 126.027 138.358  0.00  0.00    +0.000 C 
ATOM     18  C   UNL     1     113.475 126.196 138.949  0.00  0.00    +0.000 C 
BRANCH  14  19
ATOM     19  O   UNL     1     111.121 126.913 139.211  0.00  0.00    +0.000 OA
BRANCH  19  21
ATOM     20  O   UNL     1     111.259 127.888 138.176  0.00  0.00    +0.000 OA
ATOM     21  C   UNL     1     110.780 127.420 138.658  0.00  0.00    +0.000 C 
ATOM     22  C   UNL     1     109.959 127.461 138.585  0.00  0.00    +0.000 C 
ENDBRANCH  19  21
ENDBRANCH  14  19
BRANCH  15  23
ATOM     23  O   UNL     1     111.588 126.098 137.855  0.00  0.00    +0.000 OA
BRANCH  23  25
ATOM     24  O   UNL     1     111.296 124.794 138.362  0.00  0.00    +0.000 OA
ATOM     25  C   UNL     1     111.344 125.320 137.728  0.00  0.00    +0.000 C 
ATOM     26  C   UNL     1     111.149 125.068 136.967  0.00  0.00    +0.000 C 
ENDBRANCH  23  25
ENDBRANCH  15  23
BRANCH  17  27
ATOM     27  O   UNL     1     113.158 125.620 137.680  0.00  0.00    +0.000 OA
BRANCH  27  29
ATOM     28  O   UNL     1     114.182 126.342 136.993  0.00  0.00    +0.000 OA
ATOM     29  C   UNL     1     113.937 125.676 137.414  0.00  0.00    +0.000 C 
ATOM     30  C   UNL     1     114.470 125.066 137.567  0.00  0.00    +0.000 C 
ENDBRANCH  27  29
ENDBRANCH  17  27
ENDBRANCH   4  16
BRANCH  11  32
ATOM     31  C   UNL     1     111.014 130.519 144.605  0.00  0.00    +0.000 A 
ATOM     32  C   UNL     1     111.485 129.709 143.247  0.00  0.00    +0.000 A 
ATOM     33  C   UNL     1     111.641 129.983 144.640  0.00  0.00    +0.000 A 
ATOM     34  C   UNL     1     110.623 130.649 143.890  0.00  0.00    +0.000 A 
ATOM     35  C   UNL     1     111.876 129.578 143.961  0.00  0.00    +0.000 A 
ATOM     36  C   UNL     1     110.859 130.244 143.211  0.00  0.00    +0.000 A 
BRANCH  31  37
ATOM     37  O   UNL     1     110.778 130.924 145.284  0.00  0.00    +0.000 OA
BRANCH  37  46
ATOM     38  O   UNL     1     111.653 132.043 145.124  0.00  0.00    +0.000 OA
ATOM     39  O   UNL     1     111.357 134.161 145.558  0.00  0.00    +0.000 OA
ATOM     40  O   UNL     1     109.897 133.543 146.014  0.00  0.00    +0.000 OA
ATOM     41  O   UNL     1     109.608 131.925 145.877  0.00  0.00    +0.000 OA
ATOM     42  C   UNL     1     111.213 133.352 145.489  0.00  0.00    +0.000 C 
ATOM     43  C   UNL     1     110.483 133.043 145.717  0.00  0.00    +0.000 C 
ATOM     44  C   UNL     1     111.798 132.851 145.192  0.00  0.00    +0.000 C 
ATOM     45  C   UNL     1     110.338 132.233 145.649  0.00  0.00    +0.000 C 
ATOM     46  C   UNL     1     110.923 131.733 145.352  0.00  0.00    +0.000 C 
BRANCH  44  48
ATOM     47  O   UNL     1     113.225 132.836 145.263  0.00  0.00    +0.000 OA
ATOM     48  C   UNL     1     112.527 133.161 144.964  0.00  0.00    +0.000 C 
ENDBRANCH  44  48
ENDBRANCH  37  46
ENDBRANCH  31  37
ENDBRANCH  11  32
BRANCH   5  49
ATOM     49  O   UNL     1     112.876 128.425 139.911  0.00  0.00    +0.000 OA
ATOM     50  C   UNL     1     113.350 129.070 140.114  0.00  0.00    +0.000 C 
ENDBRANCH   5  49
TORSDOF 12
ENDMDL
MODEL 2
REMARK VINA RESULT:      -8.7      1.133      2.335
REMARK  Name = 23846551
REMARK  12 active torsions:
REMARK  status: ('A' for Active; 'I' for Inactive)
REMARK    1  A    between atoms: O_2  and  C_18
REMARK    2  A    between atoms: O_2  and  C_35
REMARK    3  A    between atoms: O_4  and  C_19
REMARK    4  A    between atoms: O_4  and  C_36
REMARK    5  A    between atoms: O_5  and  C_21
REMARK    6  A    between atoms: O_5  and  C_37
REMARK    7  A    between atoms: O_6  and  C_28
REMARK    8  A    between atoms: O_6  and  C_39
REMARK    9  A    between atoms: O_10  and  C_29
REMARK   10  A    between atoms: C_20  and  C_26
REMARK   11  A    between atoms: C_25  and  C_30
REMARK   12  A    between atoms: C_40  and  C_42
REMARK                            x       y       z     vdW  Elec       q    Type
REMARK                         _______ _______ _______ _____ _____    ______ ____
ROOT
ATOM      1  O   UNL     1     112.213 130.453 141.548  0.00  0.00    +0.000 OA
ATOM      2  O   UNL     1     112.750 129.114 139.054  0.00  0.00    +0.000 OA
ATOM      3  O   UNL     1     111.240 128.298 142.454  0.00  0.00    +0.000 OA
ATOM      4  C   UNL     1     112.138 128.390 140.122  0.00  0.00    +0.000 A 
ATOM      5  C   UNL     1     111.843 128.366 140.893  0.00  0.00    +0.000 A 
ATOM      6  C   UNL     1     112.455 129.090 139.824  0.00  0.00    +0.000 A 
ATOM      7  C   UNL     1     111.866 129.042 141.365  0.00  0.00    +0.000 A 
ATOM      8  C   UNL     1     112.184 129.742 141.066  0.00  0.00    +0.000 A 
ATOM      9  C   UNL     1     112.479 129.766 140.296  0.00  0.00    +0.000 A 
ATOM     10  C   UNL     1     111.556 129.004 142.165  0.00  0.00    +0.000 A 
ATOM     11  C   UNL     1     111.908 130.434 142.352  0.00  0.00    +0.000 A 
ATOM     12  C   UNL     1     111.577 129.704 142.661  0.00  0.00    +0.000 A 
ENDROOT
BRANCH   4  16
ATOM     13  O   UNL     1     111.405 127.475 139.305  0.00  0.00    +0.000 OA
ATOM     14  C   UNL     1     112.802 127.275 139.524  0.00  0.00    +0.000 C 
ATOM     15  C   UNL     1     112.780 126.599 139.052  0.00  0.00    +0.000 C 
ATOM     16  C   UNL     1     112.115 127.713 139.650  0.00  0.00    +0.000 C 
ATOM     17  C   UNL     1     112.070 126.361 138.707  0.00  0.00    +0.000 C 
ATOM     18  C   UNL     1     111.382 126.799 138.834  0.00  0.00    +0.000 C 
BRANCH  14  19
ATOM     19  O   UNL     1     113.513 127.513 139.869  0.00  0.00    +0.000 OA
BRANCH  19  21
ATOM     20  O   UNL     1     113.491 126.397 140.760  0.00  0.00    +0.000 OA
ATOM     21  C   UNL     1     113.900 127.017 140.401  0.00  0.00    +0.000 C 
ATOM     22  C   UNL     1     114.697 127.139 140.576  0.00  0.00    +0.000 C 
ENDBRANCH  19  21
ENDBRANCH  14  19
BRANCH  15  23
ATOM     23  O   UNL     1     113.468 126.160 138.925  0.00  0.00    +0.000 OA
BRANCH  23  25
ATOM     24  O   UNL     1     113.742 126.797 137.675  0.00  0.00    +0.000 OA
ATOM     25  C   UNL     1     113.815 126.146 138.177  0.00  0.00    +0.000 C 
ATOM     26  C   UNL     1     114.237 125.481 137.932  0.00  0.00    +0.000 C 
ENDBRANCH  23  25
ENDBRANCH  15  23
BRANCH  17  27
ATOM     27  O   UNL     1     112.047 125.684 138.235  0.00  0.00    +0.000 OA
BRANCH  27  29
ATOM     28  O   UNL     1     111.007 124.827 138.712  0.00  0.00    +0.000 OA
ATOM     29  C   UNL     1     111.332 125.291 138.112  0.00  0.00    +0.000 C 
ATOM     30  C   UNL     1     110.941 125.362 137.389  0.00  0.00    +0.000 C 
ENDBRANCH  27  29
ENDBRANCH  17  27
ENDBRANCH   4  16
BRANCH  11  32
ATOM     31  C   UNL     1     111.981 132.467 143.761  0.00  0.00    +0.000 A 
ATOM     32  C   UNL     1     111.932 131.112 142.821  0.00  0.00    +0.000 A 
ATOM     33  C   UNL     1     112.679 132.154 143.451  0.00  0.00    +0.000 A 
ATOM     34  C   UNL     1     111.259 132.102 143.600  0.00  0.00    +0.000 A 
ATOM     35  C   UNL     1     112.655 131.477 142.981  0.00  0.00    +0.000 A 
ATOM     36  C   UNL     1     111.235 131.424 143.130  0.00  0.00    +0.000 A 
BRANCH  31  37
ATOM     37  O   UNL     1     112.005 133.145 144.231  0.00  0.00    +0.000 OA
BRANCH  37  46
ATOM     38  O   UNL     1     112.425 132.593 145.480  0.00  0.00    +0.000 OA
ATOM     39  O   UNL     1     111.665 132.898 147.503  0.00  0.00    +0.000 OA
ATOM     40  O   UNL     1     110.657 133.878 146.641  0.00  0.00    +0.000 OA
ATOM     41  O   UNL     1     110.827 134.002 145.005  0.00  0.00    +0.000 OA
ATOM     42  C   UNL     1     111.750 132.959 146.685  0.00  0.00    +0.000 C 
ATOM     43  C   UNL     1     111.246 133.450 146.254  0.00  0.00    +0.000 C 
ATOM     44  C   UNL     1     112.340 132.531 146.298  0.00  0.00    +0.000 C 
ATOM     45  C   UNL     1     111.331 133.512 145.435  0.00  0.00    +0.000 C 
ATOM     46  C   UNL     1     111.920 133.083 145.048  0.00  0.00    +0.000 C 
BRANCH  44  48
ATOM     47  O   UNL     1     113.658 132.173 146.718  0.00  0.00    +0.000 OA
ATOM     48  C   UNL     1     112.843 132.041 146.729  0.00  0.00    +0.000 C 
ENDBRANCH  44  48
ENDBRANCH  37  46
ENDBRANCH  31  37
ENDBRANCH  11  32
BRANCH   5  49
ATOM     49  O   UNL     1     111.525 127.664 141.190  0.00  0.00    +0.000 OA
ATOM     50  C   UNL     1     110.955 127.691 141.786  0.00  0.00    +0.000 C 
ENDBRANCH   5  49
TORSDOF 12
ENDMDL
MODEL 3
REMARK VINA RESULT:      -8.7      1.262      1.996
REMARK  Name = 23846551
REMARK  12 active torsions:
REMARK  status: ('A' for Active; 'I' for Inactive)
REMARK    1  A    between atoms: O_2  and  C_18
REMARK    2  A    between atoms: O_2  and  C_35
REMARK    3  A    between atoms: O_4  and  C_19
REMARK    4  A    between atoms: O_4  and  C_36
REMARK    5  A    between atoms: O_5  and  C_21
REMARK    6  A    between atoms: O_5  and  C_37
REMARK    7  A    between atoms: O_6  and  C_28
REMARK    8  A    between atoms: O_6  and  C_39
REMARK    9  A    between atoms: O_10  and  C_29
REMARK   10  A    between atoms: C_20  and  C_26
REMARK   11  A    between atoms: C_25  and  C_30
REMARK   12  A    between atoms: C_40  and  C_42
REMARK                            x       y       z     vdW  Elec       q    Type
REMARK                         _______ _______ _______ _____ _____    ______ ____
ROOT
ATOM      1  O   UNL     1     111.944 129.533 140.287  0.00  0.00    +0.000 OA
ATOM      2  O   UNL     1     112.088 128.334 137.672  0.00  0.00    +0.000 OA
ATOM      3  O   UNL     1     112.991 127.445 141.264  0.00  0.00    +0.000 OA
ATOM      4  C   UNL     1     112.567 127.607 138.805  0.00  0.00    +0.000 A 
ATOM      5  C   UNL     1     112.704 127.559 139.617  0.00  0.00    +0.000 A 
ATOM      6  C   UNL     1     112.226 128.286 138.484  0.00  0.00    +0.000 A 
ATOM      7  C   UNL     1     112.501 128.190 140.108  0.00  0.00    +0.000 A 
ATOM      8  C   UNL     1     112.160 128.869 139.787  0.00  0.00    +0.000 A 
ATOM      9  C   UNL     1     112.023 128.917 138.975  0.00  0.00    +0.000 A 
ATOM     10  C   UNL     1     112.650 128.128 140.952  0.00  0.00    +0.000 A 
ATOM     11  C   UNL     1     112.085 129.490 141.134  0.00  0.00    +0.000 A 
ATOM     12  C   UNL     1     112.440 128.782 141.468  0.00  0.00    +0.000 A 
ENDROOT
BRANCH   4  16
ATOM     13  O   UNL     1     113.560 126.838 138.126  0.00  0.00    +0.000 OA
ATOM     14  C   UNL     1     112.182 126.482 138.012  0.00  0.00    +0.000 C 
ATOM     15  C   UNL     1     112.384 125.850 137.522  0.00  0.00    +0.000 C 
ATOM     16  C   UNL     1     112.770 126.976 138.315  0.00  0.00    +0.000 C 
ATOM     17  C   UNL     1     113.176 125.713 137.333  0.00  0.00    +0.000 C 
ATOM     18  C   UNL     1     113.764 126.206 137.635  0.00  0.00    +0.000 C 
BRANCH  14  19
ATOM     19  O   UNL     1     111.391 126.620 138.201  0.00  0.00    +0.000 OA
BRANCH  19  21
ATOM     20  O   UNL     1     111.333 125.436 138.999  0.00  0.00    +0.000 OA
ATOM     21  C   UNL     1     110.950 126.037 138.583  0.00  0.00    +0.000 C 
ATOM     22  C   UNL     1     110.126 126.055 138.551  0.00  0.00    +0.000 C 
ENDBRANCH  19  21
ENDBRANCH  14  19
BRANCH  15  23
ATOM     23  O   UNL     1     111.796 125.357 137.219  0.00  0.00    +0.000 OA
BRANCH  23  25
ATOM     24  O   UNL     1     111.696 126.079 135.990  0.00  0.00    +0.000 OA
ATOM     25  C   UNL     1     111.615 125.376 136.415  0.00  0.00    +0.000 C 
ATOM     26  C   UNL     1     111.351 124.693 136.036  0.00  0.00    +0.000 C 
ENDBRANCH  23  25
ENDBRANCH  15  23
BRANCH  17  27
ATOM     27  O   UNL     1     113.379 125.081 136.842  0.00  0.00    +0.000 OA
BRANCH  27  29
ATOM     28  O   UNL     1     114.349 124.234 137.461  0.00  0.00    +0.000 OA
ATOM     29  C   UNL     1     114.142 124.768 136.868  0.00  0.00    +0.000 C 
ATOM     30  C   UNL     1     114.698 124.990 136.300  0.00  0.00    +0.000 C 
ENDBRANCH  27  29
ENDBRANCH  17  27
ENDBRANCH   4  16
BRANCH  11  32
ATOM     31  C   UNL     1     111.472 131.388 142.599  0.00  0.00    +0.000 A 
ATOM     32  C   UNL     1     111.881 130.123 141.623  0.00  0.00    +0.000 A 
ATOM     33  C   UNL     1     112.252 131.300 142.341  0.00  0.00    +0.000 A 
ATOM     34  C   UNL     1     110.898 130.843 142.368  0.00  0.00    +0.000 A 
ATOM     35  C   UNL     1     112.456 130.667 141.853  0.00  0.00    +0.000 A 
ATOM     36  C   UNL     1     111.103 130.210 141.880  0.00  0.00    +0.000 A 
BRANCH  31  37
ATOM     37  O   UNL     1     111.268 132.021 143.088  0.00  0.00    +0.000 OA
BRANCH  37  46
ATOM     38  O   UNL     1     111.543 131.363 144.326  0.00  0.00    +0.000 OA
ATOM     39  O   UNL     1     112.365 132.126 146.197  0.00  0.00    +0.000 OA
ATOM     40  O   UNL     1     112.365 133.495 145.277  0.00  0.00    +0.000 OA
ATOM     41  O   UNL     1     111.816 133.442 143.722  0.00  0.00    +0.000 OA
ATOM     42  C   UNL     1     112.091 132.100 145.420  0.00  0.00    +0.000 C 
ATOM     43  C   UNL     1     112.091 132.784 144.960  0.00  0.00    +0.000 C 
ATOM     44  C   UNL     1     111.817 131.389 145.103  0.00  0.00    +0.000 C 
ATOM     45  C   UNL     1     111.816 132.758 144.182  0.00  0.00    +0.000 C 
ATOM     46  C   UNL     1     111.542 132.047 143.865  0.00  0.00    +0.000 C 
BRANCH  44  48
ATOM     47  O   UNL     1     111.192 130.170 145.509  0.00  0.00    +0.000 OA
ATOM     48  C   UNL     1     111.818 130.705 145.563  0.00  0.00    +0.000 C 
ENDBRANCH  44  48
ENDBRANCH  37  46
ENDBRANCH  31  37
ENDBRANCH  11  32
BRANCH   5  49
ATOM     49  O   UNL     1     113.046 126.879 139.938  0.00  0.00    +0.000 OA
ATOM     50  C   UNL     1     113.480 126.928 140.638  0.00  0.00    +0.000 C 
ENDBRANCH   5  49
TORSDOF 12
ENDMDL
MODEL 4
REMARK VINA RESULT:      -8.6      2.928      4.178
REMARK  Name = 23846551
REMARK  12 active torsions:
REMARK  status: ('A' for Active; 'I' for Inactive)
REMARK    1  A    between atoms: O_2  and  C_18
REMARK    2  A    between atoms: O_2  and  C_35
REMARK    3  A    between atoms: O_4  and  C_19
REMARK    4  A    between atoms: O_4  and  C_36
REMARK    5  A    between atoms: O_5  and  C_21
REMARK    6  A    between atoms: O_5  and  C_37
REMARK    7  A    between atoms: O_6  and  C_28
REMARK    8  A    between atoms: O_6  and  C_39
REMARK    9  A    between atoms: O_10  and  C_29
REMARK   10  A    between atoms: C_20  and  C_26
REMARK   11  A    between atoms: C_25  and  C_30
REMARK   12  A    between atoms: C_40  and  C_42
REMARK                            x       y       z     vdW  Elec       q    Type
REMARK                         _______ _______ _______ _____ _____    ______ ____
ROOT
ATOM      1  O   UNL     1     110.205 130.996 141.546  0.00  0.00    +0.000 OA
ATOM      2  O   UNL     1     108.293 130.992 139.391  0.00  0.00    +0.000 OA
ATOM      3  O   UNL     1     111.920 129.989 139.979  0.00  0.00    +0.000 OA
ATOM      4  C   UNL     1     109.614 130.498 139.159  0.00  0.00    +0.000 A 
ATOM      5  C   UNL     1     110.373 130.332 139.435  0.00  0.00    +0.000 A 
ATOM      6  C   UNL     1     109.053 130.827 139.667  0.00  0.00    +0.000 A 
ATOM      7  C   UNL     1     110.572 130.495 140.219  0.00  0.00    +0.000 A 
ATOM      8  C   UNL     1     110.011 130.823 140.727  0.00  0.00    +0.000 A 
ATOM      9  C   UNL     1     109.251 130.989 140.451  0.00  0.00    +0.000 A 
ATOM     10  C   UNL     1     111.366 130.317 140.494  0.00  0.00    +0.000 A 
ATOM     11  C   UNL     1     110.995 130.826 141.840  0.00  0.00    +0.000 A 
ATOM     12  C   UNL     1     111.579 130.484 141.310  0.00  0.00    +0.000 A 
ENDROOT
BRANCH   4  16
ATOM     13  O   UNL     1     109.275 129.560 138.137  0.00  0.00    +0.000 OA
ATOM     14  C   UNL     1     109.357 130.951 137.828  0.00  0.00    +0.000 C 
ATOM     15  C   UNL     1     109.158 130.790 137.044  0.00  0.00    +0.000 C 
ATOM     16  C   UNL     1     109.415 130.336 138.375  0.00  0.00    +0.000 C 
ATOM     17  C   UNL     1     109.018 130.013 136.807  0.00  0.00    +0.000 C 
ATOM     18  C   UNL     1     109.076 129.397 137.353  0.00  0.00    +0.000 C 
BRANCH  14  19
ATOM     19  O   UNL     1     109.497 131.729 138.066  0.00  0.00    +0.000 OA
BRANCH  19  21
ATOM     20  O   UNL     1     110.715 131.781 137.322  0.00  0.00    +0.000 OA
ATOM     21  C   UNL     1     110.099 132.167 137.711  0.00  0.00    +0.000 C 
ATOM     22  C   UNL     1     110.085 132.991 137.745  0.00  0.00    +0.000 C 
ENDBRANCH  19  21
ENDBRANCH  14  19
BRANCH  15  23
ATOM     23  O   UNL     1     109.100 131.405 136.497  0.00  0.00    +0.000 OA
BRANCH  23  25
ATOM     24  O   UNL     1     107.687 131.543 136.664  0.00  0.00    +0.000 OA
ATOM     25  C   UNL     1     108.363 131.621 136.196  0.00  0.00    +0.000 C 
ATOM     26  C   UNL     1     108.302 131.915 135.428  0.00  0.00    +0.000 C 
ENDBRANCH  23  25
ENDBRANCH  15  23
BRANCH  17  27
ATOM     27  O   UNL     1     108.819 129.850 136.022  0.00  0.00    +0.000 OA
BRANCH  27  29
ATOM     28  O   UNL     1     108.210 128.579 135.787  0.00  0.00    +0.000 OA
ATOM     29  C   UNL     1     108.865 129.078 135.737  0.00  0.00    +0.000 C 
ATOM     30  C   UNL     1     109.567 128.804 135.401  0.00  0.00    +0.000 C 
ENDBRANCH  27  29
ENDBRANCH  17  27
ENDBRANCH   4  16
BRANCH  11  32
ATOM     31  C   UNL     1     111.583 131.315 144.193  0.00  0.00    +0.000 A 
ATOM     32  C   UNL     1     111.191 130.989 142.624  0.00  0.00    +0.000 A 
ATOM     33  C   UNL     1     111.184 130.618 144.004  0.00  0.00    +0.000 A 
ATOM     34  C   UNL     1     111.785 131.849 143.598  0.00  0.00    +0.000 A 
ATOM     35  C   UNL     1     110.988 130.455 143.219  0.00  0.00    +0.000 A 
ATOM     36  C   UNL     1     111.590 131.686 142.813  0.00  0.00    +0.000 A 
BRANCH  31  37
ATOM     37  O   UNL     1     111.779 131.479 144.978  0.00  0.00    +0.000 OA
BRANCH  37  46
ATOM     38  O   UNL     1     110.502 132.008 145.341  0.00  0.00    +0.000 OA
ATOM     39  O   UNL     1     109.958 133.605 146.725  0.00  0.00    +0.000 OA
ATOM     40  O   UNL     1     111.601 133.611 146.873  0.00  0.00    +0.000 OA
ATOM     41  O   UNL     1     112.511 132.548 146.000  0.00  0.00    +0.000 OA
ATOM     42  C   UNL     1     110.413 133.073 146.288  0.00  0.00    +0.000 C 
ATOM     43  C   UNL     1     111.234 133.076 146.362  0.00  0.00    +0.000 C 
ATOM     44  C   UNL     1     110.047 132.539 145.777  0.00  0.00    +0.000 C 
ATOM     45  C   UNL     1     111.690 132.544 145.925  0.00  0.00    +0.000 C 
ATOM     46  C   UNL     1     111.324 132.010 145.414  0.00  0.00    +0.000 C 
BRANCH  44  48
ATOM     47  O   UNL     1     108.872 132.816 145.012  0.00  0.00    +0.000 OA
ATOM     48  C   UNL     1     109.226 132.536 145.703  0.00  0.00    +0.000 C 
ENDBRANCH  44  48
ENDBRANCH  37  46
ENDBRANCH  31  37
ENDBRANCH  11  32
BRANCH   5  49
ATOM     49  O   UNL     1     110.934 130.004 138.926  0.00  0.00    +0.000 OA
ATOM     50  C   UNL     1     111.554 129.553 139.232  0.00  0.00    +0.000 C 
ENDBRANCH   5  49
TORSDOF 12
ENDMDL
MODEL 5
REMARK VINA RESULT:      -8.6      1.356      2.550
REMARK  Name = 23846551
REMARK  12 active torsions:
REMARK  status: ('A' for Active; 'I' for Inactive)
REMARK    1  A    between atoms: O_2  and  C_18
REMARK    2  A    between atoms: O_2  and  C_35
REMARK    3  A    between atoms: O_4  and  C_19
REMARK    4  A    between atoms: O_4  and  C_36
REMARK    5  A    between atoms: O_5  and  C_21
REMARK    6  A    between atoms: O_5  and  C_37
REMARK    7  A    between atoms: O_6  and  C_28
REMARK    8  A    between atoms: O_6  and  C_39
REMARK    9  A    between atoms: O_10  and  C_29
REMARK   10  A    between atoms: C_20  and  C_26
REMARK   11  A    between atoms: C_25  and  C_30
REMARK   12  A    between atoms: C_40  and  C_42
REMARK                            x       y       z     vdW  Elec       q    Type
REMARK                         _______ _______ _______ _____ _____    ______ ____
ROOT
ATOM      1  O   UNL     1     111.378 128.386 140.850  0.00  0.00    +0.000 OA
ATOM      2  O   UNL     1     111.739 128.175 137.999  0.00  0.00    +0.000 OA
ATOM      3  O   UNL     1     110.474 126.021 140.874  0.00  0.00    +0.000 OA
ATOM      4  C   UNL     1     111.204 127.066 138.723  0.00  0.00    +0.000 A 
ATOM      5  C   UNL     1     110.965 126.726 139.436  0.00  0.00    +0.000 A 
ATOM      6  C   UNL     1     111.499 127.836 138.712  0.00  0.00    +0.000 A 
ATOM      7  C   UNL     1     111.020 127.157 140.138  0.00  0.00    +0.000 A 
ATOM      8  C   UNL     1     111.315 127.927 140.126  0.00  0.00    +0.000 A 
ATOM      9  C   UNL     1     111.555 128.267 139.413  0.00  0.00    +0.000 A 
ATOM     10  C   UNL     1     110.768 126.792 140.873  0.00  0.00    +0.000 A 
ATOM     11  C   UNL     1     111.130 128.037 141.596  0.00  0.00    +0.000 A 
ATOM     12  C   UNL     1     110.823 127.235 141.607  0.00  0.00    +0.000 A 
ENDROOT
BRANCH   4  16
ATOM     13  O   UNL     1     110.495 126.731 137.529  0.00  0.00    +0.000 OA
ATOM     14  C   UNL     1     111.748 126.107 137.813  0.00  0.00    +0.000 C 
ATOM     15  C   UNL     1     111.693 125.676 137.112  0.00  0.00    +0.000 C 
ATOM     16  C   UNL     1     111.149 126.635 138.022  0.00  0.00    +0.000 C 
ATOM     17  C   UNL     1     111.039 125.773 136.619  0.00  0.00    +0.000 C 
ATOM     18  C   UNL     1     110.439 126.300 136.828  0.00  0.00    +0.000 C 
BRANCH  14  19
ATOM     19  O   UNL     1     112.403 126.011 138.306  0.00  0.00    +0.000 OA
BRANCH  19  21
ATOM     20  O   UNL     1     113.261 126.699 137.394  0.00  0.00    +0.000 OA
ATOM     21  C   UNL     1     113.160 126.175 138.023  0.00  0.00    +0.000 C 
ATOM     22  C   UNL     1     113.817 125.816 138.370  0.00  0.00    +0.000 C 
ENDBRANCH  19  21
ENDBRANCH  14  19
BRANCH  15  23
ATOM     23  O   UNL     1     112.292 125.149 136.903  0.00  0.00    +0.000 OA
BRANCH  23  25
ATOM     24  O   UNL     1     111.585 124.035 137.451  0.00  0.00    +0.000 OA
ATOM     25  C   UNL     1     112.157 124.336 136.938  0.00  0.00    +0.000 C 
ATOM     26  C   UNL     1     112.595 123.825 136.462  0.00  0.00    +0.000 C 
ENDBRANCH  23  25
ENDBRANCH  15  23
BRANCH  17  27
ATOM     27  O   UNL     1     110.983 125.342 135.918  0.00  0.00    +0.000 OA
BRANCH  27  29
ATOM     28  O   UNL     1     109.710 125.367 135.270  0.00  0.00    +0.000 OA
ATOM     29  C   UNL     1     110.497 125.609 135.307  0.00  0.00    +0.000 C 
ATOM     30  C   UNL     1     110.798 126.120 134.733  0.00  0.00    +0.000 C 
ENDBRANCH  27  29
ENDBRANCH  17  27
ENDBRANCH   4  16
BRANCH  11  32
ATOM     31  C   UNL     1     111.300 129.336 143.696  0.00  0.00    +0.000 A 
ATOM     32  C   UNL     1     111.187 128.470 142.296  0.00  0.00    +0.000 A 
ATOM     33  C   UNL     1     111.960 128.934 143.404  0.00  0.00    +0.000 A 
ATOM     34  C   UNL     1     110.585 129.304 143.287  0.00  0.00    +0.000 A 
ATOM     35  C   UNL     1     111.903 128.501 142.704  0.00  0.00    +0.000 A 
ATOM     36  C   UNL     1     110.528 128.871 142.587  0.00  0.00    +0.000 A 
BRANCH  31  37
ATOM     37  O   UNL     1     111.357 129.769 144.396  0.00  0.00    +0.000 OA
BRANCH  37  46
ATOM     38  O   UNL     1     111.918 130.964 143.848  0.00  0.00    +0.000 OA
ATOM     39  O   UNL     1     111.515 133.063 144.289  0.00  0.00    +0.000 OA
ATOM     40  O   UNL     1     110.472 132.321 145.330  0.00  0.00    +0.000 OA
ATOM     41  O   UNL     1     110.393 130.674 145.383  0.00  0.00    +0.000 OA
ATOM     42  C   UNL     1     111.476 132.240 144.316  0.00  0.00    +0.000 C 
ATOM     43  C   UNL     1     110.954 131.869 144.836  0.00  0.00    +0.000 C 
ATOM     44  C   UNL     1     111.958 131.787 143.822  0.00  0.00    +0.000 C 
ATOM     45  C   UNL     1     110.915 131.045 144.863  0.00  0.00    +0.000 C 
ATOM     46  C   UNL     1     111.397 130.592 144.369  0.00  0.00    +0.000 C 
BRANCH  44  48
ATOM     47  O   UNL     1     112.358 132.105 142.487  0.00  0.00    +0.000 OA
ATOM     48  C   UNL     1     112.479 132.158 143.302  0.00  0.00    +0.000 C 
ENDBRANCH  44  48
ENDBRANCH  37  46
ENDBRANCH  31  37
ENDBRANCH  11  32
BRANCH   5  49
ATOM     49  O   UNL     1     110.670 125.955 139.447  0.00  0.00    +0.000 OA
ATOM     50  C   UNL     1     110.101 125.739 140.004  0.00  0.00    +0.000 C 
ENDBRANCH   5  49
TORSDOF 12
ENDMDL
MODEL 6
REMARK VINA RESULT:      -8.4      1.545      7.997
REMARK  Name = 23846551
REMARK  12 active torsions:
REMARK  status: ('A' for Active; 'I' for Inactive)
REMARK    1  A    between atoms: O_2  and  C_18
REMARK    2  A    between atoms: O_2  and  C_35
REMARK    3  A    between atoms: O_4  and  C_19
REMARK    4  A    between atoms: O_4  and  C_36
REMARK    5  A    between atoms: O_5  and  C_21
REMARK    6  A    between atoms: O_5  and  C_37
REMARK    7  A    between atoms: O_6  and  C_28
REMARK    8  A    between atoms: O_6  and  C_39
REMARK    9  A    between atoms: O_10  and  C_29
REMARK   10  A    between atoms: C_20  and  C_26
REMARK   11  A    between atoms: C_25  and  C_30
REMARK   12  A    between atoms: C_40  and  C_42
REMARK                            x       y       z     vdW  Elec       q    Type
REMARK                         _______ _______ _______ _____ _____    ______ ____
ROOT
ATOM      1  O   UNL     1     111.507 129.423 139.688  0.00  0.00    +0.000 OA
ATOM      2  O   UNL     1     110.285 131.256 141.544  0.00  0.00    +0.000 OA
ATOM      3  O   UNL     1     113.642 129.527 141.046  0.00  0.00    +0.000 OA
ATOM      4  C   UNL     1     111.640 130.850 141.748  0.00  0.00    +0.000 A 
ATOM      5  C   UNL     1     112.297 130.411 141.511  0.00  0.00    +0.000 A 
ATOM      6  C   UNL     1     110.943 130.818 141.308  0.00  0.00    +0.000 A 
ATOM      7  C   UNL     1     112.258 129.941 140.834  0.00  0.00    +0.000 A 
ATOM      8  C   UNL     1     111.561 129.909 140.394  0.00  0.00    +0.000 A 
ATOM      9  C   UNL     1     110.903 130.348 140.631  0.00  0.00    +0.000 A 
ATOM     10  C   UNL     1     112.950 129.489 140.599  0.00  0.00    +0.000 A 
ATOM     11  C   UNL     1     112.190 128.964 139.436  0.00  0.00    +0.000 A 
ATOM     12  C   UNL     1     112.915 128.997 139.895  0.00  0.00    +0.000 A 
ENDROOT
BRANCH   4  16
ATOM     13  O   UNL     1     112.098 132.030 142.410  0.00  0.00    +0.000 OA
ATOM     14  C   UNL     1     111.300 131.079 143.117  0.00  0.00    +0.000 C 
ATOM     15  C   UNL     1     111.339 131.549 143.794  0.00  0.00    +0.000 C 
ATOM     16  C   UNL     1     111.679 131.320 142.424  0.00  0.00    +0.000 C 
ATOM     17  C   UNL     1     111.758 132.260 143.778  0.00  0.00    +0.000 C 
ATOM     18  C   UNL     1     112.137 132.500 143.086  0.00  0.00    +0.000 C 
BRANCH  14  19
ATOM     19  O   UNL     1     110.881 130.369 143.132  0.00  0.00    +0.000 OA
BRANCH  19  21
ATOM     20  O   UNL     1     111.852 129.765 143.988  0.00  0.00    +0.000 OA
ATOM     21  C   UNL     1     111.094 129.775 143.663  0.00  0.00    +0.000 C 
ATOM     22  C   UNL     1     110.550 129.190 143.869  0.00  0.00    +0.000 C 
ENDBRANCH  19  21
ENDBRANCH  14  19
BRANCH  15  23
ATOM     23  O   UNL     1     110.959 131.309 144.486  0.00  0.00    +0.000 OA
BRANCH  23  25
ATOM     24  O   UNL     1     109.775 132.059 144.207  0.00  0.00    +0.000 OA
ATOM     25  C   UNL     1     110.290 131.712 144.751  0.00  0.00    +0.000 C 
ATOM     26  C   UNL     1     110.136 131.768 145.559  0.00  0.00    +0.000 C 
ENDBRANCH  23  25
ENDBRANCH  15  23
BRANCH  17  27
ATOM     27  O   UNL     1     111.797 132.730 144.455  0.00  0.00    +0.000 OA
BRANCH  27  29
ATOM     28  O   UNL     1     113.176 132.965 144.747  0.00  0.00    +0.000 OA
ATOM     29  C   UNL     1     112.427 133.253 144.558  0.00  0.00    +0.000 C 
ATOM     30  C   UNL     1     112.307 134.064 144.472  0.00  0.00    +0.000 C 
ENDBRANCH  27  29
ENDBRANCH  17  27
ENDBRANCH   4  16
BRANCH  11  32
ATOM     31  C   UNL     1     112.063 127.556 137.405  0.00  0.00    +0.000 A 
ATOM     32  C   UNL     1     112.147 128.494 138.759  0.00  0.00    +0.000 A 
ATOM     33  C   UNL     1     111.603 127.370 138.065  0.00  0.00    +0.000 A 
ATOM     34  C   UNL     1     112.564 128.211 137.423  0.00  0.00    +0.000 A 
ATOM     35  C   UNL     1     111.646 127.839 138.742  0.00  0.00    +0.000 A 
ATOM     36  C   UNL     1     112.606 128.680 138.100  0.00  0.00    +0.000 A 
BRANCH  31  37
ATOM     37  O   UNL     1     112.020 127.086 136.728  0.00  0.00    +0.000 OA
BRANCH  37  46
ATOM     38  O   UNL     1     113.128 126.226 137.002  0.00  0.00    +0.000 OA
ATOM     39  O   UNL     1     113.371 124.076 136.720  0.00  0.00    +0.000 OA
ATOM     40  O   UNL     1     111.833 124.290 136.167  0.00  0.00    +0.000 OA
ATOM     41  O   UNL     1     111.157 125.795 136.170  0.00  0.00    +0.000 OA
ATOM     42  C   UNL     1     113.034 124.829 136.722  0.00  0.00    +0.000 C 
ATOM     43  C   UNL     1     112.265 124.936 136.445  0.00  0.00    +0.000 C 
ATOM     44  C   UNL     1     113.466 125.474 137.001  0.00  0.00    +0.000 C 
ATOM     45  C   UNL     1     111.926 125.689 136.447  0.00  0.00    +0.000 C 
ATOM     46  C   UNL     1     112.358 126.334 136.726  0.00  0.00    +0.000 C 
BRANCH  44  48
ATOM     47  O   UNL     1     114.420 125.538 138.063  0.00  0.00    +0.000 OA
ATOM     48  C   UNL     1     114.235 125.367 137.277  0.00  0.00    +0.000 C 
ENDBRANCH  44  48
ENDBRANCH  37  46
ENDBRANCH  31  37
ENDBRANCH  11  32
BRANCH   5  49
ATOM     49  O   UNL     1     112.995 130.443 141.952  0.00  0.00    +0.000 OA
ATOM     50  C   UNL     1     113.724 130.370 141.574  0.00  0.00    +0.000 C 
ENDBRANCH   5  49
TORSDOF 12
ENDMDL
