MODEL 1
REMARK VINA RESULT:      -9.4      0.000      0.000
REMARK  Name = 44259471
REMARK  7 active torsions:
REMARK  status: ('A' for Active; 'I' for Inactive)
REMARK    1  A    between atoms: O_2  and  C_15
REMARK    2  A    between atoms: O_2  and  C_22
REMARK    3  A    between atoms: O_3  and  C_16
REMARK    4  A    between atoms: O_3  and  C_23
REMARK    5  A    between atoms: O_4  and  C_19
REMARK    6  A    between atoms: O_4  and  C_21
REMARK    7  A    between atoms: C_24  and  C_30
REMARK                            x       y       z     vdW  Elec       q    Type
REMARK                         _______ _______ _______ _____ _____    ______ ____
ROOT
ATOM      1  O   UNL     1     105.669 124.610 147.942  0.00  0.00    +0.000 OA
ATOM      2  O   UNL     1     107.047 125.528 146.104  0.00  0.00    +0.000 OA
ATOM      3  O   UNL     1     108.243 125.409 146.902  0.00  0.00    +0.000 OA
ATOM      4  O   UNL     1     108.040 124.339 149.612  0.00  0.00    +0.000 OA
ATOM      5  C   UNL     1     105.773 125.134 146.617  0.00  0.00    +0.000 A 
ATOM      6  C   UNL     1     105.314 124.828 147.230  0.00  0.00    +0.000 A 
ATOM      7  C   UNL     1     106.588 125.222 146.717  0.00  0.00    +0.000 A 
ATOM      8  C   UNL     1     106.943 125.005 147.429  0.00  0.00    +0.000 A 
ATOM      9  C   UNL     1     106.482 124.698 148.042  0.00  0.00    +0.000 A 
ATOM     10  C   UNL     1     107.791 125.101 147.521  0.00  0.00    +0.000 A 
ATOM     11  C   UNL     1     106.840 124.468 148.788  0.00  0.00    +0.000 A 
ATOM     12  C   UNL     1     108.166 124.877 148.260  0.00  0.00    +0.000 A 
ATOM     13  C   UNL     1     107.688 124.558 148.899  0.00  0.00    +0.000 A 
ENDROOT
BRANCH   6  17
ATOM     14  O   UNL     1     103.097 123.418 146.106  0.00  0.00    +0.000 OA
ATOM     15  O   UNL     1     102.647 125.707 147.757  0.00  0.00    +0.000 OA
ATOM     16  O   UNL     1     102.057 124.475 146.832  0.00  0.00    +0.000 OA
ATOM     17  C   UNL     1     104.499 124.739 147.130  0.00  0.00    +0.000 A 
ATOM     18  C   UNL     1     103.980 125.268 147.493  0.00  0.00    +0.000 A 
ATOM     19  C   UNL     1     104.205 124.123 146.668  0.00  0.00    +0.000 A 
ATOM     20  C   UNL     1     103.391 124.035 146.568  0.00  0.00    +0.000 A 
ATOM     21  C   UNL     1     103.166 125.179 147.394  0.00  0.00    +0.000 A 
ATOM     22  C   UNL     1     102.871 124.563 146.931  0.00  0.00    +0.000 A 
ENDBRANCH   6  17
BRANCH   5  23
ATOM     23  O   UNL     1     105.419 125.351 145.905  0.00  0.00    +0.000 OA
BRANCH  23  30
ATOM     24  O   UNL     1     105.543 126.756 146.136  0.00  0.00    +0.000 OA
ATOM     25  O   UNL     1     105.548 125.608 144.280  0.00  0.00    +0.000 OA
ATOM     26  C   UNL     1     105.673 127.013 144.511  0.00  0.00    +0.000 C 
ATOM     27  C   UNL     1     105.702 127.651 145.034  0.00  0.00    +0.000 C 
ATOM     28  C   UNL     1     105.578 126.247 144.802  0.00  0.00    +0.000 C 
ATOM     29  C   UNL     1     105.638 127.523 145.846  0.00  0.00    +0.000 C 
ATOM     30  C   UNL     1     105.513 126.118 145.615  0.00  0.00    +0.000 C 
ATOM     31  C   UNL     1     105.667 128.161 146.368  0.00  0.00    +0.000 C 
BRANCH  26  32
ATOM     32  O   UNL     1     105.738 127.141 143.699  0.00  0.00    +0.000 OA
BRANCH  32  34
ATOM     33  O   UNL     1     107.149 127.022 143.508  0.00  0.00    +0.000 OA
ATOM     34  C   UNL     1     106.379 126.831 143.283  0.00  0.00    +0.000 C 
ATOM     35  C   UNL     1     106.250 126.329 142.640  0.00  0.00    +0.000 C 
ENDBRANCH  32  34
ENDBRANCH  26  32
BRANCH  27  36
ATOM     36  O   UNL     1     105.797 128.417 144.743  0.00  0.00    +0.000 OA
BRANCH  36  38
ATOM     37  O   UNL     1     104.442 128.810 144.512  0.00  0.00    +0.000 OA
ATOM     38  C   UNL     1     105.188 128.968 144.827  0.00  0.00    +0.000 C 
ATOM     39  C   UNL     1     105.326 129.676 145.227  0.00  0.00    +0.000 C 
ENDBRANCH  36  38
ENDBRANCH  27  36
ENDBRANCH  23  30
ENDBRANCH   5  23
TORSDOF 7
ENDMDL
MODEL 2
REMARK VINA RESULT:      -9.3      8.169     11.665
REMARK  Name = 44259471
REMARK  7 active torsions:
REMARK  status: ('A' for Active; 'I' for Inactive)
REMARK    1  A    between atoms: O_2  and  C_15
REMARK    2  A    between atoms: O_2  and  C_22
REMARK    3  A    between atoms: O_3  and  C_16
REMARK    4  A    between atoms: O_3  and  C_23
REMARK    5  A    between atoms: O_4  and  C_19
REMARK    6  A    between atoms: O_4  and  C_21
REMARK    7  A    between atoms: C_24  and  C_30
REMARK                            x       y       z     vdW  Elec       q    Type
REMARK                         _______ _______ _______ _____ _____    ______ ____
ROOT
ATOM      1  O   UNL     1     112.289 127.082 136.032  0.00  0.00    +0.000 OA
ATOM      2  O   UNL     1     113.139 128.394 137.950  0.00  0.00    +0.000 OA
ATOM      3  O   UNL     1     112.830 129.632 137.277  0.00  0.00    +0.000 OA
ATOM      4  O   UNL     1     111.638 129.540 134.612  0.00  0.00    +0.000 OA
ATOM      5  C   UNL     1     112.872 127.132 137.336  0.00  0.00    +0.000 A 
ATOM      6  C   UNL     1     112.589 126.695 136.696  0.00  0.00    +0.000 A 
ATOM      7  C   UNL     1     112.856 127.957 137.311  0.00  0.00    +0.000 A 
ATOM      8  C   UNL     1     112.556 128.344 136.646  0.00  0.00    +0.000 A 
ATOM      9  C   UNL     1     112.273 127.905 136.007  0.00  0.00    +0.000 A 
ATOM     10  C   UNL     1     112.544 129.202 136.632  0.00  0.00    +0.000 A 
ATOM     11  C   UNL     1     111.959 128.297 135.310  0.00  0.00    +0.000 A 
ATOM     12  C   UNL     1     112.233 129.611 135.944  0.00  0.00    +0.000 A 
ATOM     13  C   UNL     1     111.938 129.156 135.278  0.00  0.00    +0.000 A 
ENDROOT
BRANCH   6  17
ATOM     14  O   UNL     1     111.238 124.201 137.048  0.00  0.00    +0.000 OA
ATOM     15  O   UNL     1     114.041 124.242 136.494  0.00  0.00    +0.000 OA
ATOM     16  O   UNL     1     112.656 123.397 136.796  0.00  0.00    +0.000 OA
ATOM     17  C   UNL     1     112.606 125.870 136.721  0.00  0.00    +0.000 A 
ATOM     18  C   UNL     1     113.315 125.468 136.595  0.00  0.00    +0.000 A 
ATOM     19  C   UNL     1     111.913 125.448 136.872  0.00  0.00    +0.000 A 
ATOM     20  C   UNL     1     111.930 124.624 136.897  0.00  0.00    +0.000 A 
ATOM     21  C   UNL     1     113.332 124.643 136.620  0.00  0.00    +0.000 A 
ATOM     22  C   UNL     1     112.639 124.221 136.771  0.00  0.00    +0.000 A 
ENDBRANCH   6  17
BRANCH   5  23
ATOM     23  O   UNL     1     113.172 126.745 138.000  0.00  0.00    +0.000 OA
BRANCH  23  30
ATOM     24  O   UNL     1     112.024 127.056 138.792  0.00  0.00    +0.000 OA
ATOM     25  O   UNL     1     114.080 126.606 139.371  0.00  0.00    +0.000 OA
ATOM     26  C   UNL     1     112.932 126.916 140.163  0.00  0.00    +0.000 C 
ATOM     27  C   UNL     1     112.131 127.107 140.216  0.00  0.00    +0.000 C 
ATOM     28  C   UNL     1     113.279 126.796 139.424  0.00  0.00    +0.000 C 
ATOM     29  C   UNL     1     111.676 127.176 139.531  0.00  0.00    +0.000 C 
ATOM     30  C   UNL     1     112.824 126.866 138.739  0.00  0.00    +0.000 C 
ATOM     31  C   UNL     1     110.876 127.366 139.585  0.00  0.00    +0.000 C 
BRANCH  26  32
ATOM     32  O   UNL     1     113.386 126.847 140.848  0.00  0.00    +0.000 OA
BRANCH  32  34
ATOM     33  O   UNL     1     113.890 128.171 141.034  0.00  0.00    +0.000 OA
ATOM     34  C   UNL     1     114.021 127.359 140.976  0.00  0.00    +0.000 C 
ATOM     35  C   UNL     1     114.786 127.058 141.046  0.00  0.00    +0.000 C 
ENDBRANCH  32  34
ENDBRANCH  26  32
BRANCH  27  36
ATOM     36  O   UNL     1     111.784 127.227 140.955  0.00  0.00    +0.000 OA
BRANCH  36  38
ATOM     37  O   UNL     1     111.338 125.905 141.266  0.00  0.00    +0.000 OA
ATOM     38  C   UNL     1     111.193 126.716 141.221  0.00  0.00    +0.000 C 
ATOM     39  C   UNL     1     110.458 127.017 141.443  0.00  0.00    +0.000 C 
ENDBRANCH  36  38
ENDBRANCH  27  36
ENDBRANCH  23  30
ENDBRANCH   5  23
TORSDOF 7
ENDMDL
MODEL 3
REMARK VINA RESULT:      -9.3     11.125     12.663
REMARK  Name = 44259471
REMARK  7 active torsions:
REMARK  status: ('A' for Active; 'I' for Inactive)
REMARK    1  A    between atoms: O_2  and  C_15
REMARK    2  A    between atoms: O_2  and  C_22
REMARK    3  A    between atoms: O_3  and  C_16
REMARK    4  A    between atoms: O_3  and  C_23
REMARK    5  A    between atoms: O_4  and  C_19
REMARK    6  A    between atoms: O_4  and  C_21
REMARK    7  A    between atoms: C_24  and  C_30
REMARK                            x       y       z     vdW  Elec       q    Type
REMARK                         _______ _______ _______ _____ _____    ______ ____
ROOT
ATOM      1  O   UNL     1     111.721 125.984 136.159  0.00  0.00    +0.000 OA
ATOM      2  O   UNL     1     111.809 128.288 135.260  0.00  0.00    +0.000 OA
ATOM      3  O   UNL     1     110.530 128.114 134.614  0.00  0.00    +0.000 OA
ATOM      4  O   UNL     1     109.138 125.561 134.882  0.00  0.00    +0.000 OA
ATOM      5  C   UNL     1     112.399 127.235 136.025  0.00  0.00    +0.000 A 
ATOM      6  C   UNL     1     112.369 126.467 136.325  0.00  0.00    +0.000 A 
ATOM      7  C   UNL     1     111.779 127.520 135.560  0.00  0.00    +0.000 A 
ATOM      8  C   UNL     1     111.131 127.036 135.395  0.00  0.00    +0.000 A 
ATOM      9  C   UNL     1     111.103 126.268 135.695  0.00  0.00    +0.000 A 
ATOM     10  C   UNL     1     110.493 127.344 134.909  0.00  0.00    +0.000 A 
ATOM     11  C   UNL     1     110.433 125.756 135.530  0.00  0.00    +0.000 A 
ATOM     12  C   UNL     1     109.815 126.846 134.734  0.00  0.00    +0.000 A 
ATOM     13  C   UNL     1     109.785 126.046 135.046  0.00  0.00    +0.000 A 
ENDROOT
BRANCH   6  17
ATOM     14  O   UNL     1     114.988 125.343 136.541  0.00  0.00    +0.000 OA
ATOM     15  O   UNL     1     113.465 125.883 138.899  0.00  0.00    +0.000 OA
ATOM     16  O   UNL     1     114.845 125.328 138.185  0.00  0.00    +0.000 OA
ATOM     17  C   UNL     1     112.989 126.182 136.790  0.00  0.00    +0.000 A 
ATOM     18  C   UNL     1     112.917 126.175 137.612  0.00  0.00    +0.000 A 
ATOM     19  C   UNL     1     113.679 125.904 136.433  0.00  0.00    +0.000 A 
ATOM     20  C   UNL     1     114.297 125.620 136.898  0.00  0.00    +0.000 A 
ATOM     21  C   UNL     1     113.537 125.890 138.077  0.00  0.00    +0.000 A 
ATOM     22  C   UNL     1     114.227 125.612 137.720  0.00  0.00    +0.000 A 
ENDBRANCH   6  17
BRANCH   5  23
ATOM     23  O   UNL     1     113.047 127.718 136.190  0.00  0.00    +0.000 OA
BRANCH  23  30
ATOM     24  O   UNL     1     112.368 128.544 137.138  0.00  0.00    +0.000 OA
ATOM     25  O   UNL     1     113.947 129.013 135.706  0.00  0.00    +0.000 OA
ATOM     26  C   UNL     1     113.268 129.839 136.654  0.00  0.00    +0.000 C 
ATOM     27  C   UNL     1     112.703 129.928 137.250  0.00  0.00    +0.000 C 
ATOM     28  C   UNL     1     113.382 129.102 136.302  0.00  0.00    +0.000 C 
ATOM     29  C   UNL     1     112.253 129.281 137.492  0.00  0.00    +0.000 C 
ATOM     30  C   UNL     1     112.932 128.455 136.544  0.00  0.00    +0.000 C 
ATOM     31  C   UNL     1     111.689 129.370 138.086  0.00  0.00    +0.000 C 
BRANCH  26  32
ATOM     32  O   UNL     1     113.718 130.487 136.412  0.00  0.00    +0.000 OA
BRANCH  32  34
ATOM     33  O   UNL     1     114.846 130.335 137.277  0.00  0.00    +0.000 OA
ATOM     34  C   UNL     1     114.535 130.487 136.529  0.00  0.00    +0.000 C 
ATOM     35  C   UNL     1     115.041 130.641 135.895  0.00  0.00    +0.000 C 
ENDBRANCH  32  34
ENDBRANCH  26  32
BRANCH  27  36
ATOM     36  O   UNL     1     112.589 130.665 137.602  0.00  0.00    +0.000 OA
BRANCH  36  38
ATOM     37  O   UNL     1     111.617 131.242 136.726  0.00  0.00    +0.000 OA
ATOM     38  C   UNL     1     111.878 131.070 137.490  0.00  0.00    +0.000 C 
ATOM     39  C   UNL     1     111.430 131.303 138.142  0.00  0.00    +0.000 C 
ENDBRANCH  36  38
ENDBRANCH  27  36
ENDBRANCH  23  30
ENDBRANCH   5  23
TORSDOF 7
ENDMDL
MODEL 4
REMARK VINA RESULT:      -9.3      7.932     11.035
REMARK  Name = 44259471
REMARK  7 active torsions:
REMARK  status: ('A' for Active; 'I' for Inactive)
REMARK    1  A    between atoms: O_2  and  C_15
REMARK    2  A    between atoms: O_2  and  C_22
REMARK    3  A    between atoms: O_3  and  C_16
REMARK    4  A    between atoms: O_3  and  C_23
REMARK    5  A    between atoms: O_4  and  C_19
REMARK    6  A    between atoms: O_4  and  C_21
REMARK    7  A    between atoms: C_24  and  C_30
REMARK                            x       y       z     vdW  Elec       q    Type
REMARK                         _______ _______ _______ _____ _____    ______ ____
ROOT
ATOM      1  O   UNL     1     111.751 128.878 139.054  0.00  0.00    +0.000 OA
ATOM      2  O   UNL     1     112.601 127.892 136.949  0.00  0.00    +0.000 OA
ATOM      3  O   UNL     1     112.773 129.203 136.371  0.00  0.00    +0.000 OA
ATOM      4  O   UNL     1     112.072 131.555 137.954  0.00  0.00    +0.000 OA
ATOM      5  C   UNL     1     112.096 127.729 138.276  0.00  0.00    +0.000 A 
ATOM      6  C   UNL     1     111.813 128.058 138.977  0.00  0.00    +0.000 A 
ATOM      7  C   UNL     1     112.318 128.221 137.650  0.00  0.00    +0.000 A 
ATOM      8  C   UNL     1     112.256 129.040 137.727  0.00  0.00    +0.000 A 
ATOM      9  C   UNL     1     111.973 129.368 138.429  0.00  0.00    +0.000 A 
ATOM     10  C   UNL     1     112.490 129.540 137.070  0.00  0.00    +0.000 A 
ATOM     11  C   UNL     1     111.905 130.219 138.521  0.00  0.00    +0.000 A 
ATOM     12  C   UNL     1     112.429 130.394 137.143  0.00  0.00    +0.000 A 
ATOM     13  C   UNL     1     112.134 130.736 137.874  0.00  0.00    +0.000 A 
ENDROOT
BRANCH   6  17
ATOM     14  O   UNL     1     109.771 126.829 140.555  0.00  0.00    +0.000 OA
ATOM     15  O   UNL     1     112.524 126.343 141.149  0.00  0.00    +0.000 OA
ATOM     16  O   UNL     1     110.926 126.095 141.477  0.00  0.00    +0.000 OA
ATOM     17  C   UNL     1     111.591 127.567 139.603  0.00  0.00    +0.000 A 
ATOM     18  C   UNL     1     112.168 127.201 140.063  0.00  0.00    +0.000 A 
ATOM     19  C   UNL     1     110.791 127.444 139.767  0.00  0.00    +0.000 A 
ATOM     20  C   UNL     1     110.570 126.953 140.391  0.00  0.00    +0.000 A 
ATOM     21  C   UNL     1     111.946 126.709 140.689  0.00  0.00    +0.000 A 
ATOM     22  C   UNL     1     111.147 126.586 140.853  0.00  0.00    +0.000 A 
ENDBRANCH   6  17
BRANCH   5  23
ATOM     23  O   UNL     1     112.157 126.910 138.199  0.00  0.00    +0.000 OA
BRANCH  23  30
ATOM     24  O   UNL     1     110.995 126.786 137.375  0.00  0.00    +0.000 OA
ATOM     25  O   UNL     1     112.826 125.599 137.454  0.00  0.00    +0.000 OA
ATOM     26  C   UNL     1     111.665 125.474 136.630  0.00  0.00    +0.000 C 
ATOM     27  C   UNL     1     110.916 125.740 136.405  0.00  0.00    +0.000 C 
ATOM     28  C   UNL     1     112.077 125.865 137.228  0.00  0.00    +0.000 C 
ATOM     29  C   UNL     1     110.582 126.396 136.777  0.00  0.00    +0.000 C 
ATOM     30  C   UNL     1     111.743 126.521 137.601  0.00  0.00    +0.000 C 
ATOM     31  C   UNL     1     109.834 126.661 136.552  0.00  0.00    +0.000 C 
BRANCH  26  32
ATOM     32  O   UNL     1     111.999 124.819 136.258  0.00  0.00    +0.000 OA
BRANCH  32  34
ATOM     33  O   UNL     1     111.622 123.770 137.152  0.00  0.00    +0.000 OA
ATOM     34  C   UNL     1     112.196 124.150 136.699  0.00  0.00    +0.000 C 
ATOM     35  C   UNL     1     112.969 123.862 136.687  0.00  0.00    +0.000 C 
ENDBRANCH  32  34
ENDBRANCH  26  32
BRANCH  27  36
ATOM     36  O   UNL     1     110.503 125.350 135.807  0.00  0.00    +0.000 OA
BRANCH  36  38
ATOM     37  O   UNL     1     110.960 126.120 134.692  0.00  0.00    +0.000 OA
ATOM     38  C   UNL     1     110.350 125.735 135.093  0.00  0.00    +0.000 C 
ATOM     39  C   UNL     1     109.586 125.734 134.780  0.00  0.00    +0.000 C 
ENDBRANCH  36  38
ENDBRANCH  27  36
ENDBRANCH  23  30
ENDBRANCH   5  23
TORSDOF 7
ENDMDL
MODEL 5
REMARK VINA RESULT:      -9.3     10.205     12.654
REMARK  Name = 44259471
REMARK  7 active torsions:
REMARK  status: ('A' for Active; 'I' for Inactive)
REMARK    1  A    between atoms: O_2  and  C_15
REMARK    2  A    between atoms: O_2  and  C_22
REMARK    3  A    between atoms: O_3  and  C_16
REMARK    4  A    between atoms: O_3  and  C_23
REMARK    5  A    between atoms: O_4  and  C_19
REMARK    6  A    between atoms: O_4  and  C_21
REMARK    7  A    between atoms: C_24  and  C_30
REMARK                            x       y       z     vdW  Elec       q    Type
REMARK                         _______ _______ _______ _____ _____    ______ ____
ROOT
ATOM      1  O   UNL     1     111.327 129.881 135.800  0.00  0.00    +0.000 OA
ATOM      2  O   UNL     1     110.592 128.404 137.645  0.00  0.00    +0.000 OA
ATOM      3  O   UNL     1     109.209 128.593 137.283  0.00  0.00    +0.000 OA
ATOM      4  O   UNL     1     108.556 130.309 135.012  0.00  0.00    +0.000 OA
ATOM      5  C   UNL     1     111.641 129.041 136.913  0.00  0.00    +0.000 A 
ATOM      6  C   UNL     1     111.886 129.533 136.298  0.00  0.00    +0.000 A 
ATOM      7  C   UNL     1     110.837 128.896 137.030  0.00  0.00    +0.000 A 
ATOM      8  C   UNL     1     110.278 129.245 136.533  0.00  0.00    +0.000 A 
ATOM      9  C   UNL     1     110.524 129.737 135.918  0.00  0.00    +0.000 A 
ATOM     10  C   UNL     1     109.445 129.087 136.665  0.00  0.00    +0.000 A 
ATOM     11  C   UNL     1     109.952 130.105 135.394  0.00  0.00    +0.000 A 
ATOM     12  C   UNL     1     108.858 129.446 136.151  0.00  0.00    +0.000 A 
ATOM     13  C   UNL     1     109.113 129.959 135.511  0.00  0.00    +0.000 A 
ENDROOT
BRANCH   6  17
ATOM     14  O   UNL     1     114.295 129.073 134.830  0.00  0.00    +0.000 OA
ATOM     15  O   UNL     1     114.300 130.859 137.061  0.00  0.00    +0.000 OA
ATOM     16  O   UNL     1     115.101 130.110 135.829  0.00  0.00    +0.000 OA
ATOM     17  C   UNL     1     112.690 129.677 136.180  0.00  0.00    +0.000 A 
ATOM     18  C   UNL     1     113.093 130.196 136.680  0.00  0.00    +0.000 A 
ATOM     19  C   UNL     1     113.091 129.303 135.564  0.00  0.00    +0.000 A 
ATOM     20  C   UNL     1     113.894 129.447 135.447  0.00  0.00    +0.000 A 
ATOM     21  C   UNL     1     113.897 130.340 136.562  0.00  0.00    +0.000 A 
ATOM     22  C   UNL     1     114.298 129.966 135.946  0.00  0.00    +0.000 A 
ENDBRANCH   6  17
BRANCH   5  23
ATOM     23  O   UNL     1     112.200 128.692 137.410  0.00  0.00    +0.000 OA
BRANCH  23  30
ATOM     24  O   UNL     1     112.088 127.395 136.821  0.00  0.00    +0.000 OA
ATOM     25  O   UNL     1     112.570 128.001 138.862  0.00  0.00    +0.000 OA
ATOM     26  C   UNL     1     112.457 126.704 138.272  0.00  0.00    +0.000 C 
ATOM     27  C   UNL     1     112.309 126.228 137.614  0.00  0.00    +0.000 C 
ATOM     28  C   UNL     1     112.421 127.525 138.203  0.00  0.00    +0.000 C 
ATOM     29  C   UNL     1     112.124 126.574 136.888  0.00  0.00    +0.000 C 
ATOM     30  C   UNL     1     112.236 127.871 137.478  0.00  0.00    +0.000 C 
ATOM     31  C   UNL     1     111.975 126.098 136.231  0.00  0.00    +0.000 C 
BRANCH  26  32
ATOM     32  O   UNL     1     112.642 126.358 138.998  0.00  0.00    +0.000 OA
BRANCH  32  34
ATOM     33  O   UNL     1     114.067 126.262 138.932  0.00  0.00    +0.000 OA
ATOM     34  C   UNL     1     113.384 126.484 139.338  0.00  0.00    +0.000 C 
ATOM     35  C   UNL     1     113.442 126.832 140.083  0.00  0.00    +0.000 C 
ENDBRANCH  32  34
ENDBRANCH  26  32
BRANCH  27  36
ATOM     36  O   UNL     1     112.345 125.407 137.683  0.00  0.00    +0.000 OA
BRANCH  36  38
ATOM     37  O   UNL     1     110.978 125.157 138.018  0.00  0.00    +0.000 OA
ATOM     38  C   UNL     1     111.659 124.955 137.598  0.00  0.00    +0.000 C 
ATOM     39  C   UNL     1     111.655 124.303 137.094  0.00  0.00    +0.000 C 
ENDBRANCH  36  38
ENDBRANCH  27  36
ENDBRANCH  23  30
ENDBRANCH   5  23
TORSDOF 7
ENDMDL
MODEL 6
REMARK VINA RESULT:      -9.3     10.628     11.843
REMARK  Name = 44259471
REMARK  7 active torsions:
REMARK  status: ('A' for Active; 'I' for Inactive)
REMARK    1  A    between atoms: O_2  and  C_15
REMARK    2  A    between atoms: O_2  and  C_22
REMARK    3  A    between atoms: O_3  and  C_16
REMARK    4  A    between atoms: O_3  and  C_23
REMARK    5  A    between atoms: O_4  and  C_19
REMARK    6  A    between atoms: O_4  and  C_21
REMARK    7  A    between atoms: C_24  and  C_30
REMARK                            x       y       z     vdW  Elec       q    Type
REMARK                         _______ _______ _______ _____ _____    ______ ____
ROOT
ATOM      1  O   UNL     1     113.545 126.112 138.977  0.00  0.00    +0.000 OA
ATOM      2  O   UNL     1     112.676 128.374 138.477  0.00  0.00    +0.000 OA
ATOM      3  O   UNL     1     113.325 128.913 139.648  0.00  0.00    +0.000 OA
ATOM      4  O   UNL     1     114.882 127.128 141.356  0.00  0.00    +0.000 OA
ATOM      5  C   UNL     1     112.784 126.989 138.144  0.00  0.00    +0.000 A 
ATOM      6  C   UNL     1     113.074 126.235 138.311  0.00  0.00    +0.000 A 
ATOM      7  C   UNL     1     112.966 127.620 138.644  0.00  0.00    +0.000 A 
ATOM      8  C   UNL     1     113.437 127.497 139.310  0.00  0.00    +0.000 A 
ATOM      9  C   UNL     1     113.726 126.742 139.476  0.00  0.00    +0.000 A 
ATOM     10  C   UNL     1     113.619 128.162 139.822  0.00  0.00    +0.000 A 
ATOM     11  C   UNL     1     114.218 126.601 140.166  0.00  0.00    +0.000 A 
ATOM     12  C   UNL     1     114.109 128.040 140.517  0.00  0.00    +0.000 A 
ATOM     13  C   UNL     1     114.411 127.254 140.691  0.00  0.00    +0.000 A 
ENDROOT
BRANCH   6  17
ATOM     14  O   UNL     1     111.203 124.302 137.344  0.00  0.00    +0.000 OA
ATOM     15  O   UNL     1     113.855 124.382 136.280  0.00  0.00    +0.000 OA
ATOM     16  O   UNL     1     112.348 123.711 136.312  0.00  0.00    +0.000 OA
ATOM     17  C   UNL     1     112.892 125.603 137.811  0.00  0.00    +0.000 A 
ATOM     18  C   UNL     1     113.464 125.308 137.296  0.00  0.00    +0.000 A 
ATOM     19  C   UNL     1     112.138 125.268 137.827  0.00  0.00    +0.000 A 
ATOM     20  C   UNL     1     111.957 124.638 137.328  0.00  0.00    +0.000 A 
ATOM     21  C   UNL     1     113.282 124.677 136.796  0.00  0.00    +0.000 A 
ATOM     22  C   UNL     1     112.529 124.342 136.812  0.00  0.00    +0.000 A 
ENDBRANCH   6  17
BRANCH   5  23
ATOM     23  O   UNL     1     112.312 127.112 137.478  0.00  0.00    +0.000 OA
BRANCH  23  30
ATOM     24  O   UNL     1     113.344 127.698 136.681  0.00  0.00    +0.000 OA
ATOM     25  O   UNL     1     111.198 128.091 136.755  0.00  0.00    +0.000 OA
ATOM     26  C   UNL     1     112.230 128.676 135.958  0.00  0.00    +0.000 C 
ATOM     27  C   UNL     1     113.025 128.724 135.740  0.00  0.00    +0.000 C 
ATOM     28  C   UNL     1     111.993 128.139 136.537  0.00  0.00    +0.000 C 
ATOM     29  C   UNL     1     113.582 128.235 136.102  0.00  0.00    +0.000 C 
ATOM     30  C   UNL     1     112.550 127.649 136.899  0.00  0.00    +0.000 C 
ATOM     31  C   UNL     1     114.375 128.283 135.884  0.00  0.00    +0.000 C 
BRANCH  26  32
ATOM     32  O   UNL     1     111.673 129.166 135.597  0.00  0.00    +0.000 OA
BRANCH  32  34
ATOM     33  O   UNL     1     111.213 128.238 134.612  0.00  0.00    +0.000 OA
ATOM     34  C   UNL     1     111.057 128.835 135.158  0.00  0.00    +0.000 C 
ATOM     35  C   UNL     1     110.284 129.103 135.267  0.00  0.00    +0.000 C 
ENDBRANCH  32  34
ENDBRANCH  26  32
BRANCH  27  36
ATOM     36  O   UNL     1     113.261 129.262 135.161  0.00  0.00    +0.000 OA
BRANCH  36  38
ATOM     37  O   UNL     1     113.606 130.380 135.982  0.00  0.00    +0.000 OA
ATOM     38  C   UNL     1     113.780 129.874 135.354  0.00  0.00    +0.000 C 
ATOM     39  C   UNL     1     114.473 129.980 134.919  0.00  0.00    +0.000 C 
ENDBRANCH  36  38
ENDBRANCH  27  36
ENDBRANCH  23  30
ENDBRANCH   5  23
TORSDOF 7
ENDMDL
MODEL 7
REMARK VINA RESULT:      -9.2      9.297     12.998
REMARK  Name = 44259471
REMARK  7 active torsions:
REMARK  status: ('A' for Active; 'I' for Inactive)
REMARK    1  A    between atoms: O_2  and  C_15
REMARK    2  A    between atoms: O_2  and  C_22
REMARK    3  A    between atoms: O_3  and  C_16
REMARK    4  A    between atoms: O_3  and  C_23
REMARK    5  A    between atoms: O_4  and  C_19
REMARK    6  A    between atoms: O_4  and  C_21
REMARK    7  A    between atoms: C_24  and  C_30
REMARK                            x       y       z     vdW  Elec       q    Type
REMARK                         _______ _______ _______ _____ _____    ______ ____
ROOT
ATOM      1  O   UNL     1     111.774 129.514 135.467  0.00  0.00    +0.000 OA
ATOM      2  O   UNL     1     111.355 127.178 136.168  0.00  0.00    +0.000 OA
ATOM      3  O   UNL     1     109.945 127.319 135.896  0.00  0.00    +0.000 OA
ATOM      4  O   UNL     1     108.941 129.872 134.895  0.00  0.00    +0.000 OA
ATOM      5  C   UNL     1     112.261 128.263 135.956  0.00  0.00    +0.000 A 
ATOM      6  C   UNL     1     112.400 129.041 135.723  0.00  0.00    +0.000 A 
ATOM      7  C   UNL     1     111.494 127.957 135.934  0.00  0.00    +0.000 A 
ATOM      8  C   UNL     1     110.868 128.429 135.679  0.00  0.00    +0.000 A 
ATOM      9  C   UNL     1     111.009 129.208 135.445  0.00  0.00    +0.000 A 
ATOM     10  C   UNL     1     110.076 128.099 135.660  0.00  0.00    +0.000 A 
ATOM     11  C   UNL     1     110.365 129.710 135.177  0.00  0.00    +0.000 A 
ATOM     12  C   UNL     1     109.420 128.586 135.395  0.00  0.00    +0.000 A 
ATOM     13  C   UNL     1     109.565 129.397 135.151  0.00  0.00    +0.000 A 
ENDROOT
BRANCH   6  17
ATOM     14  O   UNL     1     115.027 129.220 134.612  0.00  0.00    +0.000 OA
ATOM     15  O   UNL     1     114.368 130.700 136.966  0.00  0.00    +0.000 OA
ATOM     16  O   UNL     1     115.463 130.266 135.811  0.00  0.00    +0.000 OA
ATOM     17  C   UNL     1     113.166 129.348 135.745  0.00  0.00    +0.000 A 
ATOM     18  C   UNL     1     113.384 129.871 136.344  0.00  0.00    +0.000 A 
ATOM     19  C   UNL     1     113.714 129.131 135.167  0.00  0.00    +0.000 A 
ATOM     20  C   UNL     1     114.479 129.437 135.190  0.00  0.00    +0.000 A 
ATOM     21  C   UNL     1     114.150 130.177 136.367  0.00  0.00    +0.000 A 
ATOM     22  C   UNL     1     114.698 129.960 135.789  0.00  0.00    +0.000 A 
ENDBRANCH   6  17
BRANCH   5  23
ATOM     23  O   UNL     1     112.887 127.790 136.212  0.00  0.00    +0.000 OA
BRANCH  23  30
ATOM     24  O   UNL     1     112.575 127.898 137.603  0.00  0.00    +0.000 OA
ATOM     25  O   UNL     1     113.455 126.261 136.458  0.00  0.00    +0.000 OA
ATOM     26  C   UNL     1     113.144 126.369 137.849  0.00  0.00    +0.000 C 
ATOM     27  C   UNL     1     112.846 126.806 138.483  0.00  0.00    +0.000 C 
ATOM     28  C   UNL     1     113.157 126.698 137.092  0.00  0.00    +0.000 C 
ATOM     29  C   UNL     1     112.562 127.570 138.360  0.00  0.00    +0.000 C 
ATOM     30  C   UNL     1     112.873 127.462 136.969  0.00  0.00    +0.000 C 
ATOM     31  C   UNL     1     112.264 128.006 138.993  0.00  0.00    +0.000 C 
BRANCH  26  32
ATOM     32  O   UNL     1     113.428 125.604 137.972  0.00  0.00    +0.000 OA
BRANCH  32  34
ATOM     33  O   UNL     1     114.796 125.834 138.314  0.00  0.00    +0.000 OA
ATOM     34  C   UNL     1     114.230 125.440 137.864  0.00  0.00    +0.000 C 
ATOM     35  C   UNL     1     114.464 124.882 137.303  0.00  0.00    +0.000 C 
ENDBRANCH  32  34
ENDBRANCH  26  32
BRANCH  27  36
ATOM     36  O   UNL     1     112.833 126.477 139.239  0.00  0.00    +0.000 OA
BRANCH  36  38
ATOM     37  O   UNL     1     111.545 125.855 139.235  0.00  0.00    +0.000 OA
ATOM     38  C   UNL     1     112.111 126.325 139.610  0.00  0.00    +0.000 C 
ATOM     39  C   UNL     1     111.955 126.643 140.355  0.00  0.00    +0.000 C 
ENDBRANCH  36  38
ENDBRANCH  27  36
ENDBRANCH  23  30
ENDBRANCH   5  23
TORSDOF 7
ENDMDL
MODEL 8
REMARK VINA RESULT:      -9.2      8.259     11.713
REMARK  Name = 44259471
REMARK  7 active torsions:
REMARK  status: ('A' for Active; 'I' for Inactive)
REMARK    1  A    between atoms: O_2  and  C_15
REMARK    2  A    between atoms: O_2  and  C_22
REMARK    3  A    between atoms: O_3  and  C_16
REMARK    4  A    between atoms: O_3  and  C_23
REMARK    5  A    between atoms: O_4  and  C_19
REMARK    6  A    between atoms: O_4  and  C_21
REMARK    7  A    between atoms: C_24  and  C_30
REMARK                            x       y       z     vdW  Elec       q    Type
REMARK                         _______ _______ _______ _____ _____    ______ ____
ROOT
ATOM      1  O   UNL     1     113.095 127.310 135.944  0.00  0.00    +0.000 OA
ATOM      2  O   UNL     1     112.383 128.601 137.932  0.00  0.00    +0.000 OA
ATOM      3  O   UNL     1     113.128 129.753 137.486  0.00  0.00    +0.000 OA
ATOM      4  O   UNL     1     114.622 129.596 134.981  0.00  0.00    +0.000 OA
ATOM      5  C   UNL     1     112.366 127.392 137.171  0.00  0.00    +0.000 A 
ATOM      6  C   UNL     1     112.603 126.962 136.508  0.00  0.00    +0.000 A 
ATOM      7  C   UNL     1     112.620 128.171 137.269  0.00  0.00    +0.000 A 
ATOM      8  C   UNL     1     113.112 128.519 136.706  0.00  0.00    +0.000 A 
ATOM      9  C   UNL     1     113.349 128.088 136.043  0.00  0.00    +0.000 A 
ATOM     10  C   UNL     1     113.370 129.330 136.820  0.00  0.00    +0.000 A 
ATOM     11  C   UNL     1     113.861 128.439 135.450  0.00  0.00    +0.000 A 
ATOM     12  C   UNL     1     113.883 129.698 136.237  0.00  0.00    +0.000 A 
ATOM     13  C   UNL     1     114.130 129.250 135.547  0.00  0.00    +0.000 A 
ENDROOT
BRANCH   6  17
ATOM     14  O   UNL     1     113.115 124.154 136.647  0.00  0.00    +0.000 OA
ATOM     15  O   UNL     1     110.563 125.100 135.775  0.00  0.00    +0.000 OA
ATOM     16  O   UNL     1     111.584 123.848 136.112  0.00  0.00    +0.000 OA
ATOM     17  C   UNL     1     112.348 126.183 136.409  0.00  0.00    +0.000 A 
ATOM     18  C   UNL     1     111.583 126.031 136.142  0.00  0.00    +0.000 A 
ATOM     19  C   UNL     1     112.859 125.557 136.578  0.00  0.00    +0.000 A 
ATOM     20  C   UNL     1     112.604 124.780 136.479  0.00  0.00    +0.000 A 
ATOM     21  C   UNL     1     111.328 125.252 136.043  0.00  0.00    +0.000 A 
ATOM     22  C   UNL     1     111.839 124.626 136.211  0.00  0.00    +0.000 A 
ENDBRANCH   6  17
BRANCH   5  23
ATOM     23  O   UNL     1     111.874 127.044 137.734  0.00  0.00    +0.000 OA
BRANCH  23  30
ATOM     24  O   UNL     1     112.918 126.831 138.686  0.00  0.00    +0.000 OA
ATOM     25  O   UNL     1     110.788 127.216 138.964  0.00  0.00    +0.000 OA
ATOM     26  C   UNL     1     111.832 127.003 139.916  0.00  0.00    +0.000 C 
ATOM     27  C   UNL     1     112.627 126.854 140.084  0.00  0.00    +0.000 C 
ATOM     28  C   UNL     1     111.582 127.066 139.133  0.00  0.00    +0.000 C 
ATOM     29  C   UNL     1     113.170 126.768 139.469  0.00  0.00    +0.000 C 
ATOM     30  C   UNL     1     112.125 126.981 138.517  0.00  0.00    +0.000 C 
ATOM     31  C   UNL     1     113.963 126.619 139.637  0.00  0.00    +0.000 C 
BRANCH  26  32
ATOM     32  O   UNL     1     111.289 127.089 140.531  0.00  0.00    +0.000 OA
BRANCH  32  34
ATOM     33  O   UNL     1     110.835 125.739 140.653  0.00  0.00    +0.000 OA
ATOM     34  C   UNL     1     110.673 126.547 140.615  0.00  0.00    +0.000 C 
ATOM     35  C   UNL     1     109.894 126.813 140.662  0.00  0.00    +0.000 C 
ENDBRANCH  32  34
ENDBRANCH  26  32
BRANCH  27  36
ATOM     36  O   UNL     1     112.877 126.790 140.868  0.00  0.00    +0.000 OA
BRANCH  36  38
ATOM     37  O   UNL     1     113.175 128.122 141.296  0.00  0.00    +0.000 OA
ATOM     38  C   UNL     1     113.411 127.340 141.176  0.00  0.00    +0.000 C 
ATOM     39  C   UNL     1     114.179 127.107 141.363  0.00  0.00    +0.000 C 
ENDBRANCH  36  38
ENDBRANCH  27  36
ENDBRANCH  23  30
ENDBRANCH   5  23
TORSDOF 7
ENDMDL
MODEL 9
REMARK VINA RESULT:      -9.2      9.246     11.732
REMARK  Name = 44259471
REMARK  7 active torsions:
REMARK  status: ('A' for Active; 'I' for Inactive)
REMARK    1  A    between atoms: O_2  and  C_15
REMARK    2  A    between atoms: O_2  and  C_22
REMARK    3  A    between atoms: O_3  and  C_16
REMARK    4  A    between atoms: O_3  and  C_23
REMARK    5  A    between atoms: O_4  and  C_19
REMARK    6  A    between atoms: O_4  and  C_21
REMARK    7  A    between atoms: C_24  and  C_30
REMARK                            x       y       z     vdW  Elec       q    Type
REMARK                         _______ _______ _______ _____ _____    ______ ____
ROOT
ATOM      1  O   UNL     1     112.419 125.328 138.147  0.00  0.00    +0.000 OA
ATOM      2  O   UNL     1     111.467 126.856 136.449  0.00  0.00    +0.000 OA
ATOM      3  O   UNL     1     111.225 125.753 135.551  0.00  0.00    +0.000 OA
ATOM      4  O   UNL     1     111.960 123.054 136.386  0.00  0.00    +0.000 OA
ATOM      5  C   UNL     1     112.057 126.647 137.733  0.00  0.00    +0.000 A 
ATOM      6  C   UNL     1     112.375 126.138 138.299  0.00  0.00    +0.000 A 
ATOM      7  C   UNL     1     111.784 126.347 137.014  0.00  0.00    +0.000 A 
ATOM      8  C   UNL     1     111.828 125.537 136.862  0.00  0.00    +0.000 A 
ATOM      9  C   UNL     1     112.146 125.028 137.429  0.00  0.00    +0.000 A 
ATOM     10  C   UNL     1     111.541 125.236 136.111  0.00  0.00    +0.000 A 
ATOM     11  C   UNL     1     112.197 124.183 137.282  0.00  0.00    +0.000 A 
ATOM     12  C   UNL     1     111.584 124.394 135.946  0.00  0.00    +0.000 A 
ATOM     13  C   UNL     1     111.914 123.864 136.536  0.00  0.00    +0.000 A 
ENDROOT
BRANCH   6  17
ATOM     14  O   UNL     1     114.541 126.898 140.000  0.00  0.00    +0.000 OA
ATOM     15  O   UNL     1     111.846 127.180 140.907  0.00  0.00    +0.000 OA
ATOM     16  O   UNL     1     113.466 127.340 141.172  0.00  0.00    +0.000 OA
ATOM     17  C   UNL     1     112.648 126.438 139.017  0.00  0.00    +0.000 A 
ATOM     18  C   UNL     1     112.110 126.659 139.603  0.00  0.00    +0.000 A 
ATOM     19  C   UNL     1     113.458 126.518 139.150  0.00  0.00    +0.000 A 
ATOM     20  C   UNL     1     113.731 126.819 139.868  0.00  0.00    +0.000 A 
ATOM     21  C   UNL     1     112.383 126.959 140.322  0.00  0.00    +0.000 A 
ATOM     22  C   UNL     1     113.194 127.039 140.454  0.00  0.00    +0.000 A 
ENDBRANCH   6  17
BRANCH   5  23
ATOM     23  O   UNL     1     112.013 127.457 137.885  0.00  0.00    +0.000 OA
BRANCH  23  30
ATOM     24  O   UNL     1     113.087 127.779 136.999  0.00  0.00    +0.000 OA
ATOM     25  O   UNL     1     111.364 128.954 137.643  0.00  0.00    +0.000 OA
ATOM     26  C   UNL     1     112.437 129.276 136.756  0.00  0.00    +0.000 C 
ATOM     27  C   UNL     1     113.137 129.063 136.373  0.00  0.00    +0.000 C 
ATOM     28  C   UNL     1     112.063 128.741 137.260  0.00  0.00    +0.000 C 
ATOM     29  C   UNL     1     113.462 128.314 136.495  0.00  0.00    +0.000 C 
ATOM     30  C   UNL     1     112.388 127.992 137.381  0.00  0.00    +0.000 C 
ATOM     31  C   UNL     1     114.160 128.101 136.112  0.00  0.00    +0.000 C 
BRANCH  26  32
ATOM     32  O   UNL     1     112.112 130.025 136.635  0.00  0.00    +0.000 OA
BRANCH  32  34
ATOM     33  O   UNL     1     112.724 130.728 137.719  0.00  0.00    +0.000 OA
ATOM     34  C   UNL     1     112.058 130.557 137.263  0.00  0.00    +0.000 C 
ATOM     35  C   UNL     1     111.337 130.919 137.436  0.00  0.00    +0.000 C 
ENDBRANCH  32  34
ENDBRANCH  26  32
BRANCH  27  36
ATOM     36  O   UNL     1     113.511 129.598 135.870  0.00  0.00    +0.000 OA
BRANCH  36  38
ATOM     37  O   UNL     1     112.895 129.215 134.638  0.00  0.00    +0.000 OA
ATOM     38  C   UNL     1     113.568 129.434 135.062  0.00  0.00    +0.000 C 
ATOM     39  C   UNL     1     114.297 129.490 134.681  0.00  0.00    +0.000 C 
ENDBRANCH  36  38
ENDBRANCH  27  36
ENDBRANCH  23  30
ENDBRANCH   5  23
TORSDOF 7
ENDMDL
MODEL 10
REMARK VINA RESULT:      -9.2      8.028     10.463
REMARK  Name = 44259471
REMARK  7 active torsions:
REMARK  status: ('A' for Active; 'I' for Inactive)
REMARK    1  A    between atoms: O_2  and  C_15
REMARK    2  A    between atoms: O_2  and  C_22
REMARK    3  A    between atoms: O_3  and  C_16
REMARK    4  A    between atoms: O_3  and  C_23
REMARK    5  A    between atoms: O_4  and  C_19
REMARK    6  A    between atoms: O_4  and  C_21
REMARK    7  A    between atoms: C_24  and  C_30
REMARK                            x       y       z     vdW  Elec       q    Type
REMARK                         _______ _______ _______ _____ _____    ______ ____
ROOT
ATOM      1  O   UNL     1     113.162 126.225 139.063  0.00  0.00    +0.000 OA
ATOM      2  O   UNL     1     112.478 127.691 137.190  0.00  0.00    +0.000 OA
ATOM      3  O   UNL     1     113.367 127.000 136.288  0.00  0.00    +0.000 OA
ATOM      4  O   UNL     1     114.979 124.785 137.300  0.00  0.00    +0.000 OA
ATOM      5  C   UNL     1     112.375 127.308 138.563  0.00  0.00    +0.000 A 
ATOM      6  C   UNL     1     112.604 126.819 139.187  0.00  0.00    +0.000 A 
ATOM      7  C   UNL     1     112.706 127.202 137.814  0.00  0.00    +0.000 A 
ATOM      8  C   UNL     1     113.265 126.607 137.690  0.00  0.00    +0.000 A 
ATOM      9  C   UNL     1     113.492 126.119 138.315  0.00  0.00    +0.000 A 
ATOM     10  C   UNL     1     113.601 126.507 136.907  0.00  0.00    +0.000 A 
ATOM     11  C   UNL     1     114.073 125.496 138.198  0.00  0.00    +0.000 A 
ATOM     12  C   UNL     1     114.183 125.890 136.771  0.00  0.00    +0.000 A 
ATOM     13  C   UNL     1     114.421 125.381 137.421  0.00  0.00    +0.000 A 
ENDROOT
BRANCH   6  17
ATOM     14  O   UNL     1     110.775 125.999 141.225  0.00  0.00    +0.000 OA
ATOM     15  O   UNL     1     112.451 128.277 141.641  0.00  0.00    +0.000 OA
ATOM     16  O   UNL     1     111.283 127.244 142.181  0.00  0.00    +0.000 OA
ATOM     17  C   UNL     1     112.273 126.925 139.936  0.00  0.00    +0.000 A 
ATOM     18  C   UNL     1     112.527 127.548 140.414  0.00  0.00    +0.000 A 
ATOM     19  C   UNL     1     111.689 126.409 140.207  0.00  0.00    +0.000 A 
ATOM     20  C   UNL     1     111.359 126.515 140.955  0.00  0.00    +0.000 A 
ATOM     21  C   UNL     1     112.197 127.654 141.163  0.00  0.00    +0.000 A 
ATOM     22  C   UNL     1     111.613 127.138 141.433  0.00  0.00    +0.000 A 
ENDBRANCH   6  17
BRANCH   5  23
ATOM     23  O   UNL     1     111.817 127.902 138.687  0.00  0.00    +0.000 OA
BRANCH  23  30
ATOM     24  O   UNL     1     110.773 127.205 138.005  0.00  0.00    +0.000 OA
ATOM     25  O   UNL     1     111.122 129.342 138.280  0.00  0.00    +0.000 OA
ATOM     26  C   UNL     1     110.078 128.645 137.597  0.00  0.00    +0.000 C 
ATOM     27  C   UNL     1     109.730 127.936 137.358  0.00  0.00    +0.000 C 
ATOM     28  C   UNL     1     110.774 128.633 138.040  0.00  0.00    +0.000 C 
ATOM     29  C   UNL     1     110.077 127.216 137.561  0.00  0.00    +0.000 C 
ATOM     30  C   UNL     1     111.121 127.913 138.244  0.00  0.00    +0.000 C 
ATOM     31  C   UNL     1     109.729 126.508 137.322  0.00  0.00    +0.000 C 
BRANCH  26  32
ATOM     32  O   UNL     1     109.730 129.365 137.394  0.00  0.00    +0.000 OA
BRANCH  32  34
ATOM     33  O   UNL     1     108.885 129.578 138.526  0.00  0.00    +0.000 OA
ATOM     34  C   UNL     1     109.437 129.862 137.983  0.00  0.00    +0.000 C 
ATOM     35  C   UNL     1     109.696 130.644 138.030  0.00  0.00    +0.000 C 
ENDBRANCH  32  34
ENDBRANCH  26  32
BRANCH  27  36
ATOM     36  O   UNL     1     109.034 127.948 136.915  0.00  0.00    +0.000 OA
BRANCH  36  38
ATOM     37  O   UNL     1     109.562 128.044 135.590  0.00  0.00    +0.000 OA
ATOM     38  C   UNL     1     109.042 127.697 136.128  0.00  0.00    +0.000 C 
ATOM     39  C   UNL     1     108.530 127.100 135.881  0.00  0.00    +0.000 C 
ENDBRANCH  36  38
ENDBRANCH  27  36
ENDBRANCH  23  30
ENDBRANCH   5  23
TORSDOF 7
ENDMDL
