MODEL 1
REMARK VINA RESULT:      -8.8      0.000      0.000
REMARK  Name = 44258702
REMARK  2 active torsions:
REMARK  status: ('A' for Active; 'I' for Inactive)
REMARK    1  A    between atoms: O_2  and  C_11
REMARK    2  A    between atoms: C_9  and  C_12
REMARK                            x       y       z     vdW  Elec       q    Type
REMARK                         _______ _______ _______ _____ _____    ______ ____
ROOT
ATOM      1  O   UNL     1     105.684 124.513 147.803  0.00  0.00    +0.000 OA
ATOM      2  O   UNL     1     106.337 124.101 149.291  0.00  0.00    +0.000 OA
ATOM      3  O   UNL     1     107.081 125.591 146.068  0.00  0.00    +0.000 OA
ATOM      4  O   UNL     1     107.965 124.423 149.612  0.00  0.00    +0.000 OA
ATOM      5  C   UNL     1     106.944 125.032 147.376  0.00  0.00    +0.000 A 
ATOM      6  C   UNL     1     105.354 124.713 147.074  0.00  0.00    +0.000 A 
ATOM      7  C   UNL     1     106.479 124.673 147.955  0.00  0.00    +0.000 A 
ATOM      8  C   UNL     1     105.820 125.072 146.495  0.00  0.00    +0.000 A 
ATOM      9  C   UNL     1     106.616 125.232 146.646  0.00  0.00    +0.000 A 
ATOM     10  C   UNL     1     106.811 124.460 148.719  0.00  0.00    +0.000 A 
ATOM     11  C   UNL     1     107.774 125.204 147.522  0.00  0.00    +0.000 A 
ATOM     12  C   UNL     1     107.638 124.624 148.882  0.00  0.00    +0.000 A 
ATOM     13  C   UNL     1     108.123 124.998 148.279  0.00  0.00    +0.000 A 
ENDROOT
BRANCH   6  16
ATOM     14  O   UNL     1     103.330 122.970 146.057  0.00  0.00    +0.000 OA
ATOM     15  O   UNL     1     102.174 124.073 146.468  0.00  0.00    +0.000 OA
ATOM     16  C   UNL     1     104.559 124.553 146.923  0.00  0.00    +0.000 A 
ATOM     17  C   UNL     1     104.342 123.842 146.565  0.00  0.00    +0.000 A 
ATOM     18  C   UNL     1     103.981 125.104 147.128  0.00  0.00    +0.000 A 
ATOM     19  C   UNL     1     103.547 123.682 146.414  0.00  0.00    +0.000 A 
ATOM     20  C   UNL     1     103.186 124.944 146.977  0.00  0.00    +0.000 A 
ATOM     21  C   UNL     1     102.969 124.233 146.620  0.00  0.00    +0.000 A 
ENDBRANCH   6  16
BRANCH   8  22
ATOM     22  O   UNL     1     105.491 125.272 145.766  0.00  0.00    +0.000 OA
ATOM     23  C   UNL     1     105.963 125.605 145.177  0.00  0.00    +0.000 C 
ENDBRANCH   8  22
TORSDOF 2
ENDMDL
MODEL 2
REMARK VINA RESULT:      -8.5      1.081      4.150
REMARK  Name = 44258702
REMARK  2 active torsions:
REMARK  status: ('A' for Active; 'I' for Inactive)
REMARK    1  A    between atoms: O_2  and  C_11
REMARK    2  A    between atoms: C_9  and  C_12
REMARK                            x       y       z     vdW  Elec       q    Type
REMARK                         _______ _______ _______ _____ _____    ______ ____
ROOT
ATOM      1  O   UNL     1     105.162 124.289 147.201  0.00  0.00    +0.000 OA
ATOM      2  O   UNL     1     104.603 123.290 145.977  0.00  0.00    +0.000 OA
ATOM      3  O   UNL     1     103.602 125.754 148.444  0.00  0.00    +0.000 OA
ATOM      4  O   UNL     1     102.959 123.281 145.585  0.00  0.00    +0.000 OA
ATOM      5  C   UNL     1     103.839 124.777 147.428  0.00  0.00    +0.000 A 
ATOM      6  C   UNL     1     105.446 124.778 147.802  0.00  0.00    +0.000 A 
ATOM      7  C   UNL     1     104.359 124.289 147.014  0.00  0.00    +0.000 A 
ATOM      8  C   UNL     1     104.926 125.266 148.216  0.00  0.00    +0.000 A 
ATOM      9  C   UNL     1     104.122 125.266 148.030  0.00  0.00    +0.000 A 
ATOM     10  C   UNL     1     104.075 123.775 146.386  0.00  0.00    +0.000 A 
ATOM     11  C   UNL     1     102.999 124.786 147.243  0.00  0.00    +0.000 A 
ATOM     12  C   UNL     1     103.240 123.771 146.187  0.00  0.00    +0.000 A 
ATOM     13  C   UNL     1     102.698 124.279 146.618  0.00  0.00    +0.000 A 
ENDROOT
BRANCH   6  16
ATOM     14  O   UNL     1     108.116 125.630 147.244  0.00  0.00    +0.000 OA
ATOM     15  O   UNL     1     108.661 124.780 148.549  0.00  0.00    +0.000 OA
ATOM     16  C   UNL     1     106.249 124.778 147.989  0.00  0.00    +0.000 A 
ATOM     17  C   UNL     1     106.780 125.204 147.523  0.00  0.00    +0.000 A 
ATOM     18  C   UNL     1     106.522 124.353 148.641  0.00  0.00    +0.000 A 
ATOM     19  C   UNL     1     107.585 125.205 147.710  0.00  0.00    +0.000 A 
ATOM     20  C   UNL     1     107.325 124.353 148.828  0.00  0.00    +0.000 A 
ATOM     21  C   UNL     1     107.856 124.779 148.362  0.00  0.00    +0.000 A 
ENDBRANCH   6  16
BRANCH   8  22
ATOM     22  O   UNL     1     105.209 125.755 148.817  0.00  0.00    +0.000 OA
ATOM     23  C   UNL     1     104.724 126.341 149.136  0.00  0.00    +0.000 C 
ENDBRANCH   8  22
TORSDOF 2
ENDMDL
MODEL 3
REMARK VINA RESULT:      -8.3      8.140     10.269
REMARK  Name = 44258702
REMARK  2 active torsions:
REMARK  status: ('A' for Active; 'I' for Inactive)
REMARK    1  A    between atoms: O_2  and  C_11
REMARK    2  A    between atoms: C_9  and  C_12
REMARK                            x       y       z     vdW  Elec       q    Type
REMARK                         _______ _______ _______ _____ _____    ______ ____
ROOT
ATOM      1  O   UNL     1     104.251 123.541 137.413  0.00  0.00    +0.000 OA
ATOM      2  O   UNL     1     104.809 123.339 135.845  0.00  0.00    +0.000 OA
ATOM      3  O   UNL     1     101.849 123.264 137.943  0.00  0.00    +0.000 OA
ATOM      4  O   UNL     1     103.723 122.941 134.612  0.00  0.00    +0.000 OA
ATOM      5  C   UNL     1     102.917 123.255 136.992  0.00  0.00    +0.000 A 
ATOM      6  C   UNL     1     103.986 123.643 138.187  0.00  0.00    +0.000 A 
ATOM      7  C   UNL     1     103.717 123.348 136.815  0.00  0.00    +0.000 A 
ATOM      8  C   UNL     1     103.185 123.551 138.364  0.00  0.00    +0.000 A 
ATOM      9  C   UNL     1     102.650 123.356 137.766  0.00  0.00    +0.000 A 
ATOM     10  C   UNL     1     104.006 123.244 136.012  0.00  0.00    +0.000 A 
ATOM     11  C   UNL     1     102.350 123.053 136.378  0.00  0.00    +0.000 A 
ATOM     12  C   UNL     1     103.454 123.042 135.386  0.00  0.00    +0.000 A 
ATOM     13  C   UNL     1     102.621 122.946 135.570  0.00  0.00    +0.000 A 
ENDROOT
BRANCH   6  16
ATOM     14  O   UNL     1     105.865 122.837 140.184  0.00  0.00    +0.000 OA
ATOM     15  O   UNL     1     106.124 124.418 140.579  0.00  0.00    +0.000 OA
ATOM     16  C   UNL     1     104.520 123.837 138.785  0.00  0.00    +0.000 A 
ATOM     17  C   UNL     1     104.925 123.240 139.185  0.00  0.00    +0.000 A 
ATOM     18  C   UNL     1     104.650 124.627 138.983  0.00  0.00    +0.000 A 
ATOM     19  C   UNL     1     105.460 123.434 139.784  0.00  0.00    +0.000 A 
ATOM     20  C   UNL     1     105.184 124.821 139.580  0.00  0.00    +0.000 A 
ATOM     21  C   UNL     1     105.589 124.224 139.981  0.00  0.00    +0.000 A 
ENDBRANCH   6  16
BRANCH   8  22
ATOM     22  O   UNL     1     102.919 123.652 139.138  0.00  0.00    +0.000 OA
ATOM     23  C   UNL     1     102.228 123.277 139.390  0.00  0.00    +0.000 C 
ENDBRANCH   8  22
TORSDOF 2
ENDMDL
MODEL 4
REMARK VINA RESULT:      -8.2     12.541     13.610
REMARK  Name = 44258702
REMARK  2 active torsions:
REMARK  status: ('A' for Active; 'I' for Inactive)
REMARK    1  A    between atoms: O_2  and  C_11
REMARK    2  A    between atoms: C_9  and  C_12
REMARK                            x       y       z     vdW  Elec       q    Type
REMARK                         _______ _______ _______ _____ _____    ______ ____
ROOT
ATOM      1  O   UNL     1     111.939 125.887 136.074  0.00  0.00    +0.000 OA
ATOM      2  O   UNL     1     110.714 124.903 135.494  0.00  0.00    +0.000 OA
ATOM      3  O   UNL     1     111.904 128.326 135.653  0.00  0.00    +0.000 OA
ATOM      4  O   UNL     1     109.440 125.578 134.612  0.00  0.00    +0.000 OA
ATOM      5  C   UNL     1     111.309 127.035 135.505  0.00  0.00    +0.000 A 
ATOM      6  C   UNL     1     112.547 126.364 136.364  0.00  0.00    +0.000 A 
ATOM      7  C   UNL     1     111.320 126.222 135.645  0.00  0.00    +0.000 A 
ATOM      8  C   UNL     1     112.535 127.177 136.224  0.00  0.00    +0.000 A 
ATOM      9  C   UNL     1     111.916 127.513 135.794  0.00  0.00    +0.000 A 
ATOM     10  C   UNL     1     110.693 125.714 135.349  0.00  0.00    +0.000 A 
ATOM     11  C   UNL     1     110.669 127.396 135.058  0.00  0.00    +0.000 A 
ATOM     12  C   UNL     1     110.046 126.058 134.901  0.00  0.00    +0.000 A 
ATOM     13  C   UNL     1     110.034 126.904 134.754  0.00  0.00    +0.000 A 
ENDROOT
BRANCH   6  16
ATOM     14  O   UNL     1     115.090 125.061 136.434  0.00  0.00    +0.000 OA
ATOM     15  O   UNL     1     115.025 125.023 138.083  0.00  0.00    +0.000 OA
ATOM     16  C   UNL     1     113.166 126.029 136.794  0.00  0.00    +0.000 A 
ATOM     17  C   UNL     1     113.818 125.713 136.399  0.00  0.00    +0.000 A 
ATOM     18  C   UNL     1     113.134 126.010 137.618  0.00  0.00    +0.000 A 
ATOM     19  C   UNL     1     114.438 125.377 136.829  0.00  0.00    +0.000 A 
ATOM     20  C   UNL     1     113.753 125.675 138.047  0.00  0.00    +0.000 A 
ATOM     21  C   UNL     1     114.405 125.359 137.653  0.00  0.00    +0.000 A 
ENDBRANCH   6  16
BRANCH   8  22
ATOM     22  O   UNL     1     113.142 127.655 136.513  0.00  0.00    +0.000 OA
ATOM     23  C   UNL     1     113.209 128.437 136.258  0.00  0.00    +0.000 C 
ENDBRANCH   8  22
TORSDOF 2
ENDMDL
MODEL 5
REMARK VINA RESULT:      -8.1     11.963     13.290
REMARK  Name = 44258702
REMARK  2 active torsions:
REMARK  status: ('A' for Active; 'I' for Inactive)
REMARK    1  A    between atoms: O_2  and  C_11
REMARK    2  A    between atoms: C_9  and  C_12
REMARK                            x       y       z     vdW  Elec       q    Type
REMARK                         _______ _______ _______ _____ _____    ______ ____
ROOT
ATOM      1  O   UNL     1     112.088 126.449 136.258  0.00  0.00    +0.000 OA
ATOM      2  O   UNL     1     111.559 127.912 135.634  0.00  0.00    +0.000 OA
ATOM      3  O   UNL     1     110.916 124.342 135.698  0.00  0.00    +0.000 OA
ATOM      4  O   UNL     1     110.213 127.952 134.612  0.00  0.00    +0.000 OA
ATOM      5  C   UNL     1     111.040 125.760 135.573  0.00  0.00    +0.000 A 
ATOM      6  C   UNL     1     112.355 125.733 136.570  0.00  0.00    +0.000 A 
ATOM      7  C   UNL     1     111.431 126.462 135.760  0.00  0.00    +0.000 A 
ATOM      8  C   UNL     1     111.965 125.031 136.383  0.00  0.00    +0.000 A 
ATOM      9  C   UNL     1     111.307 125.044 135.884  0.00  0.00    +0.000 A 
ATOM     10  C   UNL     1     111.162 127.214 135.442  0.00  0.00    +0.000 A 
ATOM     11  C   UNL     1     110.354 125.761 135.055  0.00  0.00    +0.000 A 
ATOM     12  C   UNL     1     110.478 127.235 134.922  0.00  0.00    +0.000 A 
ATOM     13  C   UNL     1     110.072 126.503 134.728  0.00  0.00    +0.000 A 
ENDROOT
BRANCH   6  16
ATOM     14  O   UNL     1     113.506 126.104 139.159  0.00  0.00    +0.000 OA
ATOM     15  O   UNL     1     114.985 125.679 138.563  0.00  0.00    +0.000 OA
ATOM     16  C   UNL     1     113.012 125.720 137.067  0.00  0.00    +0.000 A 
ATOM     17  C   UNL     1     112.930 125.919 137.864  0.00  0.00    +0.000 A 
ATOM     18  C   UNL     1     113.752 125.507 136.770  0.00  0.00    +0.000 A 
ATOM     19  C   UNL     1     113.588 125.905 138.363  0.00  0.00    +0.000 A 
ATOM     20  C   UNL     1     114.409 125.494 137.268  0.00  0.00    +0.000 A 
ATOM     21  C   UNL     1     114.327 125.693 138.064  0.00  0.00    +0.000 A 
ENDBRANCH   6  16
BRANCH   8  22
ATOM     22  O   UNL     1     112.231 124.315 136.694  0.00  0.00    +0.000 OA
ATOM     23  C   UNL     1     111.820 123.618 136.537  0.00  0.00    +0.000 C 
ENDBRANCH   8  22
TORSDOF 2
ENDMDL
MODEL 6
REMARK VINA RESULT:      -8.1      1.101      2.533
REMARK  Name = 44258702
REMARK  2 active torsions:
REMARK  status: ('A' for Active; 'I' for Inactive)
REMARK    1  A    between atoms: O_2  and  C_11
REMARK    2  A    between atoms: C_9  and  C_12
REMARK                            x       y       z     vdW  Elec       q    Type
REMARK                         _______ _______ _______ _____ _____    ______ ____
ROOT
ATOM      1  O   UNL     1     106.782 125.218 146.890  0.00  0.00    +0.000 OA
ATOM      2  O   UNL     1     108.317 125.174 147.561  0.00  0.00    +0.000 OA
ATOM      3  O   UNL     1     104.813 124.482 148.196  0.00  0.00    +0.000 OA
ATOM      4  O   UNL     1     108.526 124.623 149.145  0.00  0.00    +0.000 OA
ATOM      5  C   UNL     1     106.222 124.703 148.098  0.00  0.00    +0.000 A 
ATOM      6  C   UNL     1     106.030 125.243 146.551  0.00  0.00    +0.000 A 
ATOM      7  C   UNL     1     106.878 124.948 147.663  0.00  0.00    +0.000 A 
ATOM      8  C   UNL     1     105.374 124.998 146.986  0.00  0.00    +0.000 A 
ATOM      9  C   UNL     1     105.469 124.728 147.761  0.00  0.00    +0.000 A 
ATOM     10  C   UNL     1     107.667 124.927 148.004  0.00  0.00    +0.000 A 
ATOM     11  C   UNL     1     106.309 124.419 148.905  0.00  0.00    +0.000 A 
ATOM     12  C   UNL     1     107.773 124.647 148.809  0.00  0.00    +0.000 A 
ATOM     13  C   UNL     1     107.089 124.391 149.262  0.00  0.00    +0.000 A 
ENDROOT
BRANCH   6  16
ATOM     14  O   UNL     1     106.031 124.744 143.737  0.00  0.00    +0.000 OA
ATOM     15  O   UNL     1     105.647 126.324 143.456  0.00  0.00    +0.000 OA
ATOM     16  C   UNL     1     105.934 125.513 145.778  0.00  0.00    +0.000 A 
ATOM     17  C   UNL     1     106.031 124.994 145.145  0.00  0.00    +0.000 A 
ATOM     18  C   UNL     1     105.742 126.303 145.637  0.00  0.00    +0.000 A 
ATOM     19  C   UNL     1     105.935 125.264 144.370  0.00  0.00    +0.000 A 
ATOM     20  C   UNL     1     105.646 126.573 144.864  0.00  0.00    +0.000 A 
ATOM     21  C   UNL     1     105.743 126.054 144.231  0.00  0.00    +0.000 A 
ENDBRANCH   6  16
BRANCH   8  22
ATOM     22  O   UNL     1     104.622 125.023 146.649  0.00  0.00    +0.000 OA
ATOM     23  C   UNL     1     103.994 124.628 147.010  0.00  0.00    +0.000 C 
ENDBRANCH   8  22
TORSDOF 2
ENDMDL
MODEL 7
REMARK VINA RESULT:      -7.9      2.035      3.951
REMARK  Name = 44258702
REMARK  2 active torsions:
REMARK  status: ('A' for Active; 'I' for Inactive)
REMARK    1  A    between atoms: O_2  and  C_11
REMARK    2  A    between atoms: C_9  and  C_12
REMARK                            x       y       z     vdW  Elec       q    Type
REMARK                         _______ _______ _______ _____ _____    ______ ____
ROOT
ATOM      1  O   UNL     1     106.557 125.106 146.019  0.00  0.00    +0.000 OA
ATOM      2  O   UNL     1     106.239 124.100 144.717  0.00  0.00    +0.000 OA
ATOM      3  O   UNL     1     106.159 127.544 145.857  0.00  0.00    +0.000 OA
ATOM      4  O   UNL     1     105.640 124.754 143.278  0.00  0.00    +0.000 OA
ATOM      5  C   UNL     1     106.132 126.243 145.266  0.00  0.00    +0.000 A 
ATOM      6  C   UNL     1     106.717 125.594 146.666  0.00  0.00    +0.000 A 
ATOM      7  C   UNL     1     106.265 125.430 145.320  0.00  0.00    +0.000 A 
ATOM      8  C   UNL     1     106.584 126.406 146.612  0.00  0.00    +0.000 A 
ATOM      9  C   UNL     1     106.292 126.731 145.911  0.00  0.00    +0.000 A 
ATOM     10  C   UNL     1     106.103 124.912 144.654  0.00  0.00    +0.000 A 
ATOM     11  C   UNL     1     105.828 126.593 144.542  0.00  0.00    +0.000 A 
ATOM     12  C   UNL     1     105.799 125.244 143.922  0.00  0.00    +0.000 A 
ATOM     13  C   UNL     1     105.660 126.090 143.866  0.00  0.00    +0.000 A 
ENDROOT
BRANCH   6  16
ATOM     14  O   UNL     1     106.261 124.300 149.173  0.00  0.00    +0.000 OA
ATOM     15  O   UNL     1     107.885 124.296 149.466  0.00  0.00    +0.000 OA
ATOM     16  C   UNL     1     107.009 125.270 147.365  0.00  0.00    +0.000 A 
ATOM     17  C   UNL     1     106.489 124.947 147.919  0.00  0.00    +0.000 A 
ATOM     18  C   UNL     1     107.820 125.268 147.513  0.00  0.00    +0.000 A 
ATOM     19  C   UNL     1     106.781 124.623 148.619  0.00  0.00    +0.000 A 
ATOM     20  C   UNL     1     108.112 124.944 148.212  0.00  0.00    +0.000 A 
ATOM     21  C   UNL     1     107.592 124.621 148.766  0.00  0.00    +0.000 A 
ENDBRANCH   6  16
BRANCH   8  22
ATOM     22  O   UNL     1     106.743 126.895 147.257  0.00  0.00    +0.000 OA
ATOM     23  C   UNL     1     106.416 127.651 147.293  0.00  0.00    +0.000 C 
ENDBRANCH   8  22
TORSDOF 2
ENDMDL
MODEL 8
REMARK VINA RESULT:      -7.9     11.302     12.685
REMARK  Name = 44258702
REMARK  2 active torsions:
REMARK  status: ('A' for Active; 'I' for Inactive)
REMARK    1  A    between atoms: O_2  and  C_11
REMARK    2  A    between atoms: C_9  and  C_12
REMARK                            x       y       z     vdW  Elec       q    Type
REMARK                         _______ _______ _______ _____ _____    ______ ____
ROOT
ATOM      1  O   UNL     1     110.075 126.808 136.258  0.00  0.00    +0.000 OA
ATOM      2  O   UNL     1     108.445 127.193 136.208  0.00  0.00    +0.000 OA
ATOM      3  O   UNL     1     111.788 128.492 135.661  0.00  0.00    +0.000 OA
ATOM      4  O   UNL     1     107.962 128.745 135.745  0.00  0.00    +0.000 OA
ATOM      5  C   UNL     1     110.417 128.128 135.833  0.00  0.00    +0.000 A 
ATOM      6  C   UNL     1     110.876 126.610 136.286  0.00  0.00    +0.000 A 
ATOM      7  C   UNL     1     109.846 127.567 136.032  0.00  0.00    +0.000 A 
ATOM      8  C   UNL     1     111.447 127.171 136.087  0.00  0.00    +0.000 A 
ATOM      9  C   UNL     1     111.217 127.931 135.860  0.00  0.00    +0.000 A 
ATOM     10  C   UNL     1     109.009 127.761 136.007  0.00  0.00    +0.000 A 
ATOM     11  C   UNL     1     110.190 128.923 135.595  0.00  0.00    +0.000 A 
ATOM     12  C   UNL     1     108.763 128.550 135.772  0.00  0.00    +0.000 A 
ATOM     13  C   UNL     1     109.358 129.134 135.565  0.00  0.00    +0.000 A 
ENDROOT
BRANCH   6  16
ATOM     14  O   UNL     1     111.461 124.711 138.340  0.00  0.00    +0.000 OA
ATOM     15  O   UNL     1     111.795 123.573 137.193  0.00  0.00    +0.000 OA
ATOM     16  C   UNL     1     111.106 125.851 136.513  0.00  0.00    +0.000 A 
ATOM     17  C   UNL     1     111.168 125.661 137.313  0.00  0.00    +0.000 A 
ATOM     18  C   UNL     1     111.273 125.281 135.939  0.00  0.00    +0.000 A 
ATOM     19  C   UNL     1     111.398 124.901 137.540  0.00  0.00    +0.000 A 
ATOM     20  C   UNL     1     111.503 124.523 136.166  0.00  0.00    +0.000 A 
ATOM     21  C   UNL     1     111.565 124.332 136.966  0.00  0.00    +0.000 A 
ENDBRANCH   6  16
BRANCH   8  22
ATOM     22  O   UNL     1     112.247 126.974 136.115  0.00  0.00    +0.000 OA
ATOM     23  C   UNL     1     112.818 127.568 136.150  0.00  0.00    +0.000 C 
ENDBRANCH   8  22
TORSDOF 2
ENDMDL
MODEL 9
REMARK VINA RESULT:      -7.8     11.235     13.160
REMARK  Name = 44258702
REMARK  2 active torsions:
REMARK  status: ('A' for Active; 'I' for Inactive)
REMARK    1  A    between atoms: O_2  and  C_11
REMARK    2  A    between atoms: C_9  and  C_12
REMARK                            x       y       z     vdW  Elec       q    Type
REMARK                         _______ _______ _______ _____ _____    ______ ____
ROOT
ATOM      1  O   UNL     1     112.084 126.772 136.138  0.00  0.00    +0.000 OA
ATOM      2  O   UNL     1     113.216 127.982 136.389  0.00  0.00    +0.000 OA
ATOM      3  O   UNL     1     110.169 127.135 134.612  0.00  0.00    +0.000 OA
ATOM      4  O   UNL     1     113.053 129.464 135.595  0.00  0.00    +0.000 OA
ATOM      5  C   UNL     1     111.360 127.615 135.239  0.00  0.00    +0.000 A 
ATOM      6  C   UNL     1     111.531 126.171 136.021  0.00  0.00    +0.000 A 
ATOM      7  C   UNL     1     111.999 127.494 135.748  0.00  0.00    +0.000 A 
ATOM      8  C   UNL     1     110.893 126.292 135.512  0.00  0.00    +0.000 A 
ATOM      9  C   UNL     1     110.807 127.014 135.121  0.00  0.00    +0.000 A 
ATOM     10  C   UNL     1     112.582 128.112 135.879  0.00  0.00    +0.000 A 
ATOM     11  C   UNL     1     111.261 128.362 134.827  0.00  0.00    +0.000 A 
ATOM     12  C   UNL     1     112.498 128.865 135.475  0.00  0.00    +0.000 A 
ATOM     13  C   UNL     1     111.834 128.991 134.945  0.00  0.00    +0.000 A 
ENDROOT
BRANCH   6  16
ATOM     14  O   UNL     1     111.122 124.547 138.336  0.00  0.00    +0.000 OA
ATOM     15  O   UNL     1     111.870 123.284 137.583  0.00  0.00    +0.000 OA
ATOM     16  C   UNL     1     111.616 125.450 136.411  0.00  0.00    +0.000 A 
ATOM     17  C   UNL     1     111.326 125.360 137.178  0.00  0.00    +0.000 A 
ATOM     18  C   UNL     1     111.990 124.818 136.035  0.00  0.00    +0.000 A 
ATOM     19  C   UNL     1     111.411 124.638 137.569  0.00  0.00    +0.000 A 
ATOM     20  C   UNL     1     112.075 124.097 136.425  0.00  0.00    +0.000 A 
ATOM     21  C   UNL     1     111.786 124.007 137.192  0.00  0.00    +0.000 A 
ENDBRANCH   6  16
BRANCH   8  22
ATOM     22  O   UNL     1     110.339 125.692 135.394  0.00  0.00    +0.000 OA
ATOM     23  C   UNL     1     109.680 125.826 134.916  0.00  0.00    +0.000 C 
ENDBRANCH   8  22
TORSDOF 2
ENDMDL
MODEL 10
REMARK VINA RESULT:      -7.8      1.758      4.226
REMARK  Name = 44258702
REMARK  2 active torsions:
REMARK  status: ('A' for Active; 'I' for Inactive)
REMARK    1  A    between atoms: O_2  and  C_11
REMARK    2  A    between atoms: C_9  and  C_12
REMARK                            x       y       z     vdW  Elec       q    Type
REMARK                         _______ _______ _______ _____ _____    ______ ____
ROOT
ATOM      1  O   UNL     1     103.468 124.475 146.254  0.00  0.00    +0.000 OA
ATOM      2  O   UNL     1     102.087 123.892 145.505  0.00  0.00    +0.000 OA
ATOM      3  O   UNL     1     103.676 124.441 148.720  0.00  0.00    +0.000 OA
ATOM      4  O   UNL     1     100.822 123.275 146.440  0.00  0.00    +0.000 OA
ATOM      5  C   UNL     1     102.924 124.164 147.537  0.00  0.00    +0.000 A 
ATOM      6  C   UNL     1     104.152 124.765 146.614  0.00  0.00    +0.000 A 
ATOM      7  C   UNL     1     102.854 124.175 146.715  0.00  0.00    +0.000 A 
ATOM      8  C   UNL     1     104.222 124.753 147.436  0.00  0.00    +0.000 A 
ATOM      9  C   UNL     1     103.607 124.453 147.898  0.00  0.00    +0.000 A 
ATOM     10  C   UNL     1     102.147 123.877 146.328  0.00  0.00    +0.000 A 
ATOM     11  C   UNL     1     102.291 123.853 148.029  0.00  0.00    +0.000 A 
ATOM     12  C   UNL     1     101.504 123.563 146.803  0.00  0.00    +0.000 A 
ATOM     13  C   UNL     1     101.577 123.551 147.659  0.00  0.00    +0.000 A 
ENDROOT
BRANCH   6  16
ATOM     14  O   UNL     1     106.487 124.340 145.021  0.00  0.00    +0.000 OA
ATOM     15  O   UNL     1     106.610 125.966 144.767  0.00  0.00    +0.000 OA
ATOM     16  C   UNL     1     104.766 125.065 146.152  0.00  0.00    +0.000 A 
ATOM     17  C   UNL     1     105.319 124.552 145.818  0.00  0.00    +0.000 A 
ATOM     18  C   UNL     1     104.828 125.878 146.025  0.00  0.00    +0.000 A 
ATOM     19  C   UNL     1     105.934 124.853 145.356  0.00  0.00    +0.000 A 
ATOM     20  C   UNL     1     105.442 126.178 145.564  0.00  0.00    +0.000 A 
ATOM     21  C   UNL     1     105.995 125.666 145.229  0.00  0.00    +0.000 A 
ENDBRANCH   6  16
BRANCH   8  22
ATOM     22  O   UNL     1     104.905 125.042 147.796  0.00  0.00    +0.000 OA
ATOM     23  C   UNL     1     105.004 124.968 148.612  0.00  0.00    +0.000 C 
ENDBRANCH   8  22
TORSDOF 2
ENDMDL
