MODEL 1
REMARK VINA RESULT:      -8.1      0.000      0.000
REMARK  Name = 9950661
REMARK  5 active torsions:
REMARK  status: ('A' for Active; 'I' for Inactive)
REMARK    1  A    between atoms: O_2  and  C_11
REMARK    2  A    between atoms: O_3  and  C_16
REMARK    3  A    between atoms: O_6  and  C_20
REMARK    4  A    between atoms: O_7  and  C_21
REMARK    5  A    between atoms: C_10  and  C_12
REMARK                            x       y       z     vdW  Elec       q    Type
REMARK                         _______ _______ _______ _____ _____    ______ ____
ROOT
ATOM      1  O   UNL     1     104.849 124.375 147.479  0.00  0.00    +0.000 OA
ATOM      2  O   UNL     1     107.236 125.486 146.277  0.00  0.00    +0.000 OA
ATOM      3  O   UNL     1     106.051 125.335 145.468  0.00  0.00    +0.000 OA
ATOM      4  C   UNL     1     106.058 124.937 146.873  0.00  0.00    +0.000 A 
ATOM      5  C   UNL     1     105.669 124.624 147.530  0.00  0.00    +0.000 A 
ATOM      6  C   UNL     1     104.428 124.452 146.734  0.00  0.00    +0.000 A 
ATOM      7  C   UNL     1     106.069 124.549 148.248  0.00  0.00    +0.000 A 
ATOM      8  C   UNL     1     105.654 125.021 146.120  0.00  0.00    +0.000 A 
ATOM      9  C   UNL     1     106.847 125.173 146.934  0.00  0.00    +0.000 A 
ATOM     10  C   UNL     1     104.833 124.777 146.050  0.00  0.00    +0.000 A 
ATOM     11  C   UNL     1     106.856 124.784 148.309  0.00  0.00    +0.000 A 
ATOM     12  C   UNL     1     107.245 125.097 147.652  0.00  0.00    +0.000 A 
ENDROOT
BRANCH   6  13
ATOM     13  C   UNL     1     103.639 124.215 146.675  0.00  0.00    +0.000 A 
ATOM     14  C   UNL     1     103.047 124.660 147.038  0.00  0.00    +0.000 A 
ATOM     15  C   UNL     1     103.444 123.533 146.254  0.00  0.00    +0.000 A 
ATOM     16  C   UNL     1     102.260 124.423 146.980  0.00  0.00    +0.000 A 
ATOM     17  C   UNL     1     102.063 123.741 146.559  0.00  0.00    +0.000 A 
ATOM     18  C   UNL     1     102.655 123.297 146.196  0.00  0.00    +0.000 A 
BRANCH  16  19
ATOM     19  O   UNL     1     101.667 124.868 147.343  0.00  0.00    +0.000 OA
ATOM     20  C   UNL     1     101.842 125.323 148.009  0.00  0.00    +0.000 C 
ENDBRANCH  16  19
BRANCH  17  21
ATOM     21  O   UNL     1     101.275 123.505 146.501  0.00  0.00    +0.000 OA
ATOM     22  C   UNL     1     101.073 122.856 146.033  0.00  0.00    +0.000 C 
ENDBRANCH  17  21
ENDBRANCH   6  13
BRANCH   7  23
ATOM     23  O   UNL     1     105.679 124.236 148.905  0.00  0.00    +0.000 OA
ATOM     24  C   UNL     1     105.494 124.722 149.545  0.00  0.00    +0.000 C 
ENDBRANCH   7  23
BRANCH  11  25
ATOM     25  O   UNL     1     107.256 124.709 149.027  0.00  0.00    +0.000 OA
ATOM     26  C   UNL     1     108.071 124.587 149.035  0.00  0.00    +0.000 C 
ENDBRANCH  11  25
TORSDOF 5
ENDMDL
MODEL 2
REMARK VINA RESULT:      -7.7      1.004      4.761
REMARK  Name = 9950661
REMARK  5 active torsions:
REMARK  status: ('A' for Active; 'I' for Inactive)
REMARK    1  A    between atoms: O_2  and  C_11
REMARK    2  A    between atoms: O_3  and  C_16
REMARK    3  A    between atoms: O_6  and  C_20
REMARK    4  A    between atoms: O_7  and  C_21
REMARK    5  A    between atoms: C_10  and  C_12
REMARK                            x       y       z     vdW  Elec       q    Type
REMARK                         _______ _______ _______ _____ _____    ______ ____
ROOT
ATOM      1  O   UNL     1     104.279 124.375 146.841  0.00  0.00    +0.000 OA
ATOM      2  O   UNL     1     101.687 124.659 148.096  0.00  0.00    +0.000 OA
ATOM      3  O   UNL     1     102.846 125.215 148.752  0.00  0.00    +0.000 OA
ATOM      4  C   UNL     1     102.966 124.517 147.475  0.00  0.00    +0.000 A 
ATOM      5  C   UNL     1     103.431 124.242 146.851  0.00  0.00    +0.000 A 
ATOM      6  C   UNL     1     104.650 124.799 147.490  0.00  0.00    +0.000 A 
ATOM      7  C   UNL     1     103.080 123.834 146.225  0.00  0.00    +0.000 A 
ATOM      8  C   UNL     1     103.318 124.944 148.132  0.00  0.00    +0.000 A 
ATOM      9  C   UNL     1     102.151 124.384 147.473  0.00  0.00    +0.000 A 
ATOM     10  C   UNL     1     104.166 125.086 148.140  0.00  0.00    +0.000 A 
ATOM     11  C   UNL     1     102.267 123.701 146.223  0.00  0.00    +0.000 A 
ATOM     12  C   UNL     1     101.802 123.976 146.847  0.00  0.00    +0.000 A 
ENDROOT
BRANCH   6  13
ATOM     13  C   UNL     1     105.464 124.931 147.490  0.00  0.00    +0.000 A 
ATOM     14  C   UNL     1     105.807 125.392 146.898  0.00  0.00    +0.000 A 
ATOM     15  C   UNL     1     105.936 124.602 148.082  0.00  0.00    +0.000 A 
ATOM     16  C   UNL     1     106.621 125.524 146.897  0.00  0.00    +0.000 A 
ATOM     17  C   UNL     1     107.093 125.195 147.488  0.00  0.00    +0.000 A 
ATOM     18  C   UNL     1     106.750 124.735 148.081  0.00  0.00    +0.000 A 
BRANCH  16  19
ATOM     19  O   UNL     1     106.963 125.984 146.304  0.00  0.00    +0.000 OA
ATOM     20  C   UNL     1     106.486 126.385 145.763  0.00  0.00    +0.000 C 
ENDBRANCH  16  19
BRANCH  17  21
ATOM     21  O   UNL     1     107.907 125.327 147.487  0.00  0.00    +0.000 OA
ATOM     22  C   UNL     1     108.380 124.989 148.073  0.00  0.00    +0.000 C 
ENDBRANCH  17  21
ENDBRANCH   6  13
BRANCH   7  23
ATOM     23  O   UNL     1     103.545 123.559 145.601  0.00  0.00    +0.000 OA
ATOM     24  C   UNL     1     103.674 122.750 145.508  0.00  0.00    +0.000 C 
ENDBRANCH   7  23
BRANCH  11  25
ATOM     25  O   UNL     1     101.917 123.293 145.597  0.00  0.00    +0.000 OA
ATOM     26  C   UNL     1     101.095 123.252 145.539  0.00  0.00    +0.000 C 
ENDBRANCH  11  25
TORSDOF 5
ENDMDL
MODEL 3
REMARK VINA RESULT:      -7.7      8.892     10.216
REMARK  Name = 9950661
REMARK  5 active torsions:
REMARK  status: ('A' for Active; 'I' for Inactive)
REMARK    1  A    between atoms: O_2  and  C_11
REMARK    2  A    between atoms: O_3  and  C_16
REMARK    3  A    between atoms: O_6  and  C_20
REMARK    4  A    between atoms: O_7  and  C_21
REMARK    5  A    between atoms: C_10  and  C_12
REMARK                            x       y       z     vdW  Elec       q    Type
REMARK                         _______ _______ _______ _____ _____    ______ ____
ROOT
ATOM      1  O   UNL     1     102.971 131.975 141.246  0.00  0.00    +0.000 OA
ATOM      2  O   UNL     1     100.785 133.652 142.136  0.00  0.00    +0.000 OA
ATOM      3  O   UNL     1     100.711 132.228 142.360  0.00  0.00    +0.000 OA
ATOM      4  C   UNL     1     101.866 132.826 141.695  0.00  0.00    +0.000 A 
ATOM      5  C   UNL     1     102.602 132.746 141.332  0.00  0.00    +0.000 A 
ATOM      6  C   UNL     1     102.567 131.277 141.543  0.00  0.00    +0.000 A 
ATOM      7  C   UNL     1     102.994 133.414 141.045  0.00  0.00    +0.000 A 
ATOM      8  C   UNL     1     101.447 132.140 141.998  0.00  0.00    +0.000 A 
ATOM      9  C   UNL     1     101.521 133.572 141.772  0.00  0.00    +0.000 A 
ATOM     10  C   UNL     1     101.800 131.359 141.921  0.00  0.00    +0.000 A 
ATOM     11  C   UNL     1     102.651 134.159 141.121  0.00  0.00    +0.000 A 
ATOM     12  C   UNL     1     101.914 134.238 141.485  0.00  0.00    +0.000 A 
ENDROOT
BRANCH   6  13
ATOM     13  C   UNL     1     102.913 130.532 141.465  0.00  0.00    +0.000 A 
ATOM     14  C   UNL     1     102.754 130.071 140.800  0.00  0.00    +0.000 A 
ATOM     15  C   UNL     1     103.419 130.249 142.052  0.00  0.00    +0.000 A 
ATOM     16  C   UNL     1     103.099 129.327 140.721  0.00  0.00    +0.000 A 
ATOM     17  C   UNL     1     103.605 129.042 141.308  0.00  0.00    +0.000 A 
ATOM     18  C   UNL     1     103.765 129.503 141.973  0.00  0.00    +0.000 A 
BRANCH  16  19
ATOM     19  O   UNL     1     102.940 128.865 140.056  0.00  0.00    +0.000 OA
ATOM     20  C   UNL     1     102.341 129.087 139.533  0.00  0.00    +0.000 C 
ENDBRANCH  16  19
BRANCH  17  21
ATOM     21  O   UNL     1     103.951 128.298 141.230  0.00  0.00    +0.000 OA
ATOM     22  C   UNL     1     104.573 128.078 141.725  0.00  0.00    +0.000 C 
ENDBRANCH  17  21
ENDBRANCH   6  13
BRANCH   7  23
ATOM     23  O   UNL     1     103.730 133.334 140.681  0.00  0.00    +0.000 OA
ATOM     24  C   UNL     1     103.804 133.451 139.868  0.00  0.00    +0.000 C 
ENDBRANCH   7  23
BRANCH  11  25
ATOM     25  O   UNL     1     103.042 134.826 140.834  0.00  0.00    +0.000 OA
ATOM     26  C   UNL     1     102.798 135.579 141.064  0.00  0.00    +0.000 C 
ENDBRANCH  11  25
TORSDOF 5
ENDMDL
MODEL 4
REMARK VINA RESULT:      -7.5     12.915     14.218
REMARK  Name = 9950661
REMARK  5 active torsions:
REMARK  status: ('A' for Active; 'I' for Inactive)
REMARK    1  A    between atoms: O_2  and  C_11
REMARK    2  A    between atoms: O_3  and  C_16
REMARK    3  A    between atoms: O_6  and  C_20
REMARK    4  A    between atoms: O_7  and  C_21
REMARK    5  A    between atoms: C_10  and  C_12
REMARK                            x       y       z     vdW  Elec       q    Type
REMARK                         _______ _______ _______ _____ _____    ______ ____
ROOT
ATOM      1  O   UNL     1     112.877 126.681 136.510  0.00  0.00    +0.000 OA
ATOM      2  O   UNL     1     110.510 125.311 135.562  0.00  0.00    +0.000 OA
ATOM      3  O   UNL     1     110.625 126.735 135.353  0.00  0.00    +0.000 OA
ATOM      4  C   UNL     1     111.680 125.985 136.031  0.00  0.00    +0.000 A 
ATOM      5  C   UNL     1     112.413 125.965 136.409  0.00  0.00    +0.000 A 
ATOM      6  C   UNL     1     112.573 127.428 136.215  0.00  0.00    +0.000 A 
ATOM      7  C   UNL     1     112.709 125.250 136.695  0.00  0.00    +0.000 A 
ATOM      8  C   UNL     1     111.360 126.723 135.729  0.00  0.00    +0.000 A 
ATOM      9  C   UNL     1     111.243 125.291 135.940  0.00  0.00    +0.000 A 
ATOM     10  C   UNL     1     111.810 127.450 135.822  0.00  0.00    +0.000 A 
ATOM     11  C   UNL     1     112.274 124.556 136.603  0.00  0.00    +0.000 A 
ATOM     12  C   UNL     1     111.540 124.577 136.226  0.00  0.00    +0.000 A 
ENDROOT
BRANCH   6  13
ATOM     13  C   UNL     1     113.011 128.121 136.308  0.00  0.00    +0.000 A 
ATOM     14  C   UNL     1     112.968 128.545 137.014  0.00  0.00    +0.000 A 
ATOM     15  C   UNL     1     113.494 128.390 135.694  0.00  0.00    +0.000 A 
ATOM     16  C   UNL     1     113.406 129.237 137.107  0.00  0.00    +0.000 A 
ATOM     17  C   UNL     1     113.888 129.507 136.494  0.00  0.00    +0.000 A 
ATOM     18  C   UNL     1     113.932 129.083 135.788  0.00  0.00    +0.000 A 
BRANCH  16  19
ATOM     19  O   UNL     1     113.362 129.661 137.814  0.00  0.00    +0.000 OA
ATOM     20  C   UNL     1     113.018 129.318 138.481  0.00  0.00    +0.000 C 
ENDBRANCH  16  19
BRANCH  17  21
ATOM     21  O   UNL     1     114.326 130.199 136.588  0.00  0.00    +0.000 OA
ATOM     22  C   UNL     1     114.803 130.471 135.972  0.00  0.00    +0.000 C 
ENDBRANCH  17  21
ENDBRANCH   6  13
BRANCH   7  23
ATOM     23  O   UNL     1     113.443 125.229 137.072  0.00  0.00    +0.000 OA
ATOM     24  C   UNL     1     114.092 124.889 136.695  0.00  0.00    +0.000 C 
ENDBRANCH   7  23
BRANCH  11  25
ATOM     25  O   UNL     1     112.570 123.841 136.889  0.00  0.00    +0.000 OA
ATOM     26  C   UNL     1     112.055 123.221 137.064  0.00  0.00    +0.000 C 
ENDBRANCH  11  25
TORSDOF 5
ENDMDL
MODEL 5
REMARK VINA RESULT:      -7.5     11.046     13.037
REMARK  Name = 9950661
REMARK  5 active torsions:
REMARK  status: ('A' for Active; 'I' for Inactive)
REMARK    1  A    between atoms: O_2  and  C_11
REMARK    2  A    between atoms: O_3  and  C_16
REMARK    3  A    between atoms: O_6  and  C_20
REMARK    4  A    between atoms: O_7  and  C_21
REMARK    5  A    between atoms: C_10  and  C_12
REMARK                            x       y       z     vdW  Elec       q    Type
REMARK                         _______ _______ _______ _____ _____    ______ ____
ROOT
ATOM      1  O   UNL     1     110.516 127.519 136.300  0.00  0.00    +0.000 OA
ATOM      2  O   UNL     1     107.990 128.787 135.674  0.00  0.00    +0.000 OA
ATOM      3  O   UNL     1     108.009 127.376 135.981  0.00  0.00    +0.000 OA
ATOM      4  C   UNL     1     109.239 128.163 135.983  0.00  0.00    +0.000 A 
ATOM      5  C   UNL     1     110.056 128.212 136.086  0.00  0.00    +0.000 A 
ATOM      6  C   UNL     1     110.120 126.763 136.407  0.00  0.00    +0.000 A 
ATOM      7  C   UNL     1     110.441 128.935 135.984  0.00  0.00    +0.000 A 
ATOM      8  C   UNL     1     108.826 127.417 136.086  0.00  0.00    +0.000 A 
ATOM      9  C   UNL     1     108.807 128.836 135.778  0.00  0.00    +0.000 A 
ATOM     10  C   UNL     1     109.269 126.712 136.300  0.00  0.00    +0.000 A 
ATOM     11  C   UNL     1     110.011 129.607 135.779  0.00  0.00    +0.000 A 
ATOM     12  C   UNL     1     109.194 129.558 135.676  0.00  0.00    +0.000 A 
ENDROOT
BRANCH   6  13
ATOM     13  C   UNL     1     110.554 126.092 136.612  0.00  0.00    +0.000 A 
ATOM     14  C   UNL     1     110.703 125.924 137.406  0.00  0.00    +0.000 A 
ATOM     15  C   UNL     1     110.838 125.589 136.024  0.00  0.00    +0.000 A 
ATOM     16  C   UNL     1     111.136 125.254 137.612  0.00  0.00    +0.000 A 
ATOM     17  C   UNL     1     111.421 124.750 137.024  0.00  0.00    +0.000 A 
ATOM     18  C   UNL     1     111.272 124.917 136.230  0.00  0.00    +0.000 A 
BRANCH  16  19
ATOM     19  O   UNL     1     111.286 125.086 138.405  0.00  0.00    +0.000 OA
ATOM     20  C   UNL     1     111.225 125.683 138.973  0.00  0.00    +0.000 C 
ENDBRANCH  16  19
BRANCH  17  21
ATOM     21  O   UNL     1     111.854 124.079 137.229  0.00  0.00    +0.000 OA
ATOM     22  C   UNL     1     112.136 123.575 136.640  0.00  0.00    +0.000 C 
ENDBRANCH  17  21
ENDBRANCH   6  13
BRANCH   7  23
ATOM     23  O   UNL     1     111.258 128.984 136.088  0.00  0.00    +0.000 OA
ATOM     24  C   UNL     1     111.753 129.076 135.434  0.00  0.00    +0.000 C 
ENDBRANCH   7  23
BRANCH  11  25
ATOM     25  O   UNL     1     110.396 130.330 135.677  0.00  0.00    +0.000 OA
ATOM     26  C   UNL     1     109.973 131.035 135.733  0.00  0.00    +0.000 C 
ENDBRANCH  11  25
TORSDOF 5
ENDMDL
MODEL 6
REMARK VINA RESULT:      -7.4      1.377      4.431
REMARK  Name = 9950661
REMARK  5 active torsions:
REMARK  status: ('A' for Active; 'I' for Inactive)
REMARK    1  A    between atoms: O_2  and  C_11
REMARK    2  A    between atoms: O_3  and  C_16
REMARK    3  A    between atoms: O_6  and  C_20
REMARK    4  A    between atoms: O_7  and  C_21
REMARK    5  A    between atoms: C_10  and  C_12
REMARK                            x       y       z     vdW  Elec       q    Type
REMARK                         _______ _______ _______ _____ _____    ______ ____
ROOT
ATOM      1  O   UNL     1     104.549 124.854 146.810  0.00  0.00    +0.000 OA
ATOM      2  O   UNL     1     103.375 122.758 145.196  0.00  0.00    +0.000 OA
ATOM      3  O   UNL     1     104.543 123.448 144.704  0.00  0.00    +0.000 OA
ATOM      4  C   UNL     1     103.953 123.793 145.995  0.00  0.00    +0.000 A 
ATOM      5  C   UNL     1     103.953 124.250 146.682  0.00  0.00    +0.000 A 
ATOM      6  C   UNL     1     105.155 124.985 146.214  0.00  0.00    +0.000 A 
ATOM      7  C   UNL     1     103.374 124.128 147.257  0.00  0.00    +0.000 A 
ATOM      8  C   UNL     1     104.550 123.909 145.388  0.00  0.00    +0.000 A 
ATOM      9  C   UNL     1     103.374 123.215 145.883  0.00  0.00    +0.000 A 
ATOM     10  C   UNL     1     105.155 124.510 145.499  0.00  0.00    +0.000 A 
ATOM     11  C   UNL     1     102.796 123.551 147.146  0.00  0.00    +0.000 A 
ATOM     12  C   UNL     1     102.796 123.094 146.459  0.00  0.00    +0.000 A 
ENDROOT
BRANCH   6  13
ATOM     13  C   UNL     1     105.732 125.564 146.328  0.00  0.00    +0.000 A 
ATOM     14  C   UNL     1     106.431 125.376 146.724  0.00  0.00    +0.000 A 
ATOM     15  C   UNL     1     105.610 126.329 146.046  0.00  0.00    +0.000 A 
ATOM     16  C   UNL     1     107.008 125.954 146.838  0.00  0.00    +0.000 A 
ATOM     17  C   UNL     1     106.887 126.720 146.556  0.00  0.00    +0.000 A 
ATOM     18  C   UNL     1     106.188 126.907 146.160  0.00  0.00    +0.000 A 
BRANCH  16  19
ATOM     19  O   UNL     1     107.707 125.767 147.234  0.00  0.00    +0.000 OA
ATOM     20  C   UNL     1     107.726 125.131 147.761  0.00  0.00    +0.000 C 
ENDBRANCH  16  19
BRANCH  17  21
ATOM     21  O   UNL     1     107.464 127.298 146.670  0.00  0.00    +0.000 OA
ATOM     22  C   UNL     1     107.367 128.048 146.341  0.00  0.00    +0.000 C 
ENDBRANCH  17  21
ENDBRANCH   6  13
BRANCH   7  23
ATOM     23  O   UNL     1     103.374 124.585 147.944  0.00  0.00    +0.000 OA
ATOM     24  C   UNL     1     102.794 125.161 148.057  0.00  0.00    +0.000 C 
ENDBRANCH   7  23
BRANCH  11  25
ATOM     25  O   UNL     1     102.217 123.429 147.722  0.00  0.00    +0.000 OA
ATOM     26  C   UNL     1     101.740 122.758 147.692  0.00  0.00    +0.000 C 
ENDBRANCH  11  25
TORSDOF 5
ENDMDL
MODEL 7
REMARK VINA RESULT:      -7.4     12.623     14.099
REMARK  Name = 9950661
REMARK  5 active torsions:
REMARK  status: ('A' for Active; 'I' for Inactive)
REMARK    1  A    between atoms: O_2  and  C_11
REMARK    2  A    between atoms: O_3  and  C_16
REMARK    3  A    between atoms: O_6  and  C_20
REMARK    4  A    between atoms: O_7  and  C_21
REMARK    5  A    between atoms: C_10  and  C_12
REMARK                            x       y       z     vdW  Elec       q    Type
REMARK                         _______ _______ _______ _____ _____    ______ ____
ROOT
ATOM      1  O   UNL     1     112.552 126.585 136.710  0.00  0.00    +0.000 OA
ATOM      2  O   UNL     1     114.464 124.425 136.477  0.00  0.00    +0.000 OA
ATOM      3  O   UNL     1     114.928 125.786 136.356  0.00  0.00    +0.000 OA
ATOM      4  C   UNL     1     113.518 125.490 136.593  0.00  0.00    +0.000 A 
ATOM      5  C   UNL     1     112.743 125.748 136.708  0.00  0.00    +0.000 A 
ATOM      6  C   UNL     1     113.177 127.163 136.590  0.00  0.00    +0.000 A 
ATOM      7  C   UNL     1     112.139 125.197 136.824  0.00  0.00    +0.000 A 
ATOM      8  C   UNL     1     114.156 126.052 136.471  0.00  0.00    +0.000 A 
ATOM      9  C   UNL     1     113.689 124.682 136.593  0.00  0.00    +0.000 A 
ATOM     10  C   UNL     1     113.984 126.895 136.470  0.00  0.00    +0.000 A 
ATOM     11  C   UNL     1     112.309 124.391 136.824  0.00  0.00    +0.000 A 
ATOM     12  C   UNL     1     113.084 124.133 136.709  0.00  0.00    +0.000 A 
ENDROOT
BRANCH   6  13
ATOM     13  C   UNL     1     113.003 127.969 136.591  0.00  0.00    +0.000 A 
ATOM     14  C   UNL     1     112.738 128.334 135.900  0.00  0.00    +0.000 A 
ATOM     15  C   UNL     1     113.094 128.411 137.282  0.00  0.00    +0.000 A 
ATOM     16  C   UNL     1     112.564 129.140 135.900  0.00  0.00    +0.000 A 
ATOM     17  C   UNL     1     112.655 129.583 136.590  0.00  0.00    +0.000 A 
ATOM     18  C   UNL     1     112.920 129.218 137.281  0.00  0.00    +0.000 A 
BRANCH  16  19
ATOM     19  O   UNL     1     112.299 129.505 135.209  0.00  0.00    +0.000 OA
ATOM     20  C   UNL     1     111.946 129.056 134.613  0.00  0.00    +0.000 C 
ENDBRANCH  16  19
BRANCH  17  21
ATOM     21  O   UNL     1     112.482 130.388 136.590  0.00  0.00    +0.000 OA
ATOM     22  C   UNL     1     112.604 130.837 137.272  0.00  0.00    +0.000 C 
ENDBRANCH  17  21
ENDBRANCH   6  13
BRANCH   7  23
ATOM     23  O   UNL     1     111.363 125.455 136.940  0.00  0.00    +0.000 OA
ATOM     24  C   UNL     1     110.805 125.366 136.339  0.00  0.00    +0.000 C 
ENDBRANCH   7  23
BRANCH  11  25
ATOM     25  O   UNL     1     111.705 123.841 136.940  0.00  0.00    +0.000 OA
ATOM     26  C   UNL     1     111.886 123.073 137.181  0.00  0.00    +0.000 C 
ENDBRANCH  11  25
TORSDOF 5
ENDMDL
MODEL 8
REMARK VINA RESULT:      -7.3     10.483     12.788
REMARK  Name = 9950661
REMARK  5 active torsions:
REMARK  status: ('A' for Active; 'I' for Inactive)
REMARK    1  A    between atoms: O_2  and  C_11
REMARK    2  A    between atoms: O_3  and  C_16
REMARK    3  A    between atoms: O_6  and  C_20
REMARK    4  A    between atoms: O_7  and  C_21
REMARK    5  A    between atoms: C_10  and  C_12
REMARK                            x       y       z     vdW  Elec       q    Type
REMARK                         _______ _______ _______ _____ _____    ______ ____
ROOT
ATOM      1  O   UNL     1     111.945 126.481 137.568  0.00  0.00    +0.000 OA
ATOM      2  O   UNL     1     111.217 124.249 135.874  0.00  0.00    +0.000 OA
ATOM      3  O   UNL     1     111.935 123.992 137.100  0.00  0.00    +0.000 OA
ATOM      4  C   UNL     1     111.575 125.353 136.709  0.00  0.00    +0.000 A 
ATOM      5  C   UNL     1     111.577 126.164 136.859  0.00  0.00    +0.000 A 
ATOM      6  C   UNL     1     112.317 125.945 138.128  0.00  0.00    +0.000 A 
ATOM      7  C   UNL     1     111.222 126.683 136.324  0.00  0.00    +0.000 A 
ATOM      8  C   UNL     1     111.941 124.802 137.257  0.00  0.00    +0.000 A 
ATOM      9  C   UNL     1     111.219 125.060 136.024  0.00  0.00    +0.000 A 
ATOM     10  C   UNL     1     112.315 125.100 137.972  0.00  0.00    +0.000 A 
ATOM     11  C   UNL     1     110.866 126.391 135.641  0.00  0.00    +0.000 A 
ATOM     12  C   UNL     1     110.864 125.579 135.491  0.00  0.00    +0.000 A 
ENDROOT
BRANCH   6  13
ATOM     13  C   UNL     1     112.672 126.240 138.812  0.00  0.00    +0.000 A 
ATOM     14  C   UNL     1     112.212 126.420 139.472  0.00  0.00    +0.000 A 
ATOM     15  C   UNL     1     113.489 126.355 138.835  0.00  0.00    +0.000 A 
ATOM     16  C   UNL     1     112.567 126.714 140.155  0.00  0.00    +0.000 A 
ATOM     17  C   UNL     1     113.384 126.830 140.179  0.00  0.00    +0.000 A 
ATOM     18  C   UNL     1     113.844 126.650 139.519  0.00  0.00    +0.000 A 
BRANCH  16  19
ATOM     19  O   UNL     1     112.106 126.894 140.815  0.00  0.00    +0.000 OA
ATOM     20  C   UNL     1     111.294 126.748 140.805  0.00  0.00    +0.000 C 
ENDBRANCH  16  19
BRANCH  17  21
ATOM     21  O   UNL     1     113.739 127.124 140.862  0.00  0.00    +0.000 OA
ATOM     22  C   UNL     1     114.561 127.179 140.908  0.00  0.00    +0.000 C 
ENDBRANCH  17  21
ENDBRANCH   6  13
BRANCH   7  23
ATOM     23  O   UNL     1     111.224 127.494 136.474  0.00  0.00    +0.000 OA
ATOM     24  C   UNL     1     111.713 127.994 136.036  0.00  0.00    +0.000 C 
ENDBRANCH   7  23
BRANCH  11  25
ATOM     25  O   UNL     1     110.511 126.909 135.106  0.00  0.00    +0.000 OA
ATOM     26  C   UNL     1     109.906 126.644 134.612  0.00  0.00    +0.000 C 
ENDBRANCH  11  25
TORSDOF 5
ENDMDL
MODEL 9
REMARK VINA RESULT:      -7.3     12.110     13.590
REMARK  Name = 9950661
REMARK  5 active torsions:
REMARK  status: ('A' for Active; 'I' for Inactive)
REMARK    1  A    between atoms: O_2  and  C_11
REMARK    2  A    between atoms: O_3  and  C_16
REMARK    3  A    between atoms: O_6  and  C_20
REMARK    4  A    between atoms: O_7  and  C_21
REMARK    5  A    between atoms: C_10  and  C_12
REMARK                            x       y       z     vdW  Elec       q    Type
REMARK                         _______ _______ _______ _____ _____    ______ ____
ROOT
ATOM      1  O   UNL     1     112.265 127.613 137.018  0.00  0.00    +0.000 OA
ATOM      2  O   UNL     1     114.101 129.673 136.144  0.00  0.00    +0.000 OA
ATOM      3  O   UNL     1     114.296 128.320 135.682  0.00  0.00    +0.000 OA
ATOM      4  C   UNL     1     113.193 128.657 136.577  0.00  0.00    +0.000 A 
ATOM      5  C   UNL     1     112.530 128.430 137.013  0.00  0.00    +0.000 A 
ATOM      6  C   UNL     1     112.695 127.025 136.561  0.00  0.00    +0.000 A 
ATOM      7  C   UNL     1     112.114 128.990 137.453  0.00  0.00    +0.000 A 
ATOM      8  C   UNL     1     113.635 128.084 136.115  0.00  0.00    +0.000 A 
ATOM      9  C   UNL     1     113.438 129.446 136.581  0.00  0.00    +0.000 A 
ATOM     10  C   UNL     1     113.384 127.262 136.107  0.00  0.00    +0.000 A 
ATOM     11  C   UNL     1     112.359 129.777 137.457  0.00  0.00    +0.000 A 
ATOM     12  C   UNL     1     113.021 130.005 137.021  0.00  0.00    +0.000 A 
ENDROOT
BRANCH   6  13
ATOM     13  C   UNL     1     112.447 126.238 136.559  0.00  0.00    +0.000 A 
ATOM     14  C   UNL     1     111.793 126.012 136.110  0.00  0.00    +0.000 A 
ATOM     15  C   UNL     1     112.853 125.676 137.007  0.00  0.00    +0.000 A 
ATOM     16  C   UNL     1     111.545 125.226 136.108  0.00  0.00    +0.000 A 
ATOM     17  C   UNL     1     111.951 124.664 136.555  0.00  0.00    +0.000 A 
ATOM     18  C   UNL     1     112.605 124.889 137.004  0.00  0.00    +0.000 A 
BRANCH  16  19
ATOM     19  O   UNL     1     110.891 125.001 135.658  0.00  0.00    +0.000 OA
ATOM     20  C   UNL     1     110.474 125.565 135.223  0.00  0.00    +0.000 C 
ENDBRANCH  16  19
BRANCH  17  21
ATOM     21  O   UNL     1     111.703 123.878 136.553  0.00  0.00    +0.000 OA
ATOM     22  C   UNL     1     112.084 123.324 137.031  0.00  0.00    +0.000 C 
ENDBRANCH  17  21
ENDBRANCH   6  13
BRANCH   7  23
ATOM     23  O   UNL     1     111.452 128.763 137.889  0.00  0.00    +0.000 OA
ATOM     24  C   UNL     1     111.493 128.721 138.712  0.00  0.00    +0.000 C 
ENDBRANCH   7  23
BRANCH  11  25
ATOM     25  O   UNL     1     111.943 130.338 137.896  0.00  0.00    +0.000 OA
ATOM     26  C   UNL     1     111.994 131.137 137.701  0.00  0.00    +0.000 C 
ENDBRANCH  11  25
TORSDOF 5
ENDMDL
MODEL 10
REMARK VINA RESULT:      -7.3     13.289     15.180
REMARK  Name = 9950661
REMARK  5 active torsions:
REMARK  status: ('A' for Active; 'I' for Inactive)
REMARK    1  A    between atoms: O_2  and  C_11
REMARK    2  A    between atoms: O_3  and  C_16
REMARK    3  A    between atoms: O_6  and  C_20
REMARK    4  A    between atoms: O_7  and  C_21
REMARK    5  A    between atoms: C_10  and  C_12
REMARK                            x       y       z     vdW  Elec       q    Type
REMARK                         _______ _______ _______ _____ _____    ______ ____
ROOT
ATOM      1  O   UNL     1     112.553 128.234 135.527  0.00  0.00    +0.000 OA
ATOM      2  O   UNL     1     112.104 125.666 136.786  0.00  0.00    +0.000 OA
ATOM      3  O   UNL     1     113.302 126.404 137.109  0.00  0.00    +0.000 OA
ATOM      4  C   UNL     1     112.324 126.934 136.163  0.00  0.00    +0.000 A 
ATOM      5  C   UNL     1     112.077 127.528 135.647  0.00  0.00    +0.000 A 
ATOM      6  C   UNL     1     113.295 128.321 135.951  0.00  0.00    +0.000 A 
ATOM      7  C   UNL     1     111.365 127.449 135.237  0.00  0.00    +0.000 A 
ATOM      8  C   UNL     1     113.063 127.003 136.595  0.00  0.00    +0.000 A 
ATOM      9  C   UNL     1     111.858 126.260 136.270  0.00  0.00    +0.000 A 
ATOM     10  C   UNL     1     113.552 127.702 136.488  0.00  0.00    +0.000 A 
ATOM     11  C   UNL     1     110.900 126.777 135.344  0.00  0.00    +0.000 A 
ATOM     12  C   UNL     1     111.146 126.183 135.860  0.00  0.00    +0.000 A 
ENDROOT
BRANCH   6  13
ATOM     13  C   UNL     1     113.759 128.995 135.843  0.00  0.00    +0.000 A 
ATOM     14  C   UNL     1     113.649 129.654 136.327  0.00  0.00    +0.000 A 
ATOM     15  C   UNL     1     114.332 129.010 135.250  0.00  0.00    +0.000 A 
ATOM     16  C   UNL     1     114.111 130.327 136.219  0.00  0.00    +0.000 A 
ATOM     17  C   UNL     1     114.685 130.344 135.626  0.00  0.00    +0.000 A 
ATOM     18  C   UNL     1     114.796 129.685 135.142  0.00  0.00    +0.000 A 
BRANCH  16  19
ATOM     19  O   UNL     1     114.001 130.986 136.704  0.00  0.00    +0.000 OA
ATOM     20  C   UNL     1     113.357 131.017 137.218  0.00  0.00    +0.000 C 
ENDBRANCH  16  19
BRANCH  17  21
ATOM     21  O   UNL     1     115.148 131.017 135.518  0.00  0.00    +0.000 OA
ATOM     22  C   UNL     1     115.692 131.048 134.899  0.00  0.00    +0.000 C 
ENDBRANCH  17  21
ENDBRANCH   6  13
BRANCH   7  23
ATOM     23  O   UNL     1     111.119 128.044 134.721  0.00  0.00    +0.000 OA
ATOM     24  C   UNL     1     110.481 128.527 134.922  0.00  0.00    +0.000 C 
ENDBRANCH   7  23
BRANCH  11  25
ATOM     25  O   UNL     1     110.188 126.698 134.934  0.00  0.00    +0.000 OA
ATOM     26  C   UNL     1     109.851 125.953 134.832  0.00  0.00    +0.000 C 
ENDBRANCH  11  25
TORSDOF 5
ENDMDL
