MODEL 1
REMARK VINA RESULT:      -9.8      0.000      0.000
REMARK  Name = 74978161
REMARK  7 active torsions:
REMARK  status: ('A' for Active; 'I' for Inactive)
REMARK    1  A    between atoms: O_1  and  C_18
REMARK    2  A    between atoms: O_1  and  C_21
REMARK    3  A    between atoms: O_6  and  C_26
REMARK    4  A    between atoms: O_6  and  C_30
REMARK    5  A    between atoms: C_22  and  C_28
REMARK    6  A    between atoms: C_27  and  C_29
REMARK    7  A    between atoms: C_31  and  C_34
REMARK                            x       y       z     vdW  Elec       q    Type
REMARK                         _______ _______ _______ _____ _____    ______ ____
ROOT
ATOM      1  O   UNL     1     111.125 128.190 138.802  0.00  0.00    +0.000 OA
ENDROOT
BRANCH   1   6
ATOM      2  O   UNL     1     113.136 126.560 139.349  0.00  0.00    +0.000 OA
ATOM      3  O   UNL     1     111.657 127.614 136.962  0.00  0.00    +0.000 OA
ATOM      4  O   UNL     1     112.674 126.690 135.880  0.00  0.00    +0.000 OA
ATOM      5  O   UNL     1     115.237 124.662 137.241  0.00  0.00    +0.000 OA
ATOM      6  C   UNL     1     111.884 127.551 138.678  0.00  0.00    +0.000 A 
ATOM      7  C   UNL     1     112.377 127.199 139.474  0.00  0.00    +0.000 A 
ATOM      8  C   UNL     1     112.150 127.263 137.758  0.00  0.00    +0.000 A 
ATOM      9  C   UNL     1     112.909 126.624 137.634  0.00  0.00    +0.000 A 
ATOM     10  C   UNL     1     113.402 126.272 138.429  0.00  0.00    +0.000 A 
ATOM     11  C   UNL     1     113.174 126.333 136.669  0.00  0.00    +0.000 A 
ATOM     12  C   UNL     1     114.195 125.606 138.316  0.00  0.00    +0.000 A 
ATOM     13  C   UNL     1     113.964 125.667 136.532  0.00  0.00    +0.000 A 
ATOM     14  C   UNL     1     114.478 125.301 137.361  0.00  0.00    +0.000 A 
BRANCH   7  17
ATOM     15  O   UNL     1     110.132 127.119 142.111  0.00  0.00    +0.000 OA
ATOM     16  O   UNL     1     111.313 128.351 143.153  0.00  0.00    +0.000 OA
ATOM     17  C   UNL     1     112.111 127.487 140.394  0.00  0.00    +0.000 A 
ATOM     18  C   UNL     1     111.255 127.159 140.792  0.00  0.00    +0.000 A 
ATOM     19  C   UNL     1     112.701 128.103 140.915  0.00  0.00    +0.000 A 
ATOM     20  C   UNL     1     110.989 127.447 141.712  0.00  0.00    +0.000 A 
ATOM     21  C   UNL     1     112.435 128.391 141.835  0.00  0.00    +0.000 A 
ATOM     22  C   UNL     1     111.579 128.063 142.233  0.00  0.00    +0.000 A 
ENDBRANCH   7  17
ENDBRANCH   1   6
BRANCH   1  30
ATOM     23  O   UNL     1     112.140 129.523 138.365  0.00  0.00    +0.000 OA
ATOM     24  O   UNL     1     111.541 132.021 137.731  0.00  0.00    +0.000 OA
ATOM     25  O   UNL     1     109.511 129.354 138.606  0.00  0.00    +0.000 OA
ATOM     26  C   UNL     1     110.526 130.688 138.169  0.00  0.00    +0.000 C 
ATOM     27  C   UNL     1     111.437 131.063 137.999  0.00  0.00    +0.000 C 
ATOM     28  C   UNL     1     110.422 129.730 138.436  0.00  0.00    +0.000 C 
ATOM     29  C   UNL     1     112.244 130.481 138.097  0.00  0.00    +0.000 C 
ATOM     30  C   UNL     1     111.229 129.148 138.534  0.00  0.00    +0.000 C 
BRANCH  29  32
ATOM     31  O   UNL     1     113.965 130.376 138.265  0.00  0.00    +0.000 OA
ATOM     32  C   UNL     1     113.155 130.857 137.927  0.00  0.00    +0.000 C 
ENDBRANCH  29  32
BRANCH  26  33
ATOM     33  O   UNL     1     109.719 131.270 138.071  0.00  0.00    +0.000 OA
BRANCH  33  38
ATOM     34  O   UNL     1     109.640 130.927 136.375  0.00  0.00    +0.000 OA
ATOM     35  O   UNL     1     107.868 132.026 138.004  0.00  0.00    +0.000 OA
ATOM     36  O   UNL     1     106.864 132.061 136.274  0.00  0.00    +0.000 OA
ATOM     37  O   UNL     1     107.711 131.340 134.612  0.00  0.00    +0.000 OA
ATOM     38  C   UNL     1     109.217 131.288 137.206  0.00  0.00    +0.000 C 
ATOM     39  C   UNL     1     108.292 131.666 137.173  0.00  0.00    +0.000 C 
ATOM     40  C   UNL     1     107.790 131.683 136.308  0.00  0.00    +0.000 C 
ATOM     41  C   UNL     1     108.213 131.322 135.477  0.00  0.00    +0.000 C 
ATOM     42  C   UNL     1     109.138 130.944 135.510  0.00  0.00    +0.000 C 
BRANCH  42  44
ATOM     43  O   UNL     1     110.364 129.991 134.743  0.00  0.00    +0.000 OA
ATOM     44  C   UNL     1     109.561 130.584 134.679  0.00  0.00    +0.000 C 
ENDBRANCH  42  44
ENDBRANCH  33  38
ENDBRANCH  26  33
ENDBRANCH   1  30
TORSDOF 7
ENDMDL
MODEL 2
REMARK VINA RESULT:      -9.7      1.953      5.167
REMARK  Name = 74978161
REMARK  7 active torsions:
REMARK  status: ('A' for Active; 'I' for Inactive)
REMARK    1  A    between atoms: O_1  and  C_18
REMARK    2  A    between atoms: O_1  and  C_21
REMARK    3  A    between atoms: O_6  and  C_26
REMARK    4  A    between atoms: O_6  and  C_30
REMARK    5  A    between atoms: C_22  and  C_28
REMARK    6  A    between atoms: C_27  and  C_29
REMARK    7  A    between atoms: C_31  and  C_34
REMARK                            x       y       z     vdW  Elec       q    Type
REMARK                         _______ _______ _______ _____ _____    ______ ____
ROOT
ATOM      1  O   UNL     1     110.179 128.685 138.028  0.00  0.00    +0.000 OA
ENDROOT
BRANCH   1   6
ATOM      2  O   UNL     1     110.493 126.998 136.014  0.00  0.00    +0.000 OA
ATOM      3  O   UNL     1     110.899 127.083 138.985  0.00  0.00    +0.000 OA
ATOM      4  O   UNL     1     111.494 125.438 138.985  0.00  0.00    +0.000 OA
ATOM      5  O   UNL     1     111.682 123.675 135.921  0.00  0.00    +0.000 OA
ATOM      6  C   UNL     1     110.404 127.855 137.516  0.00  0.00    +0.000 A 
ATOM      7  C   UNL     1     110.269 127.827 136.526  0.00  0.00    +0.000 A 
ATOM      8  C   UNL     1     110.764 127.055 137.994  0.00  0.00    +0.000 A 
ATOM      9  C   UNL     1     110.989 126.226 137.482  0.00  0.00    +0.000 A 
ATOM     10  C   UNL     1     110.853 126.197 136.492  0.00  0.00    +0.000 A 
ATOM     11  C   UNL     1     111.363 125.399 137.994  0.00  0.00    +0.000 A 
ATOM     12  C   UNL     1     111.083 125.341 135.945  0.00  0.00    +0.000 A 
ATOM     13  C   UNL     1     111.600 124.532 137.468  0.00  0.00    +0.000 A 
ATOM     14  C   UNL     1     111.459 124.502 136.436  0.00  0.00    +0.000 A 
BRANCH   7  17
ATOM     15  O   UNL     1     107.649 129.989 135.846  0.00  0.00    +0.000 OA
ATOM     16  O   UNL     1     108.828 131.031 134.612  0.00  0.00    +0.000 OA
ATOM     17  C   UNL     1     109.909 128.628 136.047  0.00  0.00    +0.000 A 
ATOM     18  C   UNL     1     108.959 128.908 136.186  0.00  0.00    +0.000 A 
ATOM     19  C   UNL     1     110.498 129.149 135.430  0.00  0.00    +0.000 A 
ATOM     20  C   UNL     1     108.598 129.709 135.708  0.00  0.00    +0.000 A 
ATOM     21  C   UNL     1     110.138 129.950 134.952  0.00  0.00    +0.000 A 
ATOM     22  C   UNL     1     109.188 130.230 135.091  0.00  0.00    +0.000 A 
ENDBRANCH   7  17
ENDBRANCH   1   6
BRANCH   1  30
ATOM     23  O   UNL     1     111.829 129.212 138.041  0.00  0.00    +0.000 OA
ATOM     24  O   UNL     1     113.098 130.890 139.645  0.00  0.00    +0.000 OA
ATOM     25  O   UNL     1     109.799 129.835 139.619  0.00  0.00    +0.000 OA
ATOM     26  C   UNL     1     111.449 130.363 139.632  0.00  0.00    +0.000 C 
ATOM     27  C   UNL     1     112.369 130.338 139.241  0.00  0.00    +0.000 C 
ATOM     28  C   UNL     1     110.719 129.811 139.228  0.00  0.00    +0.000 C 
ATOM     29  C   UNL     1     112.559 129.763 138.445  0.00  0.00    +0.000 C 
ATOM     30  C   UNL     1     110.909 129.236 138.432  0.00  0.00    +0.000 C 
BRANCH  29  32
ATOM     31  O   UNL     1     113.667 129.170 137.254  0.00  0.00    +0.000 OA
ATOM     32  C   UNL     1     113.479 129.739 138.054  0.00  0.00    +0.000 C 
ENDBRANCH  29  32
BRANCH  26  33
ATOM     33  O   UNL     1     111.258 130.938 140.427  0.00  0.00    +0.000 OA
BRANCH  33  38
ATOM     34  O   UNL     1     111.607 129.609 141.482  0.00  0.00    +0.000 OA
ATOM     35  O   UNL     1     111.109 132.153 142.009  0.00  0.00    +0.000 OA
ATOM     36  O   UNL     1     111.383 131.431 143.854  0.00  0.00    +0.000 OA
ATOM     37  O   UNL     1     111.807 129.495 144.117  0.00  0.00    +0.000 OA
ATOM     38  C   UNL     1     111.395 130.577 141.350  0.00  0.00    +0.000 C 
ATOM     39  C   UNL     1     111.321 131.185 142.141  0.00  0.00    +0.000 C 
ATOM     40  C   UNL     1     111.458 130.824 143.063  0.00  0.00    +0.000 C 
ATOM     41  C   UNL     1     111.670 129.855 143.195  0.00  0.00    +0.000 C 
ATOM     42  C   UNL     1     111.744 129.248 142.404  0.00  0.00    +0.000 C 
BRANCH  42  44
ATOM     43  O   UNL     1     112.406 127.763 141.808  0.00  0.00    +0.000 OA
ATOM     44  C   UNL     1     111.956 128.279 142.536  0.00  0.00    +0.000 C 
ENDBRANCH  42  44
ENDBRANCH  33  38
ENDBRANCH  26  33
ENDBRANCH   1  30
TORSDOF 7
ENDMDL
MODEL 3
REMARK VINA RESULT:      -9.6      2.482      4.948
REMARK  Name = 74978161
REMARK  7 active torsions:
REMARK  status: ('A' for Active; 'I' for Inactive)
REMARK    1  A    between atoms: O_1  and  C_18
REMARK    2  A    between atoms: O_1  and  C_21
REMARK    3  A    between atoms: O_6  and  C_26
REMARK    4  A    between atoms: O_6  and  C_30
REMARK    5  A    between atoms: C_22  and  C_28
REMARK    6  A    between atoms: C_27  and  C_29
REMARK    7  A    between atoms: C_31  and  C_34
REMARK                            x       y       z     vdW  Elec       q    Type
REMARK                         _______ _______ _______ _____ _____    ______ ____
ROOT
ATOM      1  O   UNL     1     111.306 128.361 137.398  0.00  0.00    +0.000 OA
ENDROOT
BRANCH   1   6
ATOM      2  O   UNL     1     112.862 128.536 135.265  0.00  0.00    +0.000 OA
ATOM      3  O   UNL     1     112.620 129.743 138.001  0.00  0.00    +0.000 OA
ATOM      4  O   UNL     1     114.024 130.747 137.720  0.00  0.00    +0.000 OA
ATOM      5  O   UNL     1     115.706 130.524 134.612  0.00  0.00    +0.000 OA
ATOM      6  C   UNL     1     112.044 128.649 136.788  0.00  0.00    +0.000 A 
ATOM      7  C   UNL     1     112.124 128.247 135.876  0.00  0.00    +0.000 A 
ATOM      8  C   UNL     1     112.700 129.341 137.089  0.00  0.00    +0.000 A 
ATOM      9  C   UNL     1     113.438 129.630 136.478  0.00  0.00    +0.000 A 
ATOM     10  C   UNL     1     113.519 129.227 135.566  0.00  0.00    +0.000 A 
ATOM     11  C   UNL     1     114.114 130.351 136.806  0.00  0.00    +0.000 A 
ATOM     12  C   UNL     1     114.282 129.518 134.919  0.00  0.00    +0.000 A 
ATOM     13  C   UNL     1     114.885 130.657 136.175  0.00  0.00    +0.000 A 
ATOM     14  C   UNL     1     114.969 130.238 135.226  0.00  0.00    +0.000 A 
BRANCH   7  17
ATOM     15  O   UNL     1     110.919 125.001 135.993  0.00  0.00    +0.000 OA
ATOM     16  O   UNL     1     109.498 125.481 134.671  0.00  0.00    +0.000 OA
ATOM     17  C   UNL     1     111.468 127.555 135.575  0.00  0.00    +0.000 A 
ATOM     18  C   UNL     1     111.522 126.624 135.935  0.00  0.00    +0.000 A 
ATOM     19  C   UNL     1     110.757 127.795 134.913  0.00  0.00    +0.000 A 
ATOM     20  C   UNL     1     110.865 125.933 135.633  0.00  0.00    +0.000 A 
ATOM     21  C   UNL     1     110.100 127.104 134.612  0.00  0.00    +0.000 A 
ATOM     22  C   UNL     1     110.155 126.173 134.972  0.00  0.00    +0.000 A 
ENDBRANCH   7  17
ENDBRANCH   1   6
BRANCH   1  30
ATOM     23  O   UNL     1     110.404 129.799 137.058  0.00  0.00    +0.000 OA
ATOM     24  O   UNL     1     108.370 130.910 138.333  0.00  0.00    +0.000 OA
ATOM     25  O   UNL     1     110.174 128.032 139.014  0.00  0.00    +0.000 OA
ATOM     26  C   UNL     1     109.272 129.471 138.674  0.00  0.00    +0.000 C 
ATOM     27  C   UNL     1     109.104 130.273 138.100  0.00  0.00    +0.000 C 
ATOM     28  C   UNL     1     110.006 128.834 138.440  0.00  0.00    +0.000 C 
ATOM     29  C   UNL     1     109.670 130.437 137.292  0.00  0.00    +0.000 C 
ATOM     30  C   UNL     1     110.572 128.998 137.632  0.00  0.00    +0.000 C 
BRANCH  29  32
ATOM     31  O   UNL     1     109.857 131.267 135.783  0.00  0.00    +0.000 OA
ATOM     32  C   UNL     1     109.502 131.238 136.718  0.00  0.00    +0.000 C 
ENDBRANCH  29  32
BRANCH  26  33
ATOM     33  O   UNL     1     108.706 129.307 139.481  0.00  0.00    +0.000 OA
BRANCH  33  38
ATOM     34  O   UNL     1     109.827 130.153 140.494  0.00  0.00    +0.000 OA
ATOM     35  O   UNL     1     107.303 129.471 140.898  0.00  0.00    +0.000 OA
ATOM     36  O   UNL     1     107.724 130.399 142.619  0.00  0.00    +0.000 OA
ATOM     37  O   UNL     1     109.546 131.163 142.923  0.00  0.00    +0.000 OA
ATOM     38  C   UNL     1     108.916 129.771 140.342  0.00  0.00    +0.000 C 
ATOM     39  C   UNL     1     108.215 129.853 141.050  0.00  0.00    +0.000 C 
ATOM     40  C   UNL     1     108.425 130.317 141.911  0.00  0.00    +0.000 C 
ATOM     41  C   UNL     1     109.336 130.699 142.063  0.00  0.00    +0.000 C 
ATOM     42  C   UNL     1     110.038 130.617 141.355  0.00  0.00    +0.000 C 
BRANCH  42  44
ATOM     43  O   UNL     1     111.545 131.197 140.729  0.00  0.00    +0.000 OA
ATOM     44  C   UNL     1     110.949 130.999 141.507  0.00  0.00    +0.000 C 
ENDBRANCH  42  44
ENDBRANCH  33  38
ENDBRANCH  26  33
ENDBRANCH   1  30
TORSDOF 7
ENDMDL
MODEL 4
REMARK VINA RESULT:      -9.4      2.826      5.081
REMARK  Name = 74978161
REMARK  7 active torsions:
REMARK  status: ('A' for Active; 'I' for Inactive)
REMARK    1  A    between atoms: O_1  and  C_18
REMARK    2  A    between atoms: O_1  and  C_21
REMARK    3  A    between atoms: O_6  and  C_26
REMARK    4  A    between atoms: O_6  and  C_30
REMARK    5  A    between atoms: C_22  and  C_28
REMARK    6  A    between atoms: C_27  and  C_29
REMARK    7  A    between atoms: C_31  and  C_34
REMARK                            x       y       z     vdW  Elec       q    Type
REMARK                         _______ _______ _______ _____ _____    ______ ____
ROOT
ATOM      1  O   UNL     1     111.771 127.618 137.924  0.00  0.00    +0.000 OA
ENDROOT
BRANCH   1   6
ATOM      2  O   UNL     1     113.639 127.773 136.057  0.00  0.00    +0.000 OA
ATOM      3  O   UNL     1     112.236 129.561 138.015  0.00  0.00    +0.000 OA
ATOM      4  O   UNL     1     113.161 130.941 137.471  0.00  0.00    +0.000 OA
ATOM      5  O   UNL     1     115.552 130.505 134.897  0.00  0.00    +0.000 OA
ATOM      6  C   UNL     1     112.471 127.993 137.317  0.00  0.00    +0.000 A 
ATOM      7  C   UNL     1     112.939 127.398 136.664  0.00  0.00    +0.000 A 
ATOM      8  C   UNL     1     112.704 128.965 137.363  0.00  0.00    +0.000 A 
ATOM      9  C   UNL     1     113.404 129.341 136.756  0.00  0.00    +0.000 A 
ATOM     10  C   UNL     1     113.872 128.745 136.103  0.00  0.00    +0.000 A 
ATOM     11  C   UNL     1     113.635 130.355 136.815  0.00  0.00    +0.000 A 
ATOM     12  C   UNL     1     114.603 129.122 135.464  0.00  0.00    +0.000 A 
ATOM     13  C   UNL     1     114.364 130.753 136.185  0.00  0.00    +0.000 A 
ATOM     14  C   UNL     1     114.851 130.133 135.505  0.00  0.00    +0.000 A 
BRANCH   7  17
ATOM     15  O   UNL     1     110.763 124.875 135.715  0.00  0.00    +0.000 OA
ATOM     16  O   UNL     1     112.009 123.512 136.482  0.00  0.00    +0.000 OA
ATOM     17  C   UNL     1     112.706 126.426 136.619  0.00  0.00    +0.000 A 
ATOM     18  C   UNL     1     111.851 126.136 136.190  0.00  0.00    +0.000 A 
ATOM     19  C   UNL     1     113.329 125.744 137.002  0.00  0.00    +0.000 A 
ATOM     20  C   UNL     1     111.618 125.165 136.144  0.00  0.00    +0.000 A 
ATOM     21  C   UNL     1     113.097 124.773 136.957  0.00  0.00    +0.000 A 
ATOM     22  C   UNL     1     112.241 124.483 136.528  0.00  0.00    +0.000 A 
ENDBRANCH   7  17
ENDBRANCH   1   6
BRANCH   1  30
ATOM     23  O   UNL     1     112.868 127.525 139.261  0.00  0.00    +0.000 OA
ATOM     24  O   UNL     1     112.421 127.455 141.868  0.00  0.00    +0.000 OA
ATOM     25  O   UNL     1     110.226 127.641 139.194  0.00  0.00    +0.000 OA
ATOM     26  C   UNL     1     111.323 127.548 140.531  0.00  0.00    +0.000 C 
ATOM     27  C   UNL     1     112.258 127.496 140.882  0.00  0.00    +0.000 C 
ATOM     28  C   UNL     1     111.161 127.589 139.545  0.00  0.00    +0.000 C 
ATOM     29  C   UNL     1     113.031 127.484 140.247  0.00  0.00    +0.000 C 
ATOM     30  C   UNL     1     111.933 127.577 138.910  0.00  0.00    +0.000 C 
BRANCH  29  32
ATOM     31  O   UNL     1     114.634 126.837 140.152  0.00  0.00    +0.000 OA
ATOM     32  C   UNL     1     113.966 127.432 140.598  0.00  0.00    +0.000 C 
ENDBRANCH  29  32
BRANCH  26  33
ATOM     33  O   UNL     1     110.551 127.559 141.166  0.00  0.00    +0.000 OA
BRANCH  33  38
ATOM     34  O   UNL     1     110.619 129.289 141.218  0.00  0.00    +0.000 OA
ATOM     35  O   UNL     1     108.986 127.584 142.411  0.00  0.00    +0.000 OA
ATOM     36  O   UNL     1     108.272 129.326 143.085  0.00  0.00    +0.000 OA
ATOM     37  O   UNL     1     109.123 131.043 142.515  0.00  0.00    +0.000 OA
ATOM     38  C   UNL     1     110.194 128.430 141.503  0.00  0.00    +0.000 C 
ATOM     39  C   UNL     1     109.411 128.443 142.126  0.00  0.00    +0.000 C 
ATOM     40  C   UNL     1     109.054 129.314 142.463  0.00  0.00    +0.000 C 
ATOM     41  C   UNL     1     109.480 130.172 142.178  0.00  0.00    +0.000 C 
ATOM     42  C   UNL     1     110.262 130.160 141.556  0.00  0.00    +0.000 C 
BRANCH  42  44
ATOM     43  O   UNL     1     111.606 131.015 140.875  0.00  0.00    +0.000 OA
ATOM     44  C   UNL     1     110.688 131.019 141.271  0.00  0.00    +0.000 C 
ENDBRANCH  42  44
ENDBRANCH  33  38
ENDBRANCH  26  33
ENDBRANCH   1  30
TORSDOF 7
ENDMDL
MODEL 5
REMARK VINA RESULT:      -9.3      2.677      5.276
REMARK  Name = 74978161
REMARK  7 active torsions:
REMARK  status: ('A' for Active; 'I' for Inactive)
REMARK    1  A    between atoms: O_1  and  C_18
REMARK    2  A    between atoms: O_1  and  C_21
REMARK    3  A    between atoms: O_6  and  C_26
REMARK    4  A    between atoms: O_6  and  C_30
REMARK    5  A    between atoms: C_22  and  C_28
REMARK    6  A    between atoms: C_27  and  C_29
REMARK    7  A    between atoms: C_31  and  C_34
REMARK                            x       y       z     vdW  Elec       q    Type
REMARK                         _______ _______ _______ _____ _____    ______ ____
ROOT
ATOM      1  O   UNL     1     111.174 127.603 137.903  0.00  0.00    +0.000 OA
ENDROOT
BRANCH   1   6
ATOM      2  O   UNL     1     113.254 127.970 136.310  0.00  0.00    +0.000 OA
ATOM      3  O   UNL     1     111.598 129.523 138.270  0.00  0.00    +0.000 OA
ATOM      4  O   UNL     1     112.564 130.956 138.004  0.00  0.00    +0.000 OA
ATOM      5  O   UNL     1     115.257 130.815 135.710  0.00  0.00    +0.000 OA
ATOM      6  C   UNL     1     111.938 128.045 137.433  0.00  0.00    +0.000 A 
ATOM      7  C   UNL     1     112.490 127.528 136.780  0.00  0.00    +0.000 A 
ATOM      8  C   UNL     1     112.150 129.005 137.617  0.00  0.00    +0.000 A 
ATOM      9  C   UNL     1     112.914 129.447 137.147  0.00  0.00    +0.000 A 
ATOM     10  C   UNL     1     113.466 128.930 136.494  0.00  0.00    +0.000 A 
ATOM     11  C   UNL     1     113.122 130.448 137.349  0.00  0.00    +0.000 A 
ATOM     12  C   UNL     1     114.265 129.377 135.996  0.00  0.00    +0.000 A 
ATOM     13  C   UNL     1     113.917 130.915 136.863  0.00  0.00    +0.000 A 
ATOM     14  C   UNL     1     114.492 130.376 136.182  0.00  0.00    +0.000 A 
BRANCH   7  17
ATOM     15  O   UNL     1     110.427 125.127 135.372  0.00  0.00    +0.000 OA
ATOM     16  O   UNL     1     111.642 123.688 136.045  0.00  0.00    +0.000 OA
ATOM     17  C   UNL     1     112.278 126.568 136.596  0.00  0.00    +0.000 A 
ATOM     18  C   UNL     1     111.458 126.327 136.076  0.00  0.00    +0.000 A 
ATOM     19  C   UNL     1     112.886 125.848 136.933  0.00  0.00    +0.000 A 
ATOM     20  C   UNL     1     111.247 125.368 135.892  0.00  0.00    +0.000 A 
ATOM     21  C   UNL     1     112.674 124.888 136.749  0.00  0.00    +0.000 A 
ATOM     22  C   UNL     1     111.854 124.648 136.229  0.00  0.00    +0.000 A 
ENDBRANCH   7  17
ENDBRANCH   1   6
BRANCH   1  30
ATOM     23  O   UNL     1     112.144 127.347 139.315  0.00  0.00    +0.000 OA
ATOM     24  O   UNL     1     111.465 126.707 141.790  0.00  0.00    +0.000 OA
ATOM     25  O   UNL     1     109.524 127.220 138.967  0.00  0.00    +0.000 OA
ATOM     26  C   UNL     1     110.495 126.964 140.379  0.00  0.00    +0.000 C 
ATOM     27  C   UNL     1     111.392 126.931 140.819  0.00  0.00    +0.000 C 
ATOM     28  C   UNL     1     110.422 127.188 139.407  0.00  0.00    +0.000 C 
ATOM     29  C   UNL     1     112.217 127.123 140.286  0.00  0.00    +0.000 C 
ATOM     30  C   UNL     1     111.247 127.379 138.875  0.00  0.00    +0.000 C 
BRANCH  29  32
ATOM     31  O   UNL     1     113.941 126.999 140.170  0.00  0.00    +0.000 OA
ATOM     32  C   UNL     1     113.115 127.090 140.726  0.00  0.00    +0.000 C 
ENDBRANCH  29  32
BRANCH  26  33
ATOM     33  O   UNL     1     109.670 126.772 140.911  0.00  0.00    +0.000 OA
BRANCH  33  38
ATOM     34  O   UNL     1     109.505 128.459 141.271  0.00  0.00    +0.000 OA
ATOM     35  O   UNL     1     108.141 126.362 142.133  0.00  0.00    +0.000 OA
ATOM     36  O   UNL     1     107.211 127.843 143.104  0.00  0.00    +0.000 OA
ATOM     37  O   UNL     1     107.810 129.734 142.853  0.00  0.00    +0.000 OA
ATOM     38  C   UNL     1     109.205 127.513 141.397  0.00  0.00    +0.000 C 
ATOM     39  C   UNL     1     108.441 127.307 142.008  0.00  0.00    +0.000 C 
ATOM     40  C   UNL     1     107.976 128.048 142.493  0.00  0.00    +0.000 C 
ATOM     41  C   UNL     1     108.275 128.994 142.367  0.00  0.00    +0.000 C 
ATOM     42  C   UNL     1     109.040 129.199 141.756  0.00  0.00    +0.000 C 
BRANCH  42  44
ATOM     43  O   UNL     1     110.203 130.338 141.165  0.00  0.00    +0.000 OA
ATOM     44  C   UNL     1     109.339 130.145 141.631  0.00  0.00    +0.000 C 
ENDBRANCH  42  44
ENDBRANCH  33  38
ENDBRANCH  26  33
ENDBRANCH   1  30
TORSDOF 7
ENDMDL
MODEL 6
REMARK VINA RESULT:      -9.3      2.698      5.266
REMARK  Name = 74978161
REMARK  7 active torsions:
REMARK  status: ('A' for Active; 'I' for Inactive)
REMARK    1  A    between atoms: O_1  and  C_18
REMARK    2  A    between atoms: O_1  and  C_21
REMARK    3  A    between atoms: O_6  and  C_26
REMARK    4  A    between atoms: O_6  and  C_30
REMARK    5  A    between atoms: C_22  and  C_28
REMARK    6  A    between atoms: C_27  and  C_29
REMARK    7  A    between atoms: C_31  and  C_34
REMARK                            x       y       z     vdW  Elec       q    Type
REMARK                         _______ _______ _______ _____ _____    ______ ____
ROOT
ATOM      1  O   UNL     1     111.491 130.570 141.130  0.00  0.00    +0.000 OA
ENDROOT
BRANCH   1   6
ATOM      2  O   UNL     1     111.960 129.819 143.623  0.00  0.00    +0.000 OA
ATOM      3  O   UNL     1     111.378 132.326 142.082  0.00  0.00    +0.000 OA
ATOM      4  O   UNL     1     111.452 133.283 143.543  0.00  0.00    +0.000 OA
ATOM      5  O   UNL     1     112.129 131.674 146.623  0.00  0.00    +0.000 OA
ATOM      6  C   UNL     1     111.629 130.613 142.120  0.00  0.00    +0.000 A 
ATOM      7  C   UNL     1     111.823 129.777 142.634  0.00  0.00    +0.000 A 
ATOM      8  C   UNL     1     111.572 131.490 142.596  0.00  0.00    +0.000 A 
ATOM      9  C   UNL     1     111.709 131.533 143.585  0.00  0.00    +0.000 A 
ATOM     10  C   UNL     1     111.903 130.697 144.099  0.00  0.00    +0.000 A 
ATOM     11  C   UNL     1     111.647 132.454 144.067  0.00  0.00    +0.000 A 
ATOM     12  C   UNL     1     112.048 130.725 145.131  0.00  0.00    +0.000 A 
ATOM     13  C   UNL     1     111.789 132.506 145.098  0.00  0.00    +0.000 A 
ATOM     14  C   UNL     1     111.991 131.636 145.633  0.00  0.00    +0.000 A 
BRANCH   7  17
ATOM     15  O   UNL     1     110.445 126.698 141.844  0.00  0.00    +0.000 OA
ATOM     16  O   UNL     1     112.050 126.266 140.731  0.00  0.00    +0.000 OA
ATOM     17  C   UNL     1     111.880 128.899 142.158  0.00  0.00    +0.000 A 
ATOM     18  C   UNL     1     111.134 128.238 142.239  0.00  0.00    +0.000 A 
ATOM     19  C   UNL     1     112.682 128.683 141.602  0.00  0.00    +0.000 A 
ATOM     20  C   UNL     1     111.191 127.360 141.763  0.00  0.00    +0.000 A 
ATOM     21  C   UNL     1     112.739 127.805 141.126  0.00  0.00    +0.000 A 
ATOM     22  C   UNL     1     111.993 127.144 141.207  0.00  0.00    +0.000 A 
ENDBRANCH   7  17
ENDBRANCH   1   6
BRANCH   1  30
ATOM     23  O   UNL     1     109.771 130.608 141.323  0.00  0.00    +0.000 OA
ATOM     24  O   UNL     1     107.845 131.148 139.590  0.00  0.00    +0.000 OA
ATOM     25  O   UNL     1     111.287 131.073 139.205  0.00  0.00    +0.000 OA
ATOM     26  C   UNL     1     109.566 131.111 139.398  0.00  0.00    +0.000 C 
ATOM     27  C   UNL     1     108.757 131.004 139.975  0.00  0.00    +0.000 C 
ATOM     28  C   UNL     1     110.478 130.966 139.783  0.00  0.00    +0.000 C 
ATOM     29  C   UNL     1     108.859 130.753 140.938  0.00  0.00    +0.000 C 
ATOM     30  C   UNL     1     110.580 130.715 140.745  0.00  0.00    +0.000 C 
BRANCH  29  32
ATOM     31  O   UNL     1     108.026 131.061 142.425  0.00  0.00    +0.000 OA
ATOM     32  C   UNL     1     108.050 130.646 141.515  0.00  0.00    +0.000 C 
ENDBRANCH  29  32
BRANCH  26  33
ATOM     33  O   UNL     1     109.464 131.362 138.435  0.00  0.00    +0.000 OA
BRANCH  33  38
ATOM     34  O   UNL     1     109.535 129.702 137.946  0.00  0.00    +0.000 OA
ATOM     35  O   UNL     1     108.666 131.849 136.667  0.00  0.00    +0.000 OA
ATOM     36  O   UNL     1     108.337 130.433 135.294  0.00  0.00    +0.000 OA
ATOM     37  O   UNL     1     108.807 128.530 135.688  0.00  0.00    +0.000 OA
ATOM     38  C   UNL     1     109.300 130.654 137.748  0.00  0.00    +0.000 C 
ATOM     39  C   UNL     1     108.901 130.897 136.865  0.00  0.00    +0.000 C 
ATOM     40  C   UNL     1     108.736 130.189 136.178  0.00  0.00    +0.000 C 
ATOM     41  C   UNL     1     108.971 129.238 136.375  0.00  0.00    +0.000 C 
ATOM     42  C   UNL     1     109.370 128.994 137.259  0.00  0.00    +0.000 C 
BRANCH  42  44
ATOM     43  O   UNL     1     109.584 127.707 138.398  0.00  0.00    +0.000 OA
ATOM     44  C   UNL     1     109.605 128.042 137.456  0.00  0.00    +0.000 C 
ENDBRANCH  42  44
ENDBRANCH  33  38
ENDBRANCH  26  33
ENDBRANCH   1  30
TORSDOF 7
ENDMDL
MODEL 7
REMARK VINA RESULT:      -9.2      2.461      5.615
REMARK  Name = 74978161
REMARK  7 active torsions:
REMARK  status: ('A' for Active; 'I' for Inactive)
REMARK    1  A    between atoms: O_1  and  C_18
REMARK    2  A    between atoms: O_1  and  C_21
REMARK    3  A    between atoms: O_6  and  C_26
REMARK    4  A    between atoms: O_6  and  C_30
REMARK    5  A    between atoms: C_22  and  C_28
REMARK    6  A    between atoms: C_27  and  C_29
REMARK    7  A    between atoms: C_31  and  C_34
REMARK                            x       y       z     vdW  Elec       q    Type
REMARK                         _______ _______ _______ _____ _____    ______ ____
ROOT
ATOM      1  O   UNL     1     112.501 129.196 139.452  0.00  0.00    +0.000 OA
ENDROOT
BRANCH   1   6
ATOM      2  O   UNL     1     112.156 127.959 137.138  0.00  0.00    +0.000 OA
ATOM      3  O   UNL     1     111.885 127.397 140.073  0.00  0.00    +0.000 OA
ATOM      4  O   UNL     1     111.351 125.764 139.745  0.00  0.00    +0.000 OA
ATOM      5  O   UNL     1     111.087 124.680 136.386  0.00  0.00    +0.000 OA
ATOM      6  C   UNL     1     112.284 128.484 138.784  0.00  0.00    +0.000 A 
ATOM      7  C   UNL     1     112.374 128.671 137.806  0.00  0.00    +0.000 A 
ATOM      8  C   UNL     1     111.976 127.584 139.094  0.00  0.00    +0.000 A 
ATOM      9  C   UNL     1     111.758 126.873 138.427  0.00  0.00    +0.000 A 
ATOM     10  C   UNL     1     111.848 127.060 137.449  0.00  0.00    +0.000 A 
ATOM     11  C   UNL     1     111.438 125.941 138.765  0.00  0.00    +0.000 A 
ATOM     12  C   UNL     1     111.625 126.328 136.741  0.00  0.00    +0.000 A 
ATOM     13  C   UNL     1     111.210 125.194 138.075  0.00  0.00    +0.000 A 
ATOM     14  C   UNL     1     111.304 125.389 137.056  0.00  0.00    +0.000 A 
BRANCH   7  17
ATOM     15  O   UNL     1     111.652 131.850 136.634  0.00  0.00    +0.000 OA
ATOM     16  O   UNL     1     113.606 132.268 136.565  0.00  0.00    +0.000 OA
ATOM     17  C   UNL     1     112.682 129.570 137.496  0.00  0.00    +0.000 A 
ATOM     18  C   UNL     1     112.013 130.260 137.220  0.00  0.00    +0.000 A 
ATOM     19  C   UNL     1     113.659 129.780 137.461  0.00  0.00    +0.000 A 
ATOM     20  C   UNL     1     112.321 131.160 136.909  0.00  0.00    +0.000 A 
ATOM     21  C   UNL     1     113.968 130.679 137.151  0.00  0.00    +0.000 A 
ATOM     22  C   UNL     1     113.298 131.369 136.875  0.00  0.00    +0.000 A 
ENDBRANCH   7  17
ENDBRANCH   1   6
BRANCH   1  30
ATOM     23  O   UNL     1     110.811 129.454 139.727  0.00  0.00    +0.000 OA
ATOM     24  O   UNL     1     109.556 131.129 141.346  0.00  0.00    +0.000 OA
ATOM     25  O   UNL     1     112.937 130.612 140.795  0.00  0.00    +0.000 OA
ATOM     26  C   UNL     1     111.247 130.870 141.071  0.00  0.00    +0.000 C 
ATOM     27  C   UNL     1     110.293 130.645 140.873  0.00  0.00    +0.000 C 
ATOM     28  C   UNL     1     111.983 130.387 140.597  0.00  0.00    +0.000 C 
ATOM     29  C   UNL     1     110.075 129.937 140.201  0.00  0.00    +0.000 C 
ATOM     30  C   UNL     1     111.765 129.679 139.925  0.00  0.00    +0.000 C 
BRANCH  29  32
ATOM     31  O   UNL     1     108.889 129.201 139.175  0.00  0.00    +0.000 OA
ATOM     32  C   UNL     1     109.121 129.713 140.003  0.00  0.00    +0.000 C 
ENDBRANCH  29  32
BRANCH  26  33
ATOM     33  O   UNL     1     111.464 131.578 141.743  0.00  0.00    +0.000 OA
BRANCH  33  38
ATOM     34  O   UNL     1     111.505 130.380 142.993  0.00  0.00    +0.000 OA
ATOM     35  O   UNL     1     111.825 133.005 143.097  0.00  0.00    +0.000 OA
ATOM     36  O   UNL     1     112.047 132.520 145.025  0.00  0.00    +0.000 OA
ATOM     37  O   UNL     1     111.907 130.609 145.598  0.00  0.00    +0.000 OA
ATOM     38  C   UNL     1     111.575 131.336 142.706  0.00  0.00    +0.000 C 
ATOM     39  C   UNL     1     111.755 132.049 143.384  0.00  0.00    +0.000 C 
ATOM     40  C   UNL     1     111.866 131.807 144.348  0.00  0.00    +0.000 C 
ATOM     41  C   UNL     1     111.797 130.851 144.634  0.00  0.00    +0.000 C 
ATOM     42  C   UNL     1     111.616 130.138 143.957  0.00  0.00    +0.000 C 
BRANCH  42  44
ATOM     43  O   UNL     1     111.399 128.466 143.562  0.00  0.00    +0.000 OA
ATOM     44  C   UNL     1     111.547 129.182 144.243  0.00  0.00    +0.000 C 
ENDBRANCH  42  44
ENDBRANCH  33  38
ENDBRANCH  26  33
ENDBRANCH   1  30
TORSDOF 7
ENDMDL
MODEL 8
REMARK VINA RESULT:      -9.2      2.755      5.971
REMARK  Name = 74978161
REMARK  7 active torsions:
REMARK  status: ('A' for Active; 'I' for Inactive)
REMARK    1  A    between atoms: O_1  and  C_18
REMARK    2  A    between atoms: O_1  and  C_21
REMARK    3  A    between atoms: O_6  and  C_26
REMARK    4  A    between atoms: O_6  and  C_30
REMARK    5  A    between atoms: C_22  and  C_28
REMARK    6  A    between atoms: C_27  and  C_29
REMARK    7  A    between atoms: C_31  and  C_34
REMARK                            x       y       z     vdW  Elec       q    Type
REMARK                         _______ _______ _______ _____ _____    ______ ____
ROOT
ATOM      1  O   UNL     1     109.862 128.654 139.457  0.00  0.00    +0.000 OA
ENDROOT
BRANCH   1   6
ATOM      2  O   UNL     1     111.398 130.296 138.064  0.00  0.00    +0.000 OA
ATOM      3  O   UNL     1     108.595 130.166 139.125  0.00  0.00    +0.000 OA
ATOM      4  O   UNL     1     108.228 131.735 138.445  0.00  0.00    +0.000 OA
ATOM      5  O   UNL     1     110.745 133.468 136.657  0.00  0.00    +0.000 OA
ATOM      6  C   UNL     1     110.163 129.453 138.937  0.00  0.00    +0.000 A 
ATOM      7  C   UNL     1     111.097 129.497 138.583  0.00  0.00    +0.000 A 
ATOM      8  C   UNL     1     109.530 130.209 138.771  0.00  0.00    +0.000 A 
ATOM      9  C   UNL     1     109.831 131.009 138.251  0.00  0.00    +0.000 A 
ATOM     10  C   UNL     1     110.765 131.052 137.898  0.00  0.00    +0.000 A 
ATOM     11  C   UNL     1     109.160 131.789 138.086  0.00  0.00    +0.000 A 
ATOM     12  C   UNL     1     111.094 131.879 137.354  0.00  0.00    +0.000 A 
ATOM     13  C   UNL     1     109.467 132.625 137.546  0.00  0.00    +0.000 A 
ATOM     14  C   UNL     1     110.440 132.670 137.177  0.00  0.00    +0.000 A 
BRANCH   7  17
ATOM     15  O   UNL     1     112.139 126.258 137.931  0.00  0.00    +0.000 OA
ATOM     16  O   UNL     1     113.629 126.472 139.248  0.00  0.00    +0.000 OA
ATOM     17  C   UNL     1     111.730 128.741 138.749  0.00  0.00    +0.000 A 
ATOM     18  C   UNL     1     111.618 127.877 138.257  0.00  0.00    +0.000 A 
ATOM     19  C   UNL     1     112.475 128.848 139.408  0.00  0.00    +0.000 A 
ATOM     20  C   UNL     1     112.251 127.121 138.423  0.00  0.00    +0.000 A 
ATOM     21  C   UNL     1     113.108 128.092 139.574  0.00  0.00    +0.000 A 
ATOM     22  C   UNL     1     112.996 127.228 139.082  0.00  0.00    +0.000 A 
ENDBRANCH   7  17
ENDBRANCH   1   6
BRANCH   1  30
ATOM     23  O   UNL     1     110.116 129.481 140.957  0.00  0.00    +0.000 OA
ATOM     24  O   UNL     1     109.249 128.946 143.399  0.00  0.00    +0.000 OA
ATOM     25  O   UNL     1     108.741 127.291 140.398  0.00  0.00    +0.000 OA
ATOM     26  C   UNL     1     108.995 128.118 141.899  0.00  0.00    +0.000 C 
ATOM     27  C   UNL     1     109.402 128.873 142.413  0.00  0.00    +0.000 C 
ATOM     28  C   UNL     1     109.148 128.045 140.913  0.00  0.00    +0.000 C 
ATOM     29  C   UNL     1     109.962 129.554 141.943  0.00  0.00    +0.000 C 
ATOM     30  C   UNL     1     109.708 128.727 140.442  0.00  0.00    +0.000 C 
BRANCH  29  32
ATOM     31  O   UNL     1     110.494 131.201 142.023  0.00  0.00    +0.000 OA
ATOM     32  C   UNL     1     110.370 130.309 142.457  0.00  0.00    +0.000 C 
ENDBRANCH  29  32
BRANCH  26  33
ATOM     33  O   UNL     1     108.435 127.437 142.369  0.00  0.00    +0.000 OA
BRANCH  33  38
ATOM     34  O   UNL     1     107.024 128.403 142.093  0.00  0.00    +0.000 OA
ATOM     35  O   UNL     1     107.297 126.009 143.185  0.00  0.00    +0.000 OA
ATOM     36  O   UNL     1     105.317 126.260 143.318  0.00  0.00    +0.000 OA
ATOM     37  O   UNL     1     104.475 127.940 142.634  0.00  0.00    +0.000 OA
ATOM     38  C   UNL     1     107.445 127.563 142.435  0.00  0.00    +0.000 C 
ATOM     39  C   UNL     1     106.876 126.849 142.843  0.00  0.00    +0.000 C 
ATOM     40  C   UNL     1     105.886 126.975 142.910  0.00  0.00    +0.000 C 
ATOM     41  C   UNL     1     105.465 127.815 142.568  0.00  0.00    +0.000 C 
ATOM     42  C   UNL     1     106.034 128.529 142.159  0.00  0.00    +0.000 C 
BRANCH  42  44
ATOM     43  O   UNL     1     106.185 130.099 141.445  0.00  0.00    +0.000 OA
ATOM     44  C   UNL     1     105.613 129.369 141.817  0.00  0.00    +0.000 C 
ENDBRANCH  42  44
ENDBRANCH  33  38
ENDBRANCH  26  33
ENDBRANCH   1  30
TORSDOF 7
ENDMDL
MODEL 9
REMARK VINA RESULT:      -9.2      2.099      5.011
REMARK  Name = 74978161
REMARK  7 active torsions:
REMARK  status: ('A' for Active; 'I' for Inactive)
REMARK    1  A    between atoms: O_1  and  C_18
REMARK    2  A    between atoms: O_1  and  C_21
REMARK    3  A    between atoms: O_6  and  C_26
REMARK    4  A    between atoms: O_6  and  C_30
REMARK    5  A    between atoms: C_22  and  C_28
REMARK    6  A    between atoms: C_27  and  C_29
REMARK    7  A    between atoms: C_31  and  C_34
REMARK                            x       y       z     vdW  Elec       q    Type
REMARK                         _______ _______ _______ _____ _____    ______ ____
ROOT
ATOM      1  O   UNL     1     112.204 128.079 138.559  0.00  0.00    +0.000 OA
ENDROOT
BRANCH   1   6
ATOM      2  O   UNL     1     113.502 128.069 136.253  0.00  0.00    +0.000 OA
ATOM      3  O   UNL     1     112.925 129.944 138.523  0.00  0.00    +0.000 OA
ATOM      4  O   UNL     1     113.841 131.217 137.749  0.00  0.00    +0.000 OA
ATOM      5  O   UNL     1     115.369 130.581 134.619  0.00  0.00    +0.000 OA
ATOM      6  C   UNL     1     112.757 128.387 137.784  0.00  0.00    +0.000 A 
ATOM      7  C   UNL     1     112.949 127.761 137.028  0.00  0.00    +0.000 A 
ATOM      8  C   UNL     1     113.118 129.319 137.766  0.00  0.00    +0.000 A 
ATOM      9  C   UNL     1     113.670 129.627 136.992  0.00  0.00    +0.000 A 
ATOM     10  C   UNL     1     113.863 129.002 136.235  0.00  0.00    +0.000 A 
ATOM     11  C   UNL     1     114.039 130.601 136.987  0.00  0.00    +0.000 A 
ATOM     12  C   UNL     1     114.437 129.308 135.421  0.00  0.00    +0.000 A 
ATOM     13  C   UNL     1     114.616 130.928 136.183  0.00  0.00    +0.000 A 
ATOM     14  C   UNL     1     114.816 130.277 135.395  0.00  0.00    +0.000 A 
BRANCH   7  17
ATOM     15  O   UNL     1     110.721 125.383 135.853  0.00  0.00    +0.000 OA
ATOM     16  O   UNL     1     111.507 124.031 137.100  0.00  0.00    +0.000 OA
ATOM     17  C   UNL     1     112.589 126.829 137.046  0.00  0.00    +0.000 A 
ATOM     18  C   UNL     1     111.835 126.572 136.440  0.00  0.00    +0.000 A 
ATOM     19  C   UNL     1     112.982 126.153 137.669  0.00  0.00    +0.000 A 
ATOM     20  C   UNL     1     111.475 125.640 136.458  0.00  0.00    +0.000 A 
ATOM     21  C   UNL     1     112.621 125.220 137.687  0.00  0.00    +0.000 A 
ATOM     22  C   UNL     1     111.868 124.964 137.082  0.00  0.00    +0.000 A 
ENDBRANCH   7  17
ENDBRANCH   1   6
BRANCH   1  30
ATOM     23  O   UNL     1     110.776 128.858 137.963  0.00  0.00    +0.000 OA
ATOM     24  O   UNL     1     108.614 129.711 139.226  0.00  0.00    +0.000 OA
ATOM     25  O   UNL     1     111.470 128.154 140.417  0.00  0.00    +0.000 OA
ATOM     26  C   UNL     1     110.042 128.932 139.822  0.00  0.00    +0.000 C 
ATOM     27  C   UNL     1     109.511 129.303 139.059  0.00  0.00    +0.000 C 
ATOM     28  C   UNL     1     110.939 128.524 139.655  0.00  0.00    +0.000 C 
ATOM     29  C   UNL     1     109.879 129.266 138.130  0.00  0.00    +0.000 C 
ATOM     30  C   UNL     1     111.307 128.487 138.726  0.00  0.00    +0.000 C 
BRANCH  29  32
ATOM     31  O   UNL     1     109.740 129.652 136.447  0.00  0.00    +0.000 OA
ATOM     32  C   UNL     1     109.348 129.636 137.368  0.00  0.00    +0.000 C 
ENDBRANCH  29  32
BRANCH  26  33
ATOM     33  O   UNL     1     109.674 128.970 140.751  0.00  0.00    +0.000 OA
BRANCH  33  38
ATOM     34  O   UNL     1     109.014 127.380 140.557  0.00  0.00    +0.000 OA
ATOM     35  O   UNL     1     108.820 129.104 142.554  0.00  0.00    +0.000 OA
ATOM     36  O   UNL     1     107.732 127.582 143.261  0.00  0.00    +0.000 OA
ATOM     37  O   UNL     1     107.499 125.925 142.166  0.00  0.00    +0.000 OA
ATOM     38  C   UNL     1     109.131 128.208 141.105  0.00  0.00    +0.000 C 
ATOM     39  C   UNL     1     108.703 128.276 142.006  0.00  0.00    +0.000 C 
ATOM     40  C   UNL     1     108.159 127.515 142.360  0.00  0.00    +0.000 C 
ATOM     41  C   UNL     1     108.043 126.686 141.812  0.00  0.00    +0.000 C 
ATOM     42  C   UNL     1     108.471 126.619 140.910  0.00  0.00    +0.000 C 
BRANCH  42  44
ATOM     43  O   UNL     1     108.568 125.803 139.386  0.00  0.00    +0.000 OA
ATOM     44  C   UNL     1     108.354 125.791 140.363  0.00  0.00    +0.000 C 
ENDBRANCH  42  44
ENDBRANCH  33  38
ENDBRANCH  26  33
ENDBRANCH   1  30
TORSDOF 7
ENDMDL
MODEL 10
REMARK VINA RESULT:      -9.1      2.352      5.192
REMARK  Name = 74978161
REMARK  7 active torsions:
REMARK  status: ('A' for Active; 'I' for Inactive)
REMARK    1  A    between atoms: O_1  and  C_18
REMARK    2  A    between atoms: O_1  and  C_21
REMARK    3  A    between atoms: O_6  and  C_26
REMARK    4  A    between atoms: O_6  and  C_30
REMARK    5  A    between atoms: C_22  and  C_28
REMARK    6  A    between atoms: C_27  and  C_29
REMARK    7  A    between atoms: C_31  and  C_34
REMARK                            x       y       z     vdW  Elec       q    Type
REMARK                         _______ _______ _______ _____ _____    ______ ____
ROOT
ATOM      1  O   UNL     1     110.853 130.059 140.832  0.00  0.00    +0.000 OA
ENDROOT
BRANCH   1   6
ATOM      2  O   UNL     1     111.281 129.475 143.377  0.00  0.00    +0.000 OA
ATOM      3  O   UNL     1     111.257 131.873 141.573  0.00  0.00    +0.000 OA
ATOM      4  O   UNL     1     111.672 132.924 142.908  0.00  0.00    +0.000 OA
ATOM      5  O   UNL     1     112.120 131.523 146.128  0.00  0.00    +0.000 OA
ATOM      6  C   UNL     1     111.063 130.167 141.804  0.00  0.00    +0.000 A 
ATOM      7  C   UNL     1     111.071 129.368 142.405  0.00  0.00    +0.000 A 
ATOM      8  C   UNL     1     111.265 131.073 142.174  0.00  0.00    +0.000 A 
ATOM      9  C   UNL     1     111.475 131.181 143.146  0.00  0.00    +0.000 A 
ATOM     10  C   UNL     1     111.483 130.382 143.747  0.00  0.00    +0.000 A 
ATOM     11  C   UNL     1     111.683 132.132 143.518  0.00  0.00    +0.000 A 
ATOM     12  C   UNL     1     111.700 130.478 144.762  0.00  0.00    +0.000 A 
ATOM     13  C   UNL     1     111.902 132.252 144.529  0.00  0.00    +0.000 A 
ATOM     14  C   UNL     1     111.911 131.419 145.156  0.00  0.00    +0.000 A 
BRANCH   7  17
ATOM     15  O   UNL     1     112.162 126.298 141.227  0.00  0.00    +0.000 OA
ATOM     16  O   UNL     1     110.265 125.741 140.922  0.00  0.00    +0.000 OA
ATOM     17  C   UNL     1     110.870 128.461 142.034  0.00  0.00    +0.000 A 
ATOM     18  C   UNL     1     111.617 127.833 141.816  0.00  0.00    +0.000 A 
ATOM     19  C   UNL     1     109.921 128.183 141.882  0.00  0.00    +0.000 A 
ATOM     20  C   UNL     1     111.415 126.926 141.445  0.00  0.00    +0.000 A 
ATOM     21  C   UNL     1     109.720 127.276 141.511  0.00  0.00    +0.000 A 
ATOM     22  C   UNL     1     110.467 126.648 141.293  0.00  0.00    +0.000 A 
ENDBRANCH   7  17
ENDBRANCH   1   6
BRANCH   1  30
ATOM     23  O   UNL     1     112.530 130.248 140.441  0.00  0.00    +0.000 OA
ATOM     24  O   UNL     1     113.751 130.463 138.104  0.00  0.00    +0.000 OA
ATOM     25  O   UNL     1     110.397 130.087 138.885  0.00  0.00    +0.000 OA
ATOM     26  C   UNL     1     112.074 130.275 138.494  0.00  0.00    +0.000 C 
ATOM     27  C   UNL     1     113.026 130.362 138.786  0.00  0.00    +0.000 C 
ATOM     28  C   UNL     1     111.349 130.174 139.176  0.00  0.00    +0.000 C 
ATOM     29  C   UNL     1     113.255 130.349 139.759  0.00  0.00    +0.000 C 
ATOM     30  C   UNL     1     111.578 130.160 140.150  0.00  0.00    +0.000 C 
BRANCH  29  32
ATOM     31  O   UNL     1     114.437 130.992 140.849  0.00  0.00    +0.000 OA
ATOM     32  C   UNL     1     114.207 130.436 140.051  0.00  0.00    +0.000 C 
ENDBRANCH  29  32
BRANCH  26  33
ATOM     33  O   UNL     1     111.845 130.289 137.521  0.00  0.00    +0.000 OA
BRANCH  33  38
ATOM     34  O   UNL     1     112.036 128.569 137.446  0.00  0.00    +0.000 OA
ATOM     35  O   UNL     1     111.182 130.297 135.634  0.00  0.00    +0.000 OA
ATOM     36  O   UNL     1     111.041 128.582 134.616  0.00  0.00    +0.000 OA
ATOM     37  O   UNL     1     111.563 126.858 135.484  0.00  0.00    +0.000 OA
ATOM     38  C   UNL     1     111.775 129.431 137.012  0.00  0.00    +0.000 C 
ATOM     39  C   UNL     1     111.443 129.435 136.068  0.00  0.00    +0.000 C 
ATOM     40  C   UNL     1     111.373 128.577 135.559  0.00  0.00    +0.000 C 
ATOM     41  C   UNL     1     111.633 127.715 135.993  0.00  0.00    +0.000 C 
ATOM     42  C   UNL     1     111.965 127.711 136.937  0.00  0.00    +0.000 C 
BRANCH  42  44
ATOM     43  O   UNL     1     112.923 126.841 138.088  0.00  0.00    +0.000 OA
ATOM     44  C   UNL     1     112.226 126.849 137.371  0.00  0.00    +0.000 C 
ENDBRANCH  42  44
ENDBRANCH  33  38
ENDBRANCH  26  33
ENDBRANCH   1  30
TORSDOF 7
ENDMDL
