MODEL 1
REMARK VINA RESULT:     -11.6      0.000      0.000
REMARK  Name = 44259264
REMARK  13 active torsions:
REMARK  status: ('A' for Active; 'I' for Inactive)
REMARK    1  A    between atoms: O_1  and  C_24
REMARK    2  A    between atoms: O_1  and  C_26
REMARK    3  A    between atoms: O_5  and  C_31
REMARK    4  A    between atoms: O_5  and  C_41
REMARK    5  A    between atoms: O_10  and  C_34
REMARK    6  A    between atoms: O_10  and  C_45
REMARK    7  A    between atoms: O_14  and  C_40
REMARK    8  A    between atoms: O_14  and  C_49
REMARK    9  A    between atoms: C_32  and  C_34
REMARK   10  A    between atoms: C_38  and  C_42
REMARK   11  A    between atoms: C_43  and  C_47
REMARK   12  A    between atoms: C_45  and  C_50
REMARK   13  A    between atoms: C_57  and  C_58
REMARK                            x       y       z     vdW  Elec       q    Type
REMARK                         _______ _______ _______ _____ _____    ______ ____
ROOT
ATOM      1  O   UNL     1     111.743 126.332 137.245  0.00  0.00    +0.000 OA
ATOM      2  O   UNL     1     113.428 125.384 138.259  0.00  0.00    +0.000 OA
ATOM      3  O   UNL     1     113.333 124.469 136.889  0.00  0.00    +0.000 OA
ATOM      4  O   UNL     1     112.179 124.796 135.757  0.00  0.00    +0.000 OA
ATOM      5  C   UNL     1     112.321 126.168 137.812  0.00  0.00    +0.000 C 
ATOM      6  C   UNL     1     112.851 125.547 137.693  0.00  0.00    +0.000 C 
ATOM      7  C   UNL     1     112.803 125.090 137.008  0.00  0.00    +0.000 C 
ATOM      8  C   UNL     1     112.226 125.253 136.442  0.00  0.00    +0.000 C 
ATOM      9  C   UNL     1     111.696 125.875 136.560  0.00  0.00    +0.000 C 
ENDROOT
BRANCH   5  10
ATOM     10  O   UNL     1     112.369 126.626 138.497  0.00  0.00    +0.000 OA
BRANCH  10  14
ATOM     11  O   UNL     1     111.532 128.637 138.631  0.00  0.00    +0.000 OA
ATOM     12  O   UNL     1     110.824 126.290 138.968  0.00  0.00    +0.000 OA
ATOM     13  O   UNL     1     109.751 127.519 139.215  0.00  0.00    +0.000 OA
ATOM     14  C   UNL     1     111.832 127.240 138.620  0.00  0.00    +0.000 C 
ATOM     15  C   UNL     1     111.060 127.072 138.856  0.00  0.00    +0.000 C 
ATOM     16  C   UNL     1     110.523 127.687 138.979  0.00  0.00    +0.000 C 
ATOM     17  C   UNL     1     112.068 128.022 138.508  0.00  0.00    +0.000 C 
ATOM     18  C   UNL     1     110.759 128.469 138.867  0.00  0.00    +0.000 C 
ATOM     19  C   UNL     1     110.223 129.084 138.990  0.00  0.00    +0.000 C 
BRANCH  17  20
ATOM     20  O   UNL     1     112.841 128.190 138.272  0.00  0.00    +0.000 OA
BRANCH  20  25
ATOM     21  O   UNL     1     113.975 130.045 138.463  0.00  0.00    +0.000 OA
ATOM     22  O   UNL     1     113.005 128.289 139.911  0.00  0.00    +0.000 OA
ATOM     23  O   UNL     1     113.486 128.959 141.095  0.00  0.00    +0.000 OA
ATOM     24  O   UNL     1     114.976 131.453 140.807  0.00  0.00    +0.000 OA
ATOM     25  C   UNL     1     113.247 128.825 138.609  0.00  0.00    +0.000 A 
ATOM     26  C   UNL     1     113.570 129.410 138.126  0.00  0.00    +0.000 A 
ATOM     27  C   UNL     1     113.328 128.874 139.428  0.00  0.00    +0.000 A 
ATOM     28  C   UNL     1     113.734 129.509 139.765  0.00  0.00    +0.000 A 
ATOM     29  C   UNL     1     114.057 130.095 139.282  0.00  0.00    +0.000 A 
ATOM     30  C   UNL     1     113.813 129.549 140.620  0.00  0.00    +0.000 A 
ATOM     31  C   UNL     1     114.481 130.761 139.621  0.00  0.00    +0.000 A 
ATOM     32  C   UNL     1     114.234 130.208 140.976  0.00  0.00    +0.000 A 
ATOM     33  C   UNL     1     114.570 130.817 140.473  0.00  0.00    +0.000 A 
BRANCH  26  36
ATOM     34  O   UNL     1     114.364 128.286 135.622  0.00  0.00    +0.000 OA
ATOM     35  O   UNL     1     113.241 129.215 134.848  0.00  0.00    +0.000 OA
ATOM     36  C   UNL     1     113.488 129.361 137.307  0.00  0.00    +0.000 A 
ATOM     37  C   UNL     1     113.967 128.848 136.874  0.00  0.00    +0.000 A 
ATOM     38  C   UNL     1     112.926 129.826 136.920  0.00  0.00    +0.000 A 
ATOM     39  C   UNL     1     113.885 128.799 136.054  0.00  0.00    +0.000 A 
ATOM     40  C   UNL     1     112.844 129.777 136.100  0.00  0.00    +0.000 A 
ATOM     41  C   UNL     1     113.324 129.263 135.667  0.00  0.00    +0.000 A 
ENDBRANCH  26  36
ENDBRANCH  20  25
ENDBRANCH  17  20
ENDBRANCH  10  14
ENDBRANCH   5  10
BRANCH   9  42
ATOM     42  C   UNL     1     111.119 126.038 135.995  0.00  0.00    +0.000 C 
BRANCH  42  43
ATOM     43  O   UNL     1     111.146 126.745 135.569  0.00  0.00    +0.000 OA
BRANCH  43  45
ATOM     44  O   UNL     1     110.101 126.567 134.612  0.00  0.00    +0.000 OA
ATOM     45  C   UNL     1     110.469 127.025 135.191  0.00  0.00    +0.000 C 
BRANCH  45  46
ATOM     46  C   UNL     1     110.160 127.764 135.390  0.00  0.00    +0.000 C 
ATOM     47  C   UNL     1     109.751 128.206 134.827  0.00  0.00    +0.000 C 
BRANCH  47  51
ATOM     48  C   UNL     1     108.824 130.422 135.423  0.00  0.00    +0.000 A 
ATOM     49  C   UNL     1     109.390 130.358 134.826  0.00  0.00    +0.000 A 
ATOM     50  C   UNL     1     108.567 129.747 135.822  0.00  0.00    +0.000 A 
ATOM     51  C   UNL     1     109.442 128.944 135.026  0.00  0.00    +0.000 A 
ATOM     52  C   UNL     1     109.699 129.619 134.628  0.00  0.00    +0.000 A 
ATOM     53  C   UNL     1     108.877 129.008 135.623  0.00  0.00    +0.000 A 
BRANCH  48  54
ATOM     54  O   UNL     1     108.516 131.161 135.621  0.00  0.00    +0.000 OA
BRANCH  54  63
ATOM     55  O   UNL     1     109.565 131.752 136.391  0.00  0.00    +0.000 OA
ATOM     56  O   UNL     1     109.538 132.691 138.361  0.00  0.00    +0.000 OA
ATOM     57  O   UNL     1     107.950 132.275 138.192  0.00  0.00    +0.000 OA
ATOM     58  O   UNL     1     107.439 131.510 136.822  0.00  0.00    +0.000 OA
ATOM     59  C   UNL     1     109.282 132.308 137.676  0.00  0.00    +0.000 C 
ATOM     60  C   UNL     1     108.489 132.100 137.591  0.00  0.00    +0.000 C 
ATOM     61  C   UNL     1     109.820 132.134 137.076  0.00  0.00    +0.000 C 
ATOM     62  C   UNL     1     108.233 131.718 136.907  0.00  0.00    +0.000 C 
ATOM     63  C   UNL     1     108.771 131.544 136.307  0.00  0.00    +0.000 C 
BRANCH  61  65
ATOM     64  O   UNL     1     110.917 132.992 136.751  0.00  0.00    +0.000 OA
ATOM     65  C   UNL     1     110.615 132.342 137.160  0.00  0.00    +0.000 C 
ENDBRANCH  61  65
ENDBRANCH  54  63
ENDBRANCH  48  54
ENDBRANCH  47  51
ENDBRANCH  45  46
ENDBRANCH  43  45
ENDBRANCH  42  43
ENDBRANCH   9  42
TORSDOF 13
ENDMDL
MODEL 2
REMARK VINA RESULT:     -11.1      1.595      5.027
REMARK  Name = 44259264
REMARK  13 active torsions:
REMARK  status: ('A' for Active; 'I' for Inactive)
REMARK    1  A    between atoms: O_1  and  C_24
REMARK    2  A    between atoms: O_1  and  C_26
REMARK    3  A    between atoms: O_5  and  C_31
REMARK    4  A    between atoms: O_5  and  C_41
REMARK    5  A    between atoms: O_10  and  C_34
REMARK    6  A    between atoms: O_10  and  C_45
REMARK    7  A    between atoms: O_14  and  C_40
REMARK    8  A    between atoms: O_14  and  C_49
REMARK    9  A    between atoms: C_32  and  C_34
REMARK   10  A    between atoms: C_38  and  C_42
REMARK   11  A    between atoms: C_43  and  C_47
REMARK   12  A    between atoms: C_45  and  C_50
REMARK   13  A    between atoms: C_57  and  C_58
REMARK                            x       y       z     vdW  Elec       q    Type
REMARK                         _______ _______ _______ _____ _____    ______ ____
ROOT
ATOM      1  O   UNL     1     110.702 126.373 137.008  0.00  0.00    +0.000 OA
ATOM      2  O   UNL     1     109.395 126.119 135.278  0.00  0.00    +0.000 OA
ATOM      3  O   UNL     1     110.501 124.924 135.012  0.00  0.00    +0.000 OA
ATOM      4  O   UNL     1     111.740 124.694 136.076  0.00  0.00    +0.000 OA
ATOM      5  C   UNL     1     110.081 126.488 136.475  0.00  0.00    +0.000 C 
ATOM      6  C   UNL     1     110.015 126.004 135.810  0.00  0.00    +0.000 C 
ATOM      7  C   UNL     1     110.568 125.406 135.677  0.00  0.00    +0.000 C 
ATOM      8  C   UNL     1     111.187 125.292 136.209  0.00  0.00    +0.000 C 
ATOM      9  C   UNL     1     111.255 125.775 136.875  0.00  0.00    +0.000 C 
ENDROOT
BRANCH   5  10
ATOM     10  O   UNL     1     109.529 127.085 136.608  0.00  0.00    +0.000 OA
BRANCH  10  14
ATOM     11  O   UNL     1     110.080 128.928 137.639  0.00  0.00    +0.000 OA
ATOM     12  O   UNL     1     109.167 126.690 138.169  0.00  0.00    +0.000 OA
ATOM     13  O   UNL     1     109.414 127.787 139.376  0.00  0.00    +0.000 OA
ATOM     14  C   UNL     1     109.652 127.634 137.213  0.00  0.00    +0.000 C 
ATOM     15  C   UNL     1     109.471 127.436 137.992  0.00  0.00    +0.000 C 
ATOM     16  C   UNL     1     109.595 127.984 138.597  0.00  0.00    +0.000 C 
ATOM     17  C   UNL     1     109.957 128.380 137.036  0.00  0.00    +0.000 C 
ATOM     18  C   UNL     1     109.899 128.731 138.420  0.00  0.00    +0.000 C 
ATOM     19  C   UNL     1     110.023 129.279 139.023  0.00  0.00    +0.000 C 
BRANCH  17  20
ATOM     20  O   UNL     1     110.138 128.578 136.255  0.00  0.00    +0.000 OA
BRANCH  20  25
ATOM     21  O   UNL     1     110.393 130.552 135.361  0.00  0.00    +0.000 OA
ATOM     22  O   UNL     1     108.595 129.157 136.334  0.00  0.00    +0.000 OA
ATOM     23  O   UNL     1     107.622 130.196 136.098  0.00  0.00    +0.000 OA
ATOM     24  O   UNL     1     108.484 132.692 134.853  0.00  0.00    +0.000 OA
ATOM     25  C   UNL     1     109.966 129.332 135.970  0.00  0.00    +0.000 A 
ATOM     26  C   UNL     1     110.565 129.797 135.646  0.00  0.00    +0.000 A 
ATOM     27  C   UNL     1     109.194 129.622 136.010  0.00  0.00    +0.000 A 
ATOM     28  C   UNL     1     109.022 130.377 135.725  0.00  0.00    +0.000 A 
ATOM     29  C   UNL     1     109.622 130.842 135.400  0.00  0.00    +0.000 A 
ATOM     30  C   UNL     1     108.214 130.668 135.772  0.00  0.00    +0.000 A 
ATOM     31  C   UNL     1     109.455 131.630 135.100  0.00  0.00    +0.000 A 
ATOM     32  C   UNL     1     108.029 131.453 135.477  0.00  0.00    +0.000 A 
ATOM     33  C   UNL     1     108.654 131.937 135.139  0.00  0.00    +0.000 A 
BRANCH  26  36
ATOM     34  O   UNL     1     113.222 129.681 136.692  0.00  0.00    +0.000 OA
ATOM     35  O   UNL     1     113.650 128.637 135.487  0.00  0.00    +0.000 OA
ATOM     36  C   UNL     1     111.336 129.507 135.607  0.00  0.00    +0.000 A 
ATOM     37  C   UNL     1     111.893 129.739 136.169  0.00  0.00    +0.000 A 
ATOM     38  C   UNL     1     111.550 128.986 135.004  0.00  0.00    +0.000 A 
ATOM     39  C   UNL     1     112.665 129.449 136.130  0.00  0.00    +0.000 A 
ATOM     40  C   UNL     1     112.322 128.695 134.965  0.00  0.00    +0.000 A 
ATOM     41  C   UNL     1     112.879 128.928 135.528  0.00  0.00    +0.000 A 
ENDBRANCH  26  36
ENDBRANCH  20  25
ENDBRANCH  17  20
ENDBRANCH  10  14
ENDBRANCH   5  10
BRANCH   9  42
ATOM     42  C   UNL     1     111.874 125.661 137.407  0.00  0.00    +0.000 C 
BRANCH  42  43
ATOM     43  O   UNL     1     112.425 126.261 137.535  0.00  0.00    +0.000 OA
BRANCH  43  45
ATOM     44  O   UNL     1     113.471 125.583 138.231  0.00  0.00    +0.000 OA
ATOM     45  C   UNL     1     112.945 126.215 138.173  0.00  0.00    +0.000 C 
BRANCH  45  46
ATOM     46  C   UNL     1     112.940 126.802 138.753  0.00  0.00    +0.000 C 
ATOM     47  C   UNL     1     113.637 126.999 139.147  0.00  0.00    +0.000 C 
BRANCH  47  51
ATOM     48  C   UNL     1     113.621 128.759 140.887  0.00  0.00    +0.000 A 
ATOM     49  C   UNL     1     113.447 128.952 140.104  0.00  0.00    +0.000 A 
ATOM     50  C   UNL     1     113.801 127.980 141.091  0.00  0.00    +0.000 A 
ATOM     51  C   UNL     1     113.632 127.586 139.728  0.00  0.00    +0.000 A 
ATOM     52  C   UNL     1     113.452 128.365 139.524  0.00  0.00    +0.000 A 
ATOM     53  C   UNL     1     113.806 127.394 140.510  0.00  0.00    +0.000 A 
BRANCH  48  54
ATOM     54  O   UNL     1     113.616 129.346 141.467  0.00  0.00    +0.000 OA
BRANCH  54  63
ATOM     55  O   UNL     1     112.323 129.090 142.017  0.00  0.00    +0.000 OA
ATOM     56  O   UNL     1     110.746 130.456 142.660  0.00  0.00    +0.000 OA
ATOM     57  O   UNL     1     111.898 131.524 142.155  0.00  0.00    +0.000 OA
ATOM     58  O   UNL     1     113.333 130.969 141.558  0.00  0.00    +0.000 OA
ATOM     59  C   UNL     1     111.464 130.179 142.361  0.00  0.00    +0.000 C 
ATOM     60  C   UNL     1     112.040 130.713 142.109  0.00  0.00    +0.000 C 
ATOM     61  C   UNL     1     111.605 129.368 142.315  0.00  0.00    +0.000 C 
ATOM     62  C   UNL     1     112.757 130.436 141.811  0.00  0.00    +0.000 C 
ATOM     63  C   UNL     1     112.898 129.624 141.765  0.00  0.00    +0.000 C 
BRANCH  61  65
ATOM     64  O   UNL     1     111.203 128.290 143.163  0.00  0.00    +0.000 OA
ATOM     65  C   UNL     1     111.029 128.833 142.568  0.00  0.00    +0.000 C 
ENDBRANCH  61  65
ENDBRANCH  54  63
ENDBRANCH  48  54
ENDBRANCH  47  51
ENDBRANCH  45  46
ENDBRANCH  43  45
ENDBRANCH  42  43
ENDBRANCH   9  42
TORSDOF 13
ENDMDL
MODEL 3
REMARK VINA RESULT:     -11.0      0.999      2.571
REMARK  Name = 44259264
REMARK  13 active torsions:
REMARK  status: ('A' for Active; 'I' for Inactive)
REMARK    1  A    between atoms: O_1  and  C_24
REMARK    2  A    between atoms: O_1  and  C_26
REMARK    3  A    between atoms: O_5  and  C_31
REMARK    4  A    between atoms: O_5  and  C_41
REMARK    5  A    between atoms: O_10  and  C_34
REMARK    6  A    between atoms: O_10  and  C_45
REMARK    7  A    between atoms: O_14  and  C_40
REMARK    8  A    between atoms: O_14  and  C_49
REMARK    9  A    between atoms: C_32  and  C_34
REMARK   10  A    between atoms: C_38  and  C_42
REMARK   11  A    between atoms: C_43  and  C_47
REMARK   12  A    between atoms: C_45  and  C_50
REMARK   13  A    between atoms: C_57  and  C_58
REMARK                            x       y       z     vdW  Elec       q    Type
REMARK                         _______ _______ _______ _____ _____    ______ ____
ROOT
ATOM      1  O   UNL     1     112.620 126.268 136.740  0.00  0.00    +0.000 OA
ATOM      2  O   UNL     1     114.048 125.321 138.092  0.00  0.00    +0.000 OA
ATOM      3  O   UNL     1     113.415 124.001 137.331  0.00  0.00    +0.000 OA
ATOM      4  O   UNL     1     112.253 124.192 136.176  0.00  0.00    +0.000 OA
ATOM      5  C   UNL     1     113.202 126.173 137.318  0.00  0.00    +0.000 C 
ATOM      6  C   UNL     1     113.466 125.416 137.514  0.00  0.00    +0.000 C 
ATOM      7  C   UNL     1     113.150 124.756 137.134  0.00  0.00    +0.000 C 
ATOM      8  C   UNL     1     112.569 124.852 136.557  0.00  0.00    +0.000 C 
ATOM      9  C   UNL     1     112.304 125.608 136.359  0.00  0.00    +0.000 C 
ENDROOT
BRANCH   5  10
ATOM     10  O   UNL     1     113.518 126.833 137.698  0.00  0.00    +0.000 OA
BRANCH  10  14
ATOM     11  O   UNL     1     112.454 128.734 137.831  0.00  0.00    +0.000 OA
ATOM     12  O   UNL     1     114.003 127.560 136.299  0.00  0.00    +0.000 OA
ATOM     13  O   UNL     1     113.456 129.070 135.921  0.00  0.00    +0.000 OA
ATOM     14  C   UNL     1     113.244 127.588 137.509  0.00  0.00    +0.000 C 
ATOM     15  C   UNL     1     113.487 127.951 136.810  0.00  0.00    +0.000 C 
ATOM     16  C   UNL     1     113.213 128.707 136.620  0.00  0.00    +0.000 C 
ATOM     17  C   UNL     1     112.728 127.979 138.019  0.00  0.00    +0.000 C 
ATOM     18  C   UNL     1     112.697 129.098 137.131  0.00  0.00    +0.000 C 
ATOM     19  C   UNL     1     112.423 129.853 136.943  0.00  0.00    +0.000 C 
BRANCH  17  20
ATOM     20  O   UNL     1     112.485 127.615 138.720  0.00  0.00    +0.000 OA
BRANCH  20  25
ATOM     21  O   UNL     1     111.610 128.493 140.515  0.00  0.00    +0.000 OA
ATOM     22  O   UNL     1     113.744 128.532 139.265  0.00  0.00    +0.000 OA
ATOM     23  O   UNL     1     114.322 129.444 140.222  0.00  0.00    +0.000 OA
ATOM     24  O   UNL     1     112.708 130.334 142.486  0.00  0.00    +0.000 OA
ATOM     25  C   UNL     1     112.403 128.061 139.409  0.00  0.00    +0.000 A 
ATOM     26  C   UNL     1     111.692 128.048 139.826  0.00  0.00    +0.000 A 
ATOM     27  C   UNL     1     113.033 128.519 139.681  0.00  0.00    +0.000 A 
ATOM     28  C   UNL     1     112.951 128.964 140.371  0.00  0.00    +0.000 A 
ATOM     29  C   UNL     1     112.239 128.951 140.788  0.00  0.00    +0.000 A 
ATOM     30  C   UNL     1     113.614 129.438 140.645  0.00  0.00    +0.000 A 
ATOM     31  C   UNL     1     112.141 129.411 141.508  0.00  0.00    +0.000 A 
ATOM     32  C   UNL     1     113.534 129.904 141.363  0.00  0.00    +0.000 A 
ATOM     33  C   UNL     1     112.793 129.890 141.796  0.00  0.00    +0.000 A 
BRANCH  26  36
ATOM     34  O   UNL     1     110.411 125.506 139.563  0.00  0.00    +0.000 OA
ATOM     35  O   UNL     1     109.172 126.216 138.736  0.00  0.00    +0.000 OA
ATOM     36  C   UNL     1     111.062 127.590 139.554  0.00  0.00    +0.000 A 
ATOM     37  C   UNL     1     111.051 126.777 139.694  0.00  0.00    +0.000 A 
ATOM     38  C   UNL     1     110.443 127.945 139.140  0.00  0.00    +0.000 A 
ATOM     39  C   UNL     1     110.422 126.318 139.422  0.00  0.00    +0.000 A 
ATOM     40  C   UNL     1     109.813 127.487 138.867  0.00  0.00    +0.000 A 
ATOM     41  C   UNL     1     109.802 126.673 139.009  0.00  0.00    +0.000 A 
ENDBRANCH  26  36
ENDBRANCH  20  25
ENDBRANCH  17  20
ENDBRANCH  10  14
ENDBRANCH   5  10
BRANCH   9  42
ATOM     42  C   UNL     1     111.723 125.704 135.782  0.00  0.00    +0.000 C 
BRANCH  42  43
ATOM     43  O   UNL     1     111.010 126.075 135.970  0.00  0.00    +0.000 OA
BRANCH  43  45
ATOM     44  O   UNL     1     110.263 125.859 134.773  0.00  0.00    +0.000 OA
ATOM     45  C   UNL     1     110.524 126.364 135.371  0.00  0.00    +0.000 C 
BRANCH  45  46
ATOM     46  C   UNL     1     110.297 127.157 135.368  0.00  0.00    +0.000 C 
ATOM     47  C   UNL     1     109.498 127.359 135.391  0.00  0.00    +0.000 C 
BRANCH  47  51
ATOM     48  C   UNL     1     108.818 129.739 135.383  0.00  0.00    +0.000 A 
ATOM     49  C   UNL     1     108.360 129.180 135.783  0.00  0.00    +0.000 A 
ATOM     50  C   UNL     1     109.503 129.504 134.987  0.00  0.00    +0.000 A 
ATOM     51  C   UNL     1     109.272 128.152 135.388  0.00  0.00    +0.000 A 
ATOM     52  C   UNL     1     108.588 128.387 135.785  0.00  0.00    +0.000 A 
ATOM     53  C   UNL     1     109.729 128.711 134.990  0.00  0.00    +0.000 A 
BRANCH  48  54
ATOM     54  O   UNL     1     108.591 130.532 135.381  0.00  0.00    +0.000 OA
BRANCH  54  63
ATOM     55  O   UNL     1     108.851 130.833 136.753  0.00  0.00    +0.000 OA
ATOM     56  O   UNL     1     109.760 132.587 137.684  0.00  0.00    +0.000 OA
ATOM     57  O   UNL     1     109.823 133.011 136.090  0.00  0.00    +0.000 OA
ATOM     58  O   UNL     1     109.239 131.983 134.939  0.00  0.00    +0.000 OA
ATOM     59  C   UNL     1     109.468 132.073 137.107  0.00  0.00    +0.000 C 
ATOM     60  C   UNL     1     109.499 132.285 136.311  0.00  0.00    +0.000 C 
ATOM     61  C   UNL     1     109.144 131.347 137.328  0.00  0.00    +0.000 C 
ATOM     62  C   UNL     1     109.207 131.772 135.736  0.00  0.00    +0.000 C 
ATOM     63  C   UNL     1     108.883 131.046 135.957  0.00  0.00    +0.000 C 
BRANCH  61  65
ATOM     64  O   UNL     1     108.382 131.027 138.495  0.00  0.00    +0.000 OA
ATOM     65  C   UNL     1     109.112 131.135 138.126  0.00  0.00    +0.000 C 
ENDBRANCH  61  65
ENDBRANCH  54  63
ENDBRANCH  48  54
ENDBRANCH  47  51
ENDBRANCH  45  46
ENDBRANCH  43  45
ENDBRANCH  42  43
ENDBRANCH   9  42
TORSDOF 13
ENDMDL
MODEL 4
REMARK VINA RESULT:     -11.0      1.349      5.384
REMARK  Name = 44259264
REMARK  13 active torsions:
REMARK  status: ('A' for Active; 'I' for Inactive)
REMARK    1  A    between atoms: O_1  and  C_24
REMARK    2  A    between atoms: O_1  and  C_26
REMARK    3  A    between atoms: O_5  and  C_31
REMARK    4  A    between atoms: O_5  and  C_41
REMARK    5  A    between atoms: O_10  and  C_34
REMARK    6  A    between atoms: O_10  and  C_45
REMARK    7  A    between atoms: O_14  and  C_40
REMARK    8  A    between atoms: O_14  and  C_49
REMARK    9  A    between atoms: C_32  and  C_34
REMARK   10  A    between atoms: C_38  and  C_42
REMARK   11  A    between atoms: C_43  and  C_47
REMARK   12  A    between atoms: C_45  and  C_50
REMARK   13  A    between atoms: C_57  and  C_58
REMARK                            x       y       z     vdW  Elec       q    Type
REMARK                         _______ _______ _______ _____ _____    ______ ____
ROOT
ATOM      1  O   UNL     1     109.706 129.973 136.351  0.00  0.00    +0.000 OA
ATOM      2  O   UNL     1     109.862 132.147 136.252  0.00  0.00    +0.000 OA
ATOM      3  O   UNL     1     108.258 131.934 135.930  0.00  0.00    +0.000 OA
ATOM      4  O   UNL     1     107.619 130.414 135.888  0.00  0.00    +0.000 OA
ATOM      5  C   UNL     1     110.025 130.734 136.372  0.00  0.00    +0.000 C 
ATOM      6  C   UNL     1     109.542 131.387 136.231  0.00  0.00    +0.000 C 
ATOM      7  C   UNL     1     108.740 131.280 136.070  0.00  0.00    +0.000 C 
ATOM      8  C   UNL     1     108.421 130.521 136.049  0.00  0.00    +0.000 C 
ATOM      9  C   UNL     1     108.904 129.866 136.190  0.00  0.00    +0.000 C 
ENDROOT
BRANCH   5  10
ATOM     10  O   UNL     1     110.828 130.840 136.533  0.00  0.00    +0.000 OA
BRANCH  10  14
ATOM     11  O   UNL     1     112.203 129.208 136.990  0.00  0.00    +0.000 OA
ATOM     12  O   UNL     1     111.241 130.345 135.014  0.00  0.00    +0.000 OA
ATOM     13  O   UNL     1     112.295 129.093 134.813  0.00  0.00    +0.000 OA
ATOM     14  C   UNL     1     111.355 130.214 136.431  0.00  0.00    +0.000 C 
ATOM     15  C   UNL     1     111.561 129.966 135.673  0.00  0.00    +0.000 C 
ATOM     16  C   UNL     1     112.089 129.340 135.571  0.00  0.00    +0.000 C 
ATOM     17  C   UNL     1     111.676 129.835 137.090  0.00  0.00    +0.000 C 
ATOM     18  C   UNL     1     112.410 128.961 136.230  0.00  0.00    +0.000 C 
ATOM     19  C   UNL     1     112.937 128.334 136.130  0.00  0.00    +0.000 C 
BRANCH  17  20
ATOM     20  O   UNL     1     111.469 130.082 137.850  0.00  0.00    +0.000 OA
BRANCH  20  25
ATOM     21  O   UNL     1     112.409 129.693 139.781  0.00  0.00    +0.000 OA
ATOM     22  O   UNL     1     112.950 130.771 137.620  0.00  0.00    +0.000 OA
ATOM     23  O   UNL     1     114.270 131.117 138.090  0.00  0.00    +0.000 OA
ATOM     24  O   UNL     1     115.057 130.357 140.797  0.00  0.00    +0.000 OA
ATOM     25  C   UNL     1     112.029 130.067 138.456  0.00  0.00    +0.000 A 
ATOM     26  C   UNL     1     111.849 129.708 139.176  0.00  0.00    +0.000 A 
ATOM     27  C   UNL     1     112.770 130.412 138.340  0.00  0.00    +0.000 A 
ATOM     28  C   UNL     1     113.330 130.397 138.945  0.00  0.00    +0.000 A 
ATOM     29  C   UNL     1     113.150 130.038 139.666  0.00  0.00    +0.000 A 
ATOM     30  C   UNL     1     114.099 130.760 138.814  0.00  0.00    +0.000 A 
ATOM     31  C   UNL     1     113.725 130.016 140.304  0.00  0.00    +0.000 A 
ATOM     32  C   UNL     1     114.686 130.748 139.441  0.00  0.00    +0.000 A 
ATOM     33  C   UNL     1     114.498 130.373 140.190  0.00  0.00    +0.000 A 
BRANCH  26  36
ATOM     34  O   UNL     1     109.085 129.951 139.861  0.00  0.00    +0.000 OA
ATOM     35  O   UNL     1     108.887 128.329 139.636  0.00  0.00    +0.000 OA
ATOM     36  C   UNL     1     111.109 129.364 139.291  0.00  0.00    +0.000 A 
ATOM     37  C   UNL     1     110.467 129.830 139.518  0.00  0.00    +0.000 A 
ATOM     38  C   UNL     1     111.010 128.553 139.178  0.00  0.00    +0.000 A 
ATOM     39  C   UNL     1     109.726 129.485 139.634  0.00  0.00    +0.000 A 
ATOM     40  C   UNL     1     110.269 128.207 139.293  0.00  0.00    +0.000 A 
ATOM     41  C   UNL     1     109.627 128.674 139.521  0.00  0.00    +0.000 A 
ENDBRANCH  26  36
ENDBRANCH  20  25
ENDBRANCH  17  20
ENDBRANCH  10  14
ENDBRANCH   5  10
BRANCH   9  42
ATOM     42  C   UNL     1     108.585 129.106 136.169  0.00  0.00    +0.000 C 
BRANCH  42  43
ATOM     43  O   UNL     1     108.976 128.505 135.760  0.00  0.00    +0.000 OA
BRANCH  43  45
ATOM     44  O   UNL     1     108.002 127.462 135.705  0.00  0.00    +0.000 OA
ATOM     45  C   UNL     1     108.766 127.718 135.883  0.00  0.00    +0.000 C 
BRANCH  45  46
ATOM     46  C   UNL     1     109.319 127.184 136.184  0.00  0.00    +0.000 C 
ATOM     47  C   UNL     1     109.594 126.565 135.714  0.00  0.00    +0.000 C 
BRANCH  47  51
ATOM     48  C   UNL     1     111.252 124.966 136.619  0.00  0.00    +0.000 A 
ATOM     49  C   UNL     1     110.700 125.316 137.122  0.00  0.00    +0.000 A 
ATOM     50  C   UNL     1     111.252 125.149 135.814  0.00  0.00    +0.000 A 
ATOM     51  C   UNL     1     110.147 126.032 136.015  0.00  0.00    +0.000 A 
ATOM     52  C   UNL     1     110.147 125.849 136.820  0.00  0.00    +0.000 A 
ATOM     53  C   UNL     1     110.699 125.682 135.513  0.00  0.00    +0.000 A 
BRANCH  48  54
ATOM     54  O   UNL     1     111.805 124.433 136.921  0.00  0.00    +0.000 OA
BRANCH  54  63
ATOM     55  O   UNL     1     112.549 125.281 137.798  0.00  0.00    +0.000 OA
ATOM     56  O   UNL     1     114.702 125.531 138.057  0.00  0.00    +0.000 OA
ATOM     57  O   UNL     1     114.662 124.385 136.871  0.00  0.00    +0.000 OA
ATOM     58  O   UNL     1     113.213 123.836 136.303  0.00  0.00    +0.000 OA
ATOM     59  C   UNL     1     113.978 125.256 137.773  0.00  0.00    +0.000 C 
ATOM     60  C   UNL     1     113.958 124.684 137.180  0.00  0.00    +0.000 C 
ATOM     61  C   UNL     1     113.274 125.555 138.082  0.00  0.00    +0.000 C 
ATOM     62  C   UNL     1     113.234 124.409 136.896  0.00  0.00    +0.000 C 
ATOM     63  C   UNL     1     112.530 124.708 137.205  0.00  0.00    +0.000 C 
BRANCH  61  65
ATOM     64  O   UNL     1     112.941 125.979 139.406  0.00  0.00    +0.000 OA
ATOM     65  C   UNL     1     113.293 126.129 138.675  0.00  0.00    +0.000 C 
ENDBRANCH  61  65
ENDBRANCH  54  63
ENDBRANCH  48  54
ENDBRANCH  47  51
ENDBRANCH  45  46
ENDBRANCH  43  45
ENDBRANCH  42  43
ENDBRANCH   9  42
TORSDOF 13
ENDMDL
MODEL 5
REMARK VINA RESULT:     -10.9      1.713      3.913
REMARK  Name = 44259264
REMARK  13 active torsions:
REMARK  status: ('A' for Active; 'I' for Inactive)
REMARK    1  A    between atoms: O_1  and  C_24
REMARK    2  A    between atoms: O_1  and  C_26
REMARK    3  A    between atoms: O_5  and  C_31
REMARK    4  A    between atoms: O_5  and  C_41
REMARK    5  A    between atoms: O_10  and  C_34
REMARK    6  A    between atoms: O_10  and  C_45
REMARK    7  A    between atoms: O_14  and  C_40
REMARK    8  A    between atoms: O_14  and  C_49
REMARK    9  A    between atoms: C_32  and  C_34
REMARK   10  A    between atoms: C_38  and  C_42
REMARK   11  A    between atoms: C_43  and  C_47
REMARK   12  A    between atoms: C_45  and  C_50
REMARK   13  A    between atoms: C_57  and  C_58
REMARK                            x       y       z     vdW  Elec       q    Type
REMARK                         _______ _______ _______ _____ _____    ______ ____
ROOT
ATOM      1  O   UNL     1     112.004 125.897 136.868  0.00  0.00    +0.000 OA
ATOM      2  O   UNL     1     111.532 123.869 137.523  0.00  0.00    +0.000 OA
ATOM      3  O   UNL     1     113.053 123.656 136.919  0.00  0.00    +0.000 OA
ATOM      4  O   UNL     1     113.874 124.937 136.281  0.00  0.00    +0.000 OA
ATOM      5  C   UNL     1     111.593 125.256 137.187  0.00  0.00    +0.000 C 
ATOM      6  C   UNL     1     111.943 124.509 137.204  0.00  0.00    +0.000 C 
ATOM      7  C   UNL     1     112.704 124.403 136.902  0.00  0.00    +0.000 C 
ATOM      8  C   UNL     1     113.114 125.043 136.583  0.00  0.00    +0.000 C 
ATOM      9  C   UNL     1     112.764 125.790 136.566  0.00  0.00    +0.000 C 
ENDROOT
BRANCH   5  10
ATOM     10  O   UNL     1     110.833 125.362 137.489  0.00  0.00    +0.000 OA
BRANCH  10  14
ATOM     11  O   UNL     1     110.076 127.314 138.108  0.00  0.00    +0.000 OA
ATOM     12  O   UNL     1     110.213 125.921 136.066  0.00  0.00    +0.000 OA
ATOM     13  O   UNL     1     109.502 127.409 136.004  0.00  0.00    +0.000 OA
ATOM     14  C   UNL     1     110.477 126.106 137.458  0.00  0.00    +0.000 C 
ATOM     15  C   UNL     1     110.167 126.386 136.747  0.00  0.00    +0.000 C 
ATOM     16  C   UNL     1     109.812 127.130 136.715  0.00  0.00    +0.000 C 
ATOM     17  C   UNL     1     110.432 126.570 138.138  0.00  0.00    +0.000 C 
ATOM     18  C   UNL     1     109.766 127.594 137.395  0.00  0.00    +0.000 C 
ATOM     19  C   UNL     1     109.411 128.338 137.365  0.00  0.00    +0.000 C 
BRANCH  17  20
ATOM     20  O   UNL     1     110.742 126.291 138.850  0.00  0.00    +0.000 OA
BRANCH  20  25
ATOM     21  O   UNL     1     110.287 126.892 140.898  0.00  0.00    +0.000 OA
ATOM     22  O   UNL     1     109.173 125.794 138.980  0.00  0.00    +0.000 OA
ATOM     23  O   UNL     1     107.952 125.650 139.735  0.00  0.00    +0.000 OA
ATOM     24  O   UNL     1     107.856 126.636 142.481  0.00  0.00    +0.000 OA
ATOM     25  C   UNL     1     110.329 126.409 139.555  0.00  0.00    +0.000 A 
ATOM     26  C   UNL     1     110.700 126.774 140.194  0.00  0.00    +0.000 A 
ATOM     27  C   UNL     1     109.544 126.160 139.619  0.00  0.00    +0.000 A 
ATOM     28  C   UNL     1     109.131 126.278 140.324  0.00  0.00    +0.000 A 
ATOM     29  C   UNL     1     109.503 126.644 140.964  0.00  0.00    +0.000 A 
ATOM     30  C   UNL     1     108.315 126.015 140.379  0.00  0.00    +0.000 A 
ATOM     31  C   UNL     1     109.083 126.773 141.702  0.00  0.00    +0.000 A 
ATOM     32  C   UNL     1     107.880 126.135 141.110  0.00  0.00    +0.000 A 
ATOM     33  C   UNL     1     108.267 126.516 141.776  0.00  0.00    +0.000 A 
BRANCH  26  36
ATOM     34  O   UNL     1     112.614 128.873 139.882  0.00  0.00    +0.000 OA
ATOM     35  O   UNL     1     113.837 127.766 139.934  0.00  0.00    +0.000 OA
ATOM     36  C   UNL     1     111.483 127.022 140.129  0.00  0.00    +0.000 A 
ATOM     37  C   UNL     1     111.657 127.824 140.038  0.00  0.00    +0.000 A 
ATOM     38  C   UNL     1     112.094 126.469 140.155  0.00  0.00    +0.000 A 
ATOM     39  C   UNL     1     112.441 128.073 139.973  0.00  0.00    +0.000 A 
ATOM     40  C   UNL     1     112.879 126.717 140.090  0.00  0.00    +0.000 A 
ATOM     41  C   UNL     1     113.052 127.519 139.999  0.00  0.00    +0.000 A 
ENDBRANCH  26  36
ENDBRANCH  20  25
ENDBRANCH  17  20
ENDBRANCH  10  14
ENDBRANCH   5  10
BRANCH   9  42
ATOM     42  C   UNL     1     113.174 126.431 136.247  0.00  0.00    +0.000 C 
BRANCH  42  43
ATOM     43  O   UNL     1     113.311 127.103 136.705  0.00  0.00    +0.000 OA
BRANCH  43  45
ATOM     44  O   UNL     1     114.242 127.810 135.884  0.00  0.00    +0.000 OA
ATOM     45  C   UNL     1     113.559 127.803 136.347  0.00  0.00    +0.000 C 
BRANCH  45  46
ATOM     46  C   UNL     1     113.125 128.497 136.451  0.00  0.00    +0.000 C 
ATOM     47  C   UNL     1     113.510 129.202 136.633  0.00  0.00    +0.000 C 
BRANCH  47  51
ATOM     48  C   UNL     1     112.208 131.284 136.946  0.00  0.00    +0.000 A 
ATOM     49  C   UNL     1     112.929 131.186 137.335  0.00  0.00    +0.000 A 
ATOM     50  C   UNL     1     111.921 130.688 136.452  0.00  0.00    +0.000 A 
ATOM     51  C   UNL     1     113.076 129.896 136.737  0.00  0.00    +0.000 A 
ATOM     52  C   UNL     1     113.363 130.492 137.230  0.00  0.00    +0.000 A 
ATOM     53  C   UNL     1     112.355 129.994 136.348  0.00  0.00    +0.000 A 
BRANCH  48  54
ATOM     54  O   UNL     1     111.774 131.978 137.050  0.00  0.00    +0.000 OA
BRANCH  54  63
ATOM     55  O   UNL     1     111.052 131.647 138.238  0.00  0.00    +0.000 OA
ATOM     56  O   UNL     1     108.947 131.912 138.751  0.00  0.00    +0.000 OA
ATOM     57  O   UNL     1     108.978 132.541 137.225  0.00  0.00    +0.000 OA
ATOM     58  O   UNL     1     110.392 132.573 136.375  0.00  0.00    +0.000 OA
ATOM     59  C   UNL     1     109.654 131.929 138.325  0.00  0.00    +0.000 C 
ATOM     60  C   UNL     1     109.669 132.243 137.563  0.00  0.00    +0.000 C 
ATOM     61  C   UNL     1     110.345 131.631 138.663  0.00  0.00    +0.000 C 
ATOM     62  C   UNL     1     110.376 132.259 137.138  0.00  0.00    +0.000 C 
ATOM     63  C   UNL     1     111.067 131.962 137.476  0.00  0.00    +0.000 C 
BRANCH  61  65
ATOM     64  O   UNL     1     110.820 131.630 140.011  0.00  0.00    +0.000 OA
ATOM     65  C   UNL     1     110.330 131.317 139.426  0.00  0.00    +0.000 C 
ENDBRANCH  61  65
ENDBRANCH  54  63
ENDBRANCH  48  54
ENDBRANCH  47  51
ENDBRANCH  45  46
ENDBRANCH  43  45
ENDBRANCH  42  43
ENDBRANCH   9  42
TORSDOF 13
ENDMDL
MODEL 6
REMARK VINA RESULT:     -10.7      1.515      5.209
REMARK  Name = 44259264
REMARK  13 active torsions:
REMARK  status: ('A' for Active; 'I' for Inactive)
REMARK    1  A    between atoms: O_1  and  C_24
REMARK    2  A    between atoms: O_1  and  C_26
REMARK    3  A    between atoms: O_5  and  C_31
REMARK    4  A    between atoms: O_5  and  C_41
REMARK    5  A    between atoms: O_10  and  C_34
REMARK    6  A    between atoms: O_10  and  C_45
REMARK    7  A    between atoms: O_14  and  C_40
REMARK    8  A    between atoms: O_14  and  C_49
REMARK    9  A    between atoms: C_32  and  C_34
REMARK   10  A    between atoms: C_38  and  C_42
REMARK   11  A    between atoms: C_43  and  C_47
REMARK   12  A    between atoms: C_45  and  C_50
REMARK   13  A    between atoms: C_57  and  C_58
REMARK                            x       y       z     vdW  Elec       q    Type
REMARK                         _______ _______ _______ _____ _____    ______ ____
ROOT
ATOM      1  O   UNL     1     109.476 128.619 137.105  0.00  0.00    +0.000 OA
ATOM      2  O   UNL     1     109.218 127.924 135.052  0.00  0.00    +0.000 OA
ATOM      3  O   UNL     1     108.576 129.440 134.951  0.00  0.00    +0.000 OA
ATOM      4  O   UNL     1     108.533 130.409 136.285  0.00  0.00    +0.000 OA
ATOM      5  C   UNL     1     109.497 128.134 136.437  0.00  0.00    +0.000 C 
ATOM      6  C   UNL     1     109.197 128.408 135.719  0.00  0.00    +0.000 C 
ATOM      7  C   UNL     1     108.876 129.167 135.669  0.00  0.00    +0.000 C 
ATOM      8  C   UNL     1     108.855 129.651 136.336  0.00  0.00    +0.000 C 
ATOM      9  C   UNL     1     109.154 129.377 137.054  0.00  0.00    +0.000 C 
ENDROOT
BRANCH   5  10
ATOM     10  O   UNL     1     109.818 127.376 136.488  0.00  0.00    +0.000 OA
BRANCH  10  14
ATOM     11  O   UNL     1     111.126 126.796 138.136  0.00  0.00    +0.000 OA
ATOM     12  O   UNL     1     108.718 126.780 137.564  0.00  0.00    +0.000 OA
ATOM     13  O   UNL     1     109.223 126.195 139.022  0.00  0.00    +0.000 OA
ATOM     14  C   UNL     1     110.070 127.083 137.217  0.00  0.00    +0.000 C 
ATOM     15  C   UNL     1     109.521 126.786 137.755  0.00  0.00    +0.000 C 
ATOM     16  C   UNL     1     109.773 126.493 138.484  0.00  0.00    +0.000 C 
ATOM     17  C   UNL     1     110.873 127.088 137.407  0.00  0.00    +0.000 C 
ATOM     18  C   UNL     1     110.575 126.498 138.674  0.00  0.00    +0.000 C 
ATOM     19  C   UNL     1     110.829 126.206 139.403  0.00  0.00    +0.000 C 
BRANCH  17  20
ATOM     20  O   UNL     1     111.423 127.386 136.869  0.00  0.00    +0.000 OA
BRANCH  20  25
ATOM     21  O   UNL     1     113.587 127.120 136.784  0.00  0.00    +0.000 OA
ATOM     22  O   UNL     1     111.527 125.764 136.585  0.00  0.00    +0.000 OA
ATOM     23  O   UNL     1     112.302 124.567 136.363  0.00  0.00    +0.000 OA
ATOM     24  O   UNL     1     115.216 124.747 136.341  0.00  0.00    +0.000 OA
ATOM     25  C   UNL     1     112.162 127.027 136.793  0.00  0.00    +0.000 A 
ATOM     26  C   UNL     1     112.848 127.479 136.859  0.00  0.00    +0.000 A 
ATOM     27  C   UNL     1     112.214 126.216 136.651  0.00  0.00    +0.000 A 
ATOM     28  C   UNL     1     112.953 125.857 136.575  0.00  0.00    +0.000 A 
ATOM     29  C   UNL     1     113.640 126.309 136.642  0.00  0.00    +0.000 A 
ATOM     30  C   UNL     1     112.994 125.011 136.427  0.00  0.00    +0.000 A 
ATOM     31  C   UNL     1     114.415 125.947 136.565  0.00  0.00    +0.000 A 
ATOM     32  C   UNL     1     113.761 124.632 136.348  0.00  0.00    +0.000 A 
ATOM     33  C   UNL     1     114.476 125.103 136.417  0.00  0.00    +0.000 A 
BRANCH  26  36
ATOM     34  O   UNL     1     112.572 130.151 135.882  0.00  0.00    +0.000 OA
ATOM     35  O   UNL     1     112.641 130.723 137.428  0.00  0.00    +0.000 OA
ATOM     36  C   UNL     1     112.797 128.289 137.001  0.00  0.00    +0.000 A 
ATOM     37  C   UNL     1     112.710 128.815 136.371  0.00  0.00    +0.000 A 
ATOM     38  C   UNL     1     112.831 128.576 137.774  0.00  0.00    +0.000 A 
ATOM     39  C   UNL     1     112.658 129.626 136.512  0.00  0.00    +0.000 A 
ATOM     40  C   UNL     1     112.779 129.387 137.917  0.00  0.00    +0.000 A 
ATOM     41  C   UNL     1     112.693 129.912 137.285  0.00  0.00    +0.000 A 
ENDBRANCH  26  36
ENDBRANCH  20  25
ENDBRANCH  17  20
ENDBRANCH  10  14
ENDBRANCH   5  10
BRANCH   9  42
ATOM     42  C   UNL     1     109.133 129.861 137.721  0.00  0.00    +0.000 C 
BRANCH  42  43
ATOM     43  O   UNL     1     109.070 129.527 138.473  0.00  0.00    +0.000 OA
BRANCH  43  45
ATOM     44  O   UNL     1     108.377 130.373 139.390  0.00  0.00    +0.000 OA
ATOM     45  C   UNL     1     109.074 130.009 139.141  0.00  0.00    +0.000 C 
BRANCH  45  46
ATOM     46  C   UNL     1     109.774 130.128 139.562  0.00  0.00    +0.000 C 
ATOM     47  C   UNL     1     109.843 129.851 140.335  0.00  0.00    +0.000 C 
BRANCH  47  51
ATOM     48  C   UNL     1     111.943 130.207 141.596  0.00  0.00    +0.000 A 
ATOM     49  C   UNL     1     111.588 129.462 141.587  0.00  0.00    +0.000 A 
ATOM     50  C   UNL     1     111.598 130.833 141.185  0.00  0.00    +0.000 A 
ATOM     51  C   UNL     1     110.543 129.970 140.755  0.00  0.00    +0.000 A 
ATOM     52  C   UNL     1     110.888 129.344 141.167  0.00  0.00    +0.000 A 
ATOM     53  C   UNL     1     110.898 130.714 140.764  0.00  0.00    +0.000 A 
BRANCH  48  54
ATOM     54  O   UNL     1     112.643 130.325 142.017  0.00  0.00    +0.000 OA
BRANCH  54  63
ATOM     55  O   UNL     1     113.622 129.593 141.275  0.00  0.00    +0.000 OA
ATOM     56  O   UNL     1     115.545 130.212 140.449  0.00  0.00    +0.000 OA
ATOM     57  O   UNL     1     115.039 131.618 141.149  0.00  0.00    +0.000 OA
ATOM     58  O   UNL     1     113.588 131.675 141.932  0.00  0.00    +0.000 OA
ATOM     59  C   UNL     1     114.819 130.241 140.841  0.00  0.00    +0.000 C 
ATOM     60  C   UNL     1     114.567 130.943 141.191  0.00  0.00    +0.000 C 
ATOM     61  C   UNL     1     114.347 129.566 140.883  0.00  0.00    +0.000 C 
ATOM     62  C   UNL     1     113.842 130.972 141.582  0.00  0.00    +0.000 C 
ATOM     63  C   UNL     1     113.369 130.297 141.624  0.00  0.00    +0.000 C 
BRANCH  61  65
ATOM     64  O   UNL     1     114.550 128.152 140.951  0.00  0.00    +0.000 OA
ATOM     65  C   UNL     1     114.600 128.862 140.533  0.00  0.00    +0.000 C 
ENDBRANCH  61  65
ENDBRANCH  54  63
ENDBRANCH  48  54
ENDBRANCH  47  51
ENDBRANCH  45  46
ENDBRANCH  43  45
ENDBRANCH  42  43
ENDBRANCH   9  42
TORSDOF 13
ENDMDL
MODEL 7
REMARK VINA RESULT:     -10.6      1.808      4.698
REMARK  Name = 44259264
REMARK  13 active torsions:
REMARK  status: ('A' for Active; 'I' for Inactive)
REMARK    1  A    between atoms: O_1  and  C_24
REMARK    2  A    between atoms: O_1  and  C_26
REMARK    3  A    between atoms: O_5  and  C_31
REMARK    4  A    between atoms: O_5  and  C_41
REMARK    5  A    between atoms: O_10  and  C_34
REMARK    6  A    between atoms: O_10  and  C_45
REMARK    7  A    between atoms: O_14  and  C_40
REMARK    8  A    between atoms: O_14  and  C_49
REMARK    9  A    between atoms: C_32  and  C_34
REMARK   10  A    between atoms: C_38  and  C_42
REMARK   11  A    between atoms: C_43  and  C_47
REMARK   12  A    between atoms: C_45  and  C_50
REMARK   13  A    between atoms: C_57  and  C_58
REMARK                            x       y       z     vdW  Elec       q    Type
REMARK                         _______ _______ _______ _____ _____    ______ ____
ROOT
ATOM      1  O   UNL     1     112.541 126.162 138.000  0.00  0.00    +0.000 OA
ATOM      2  O   UNL     1     112.161 125.398 135.991  0.00  0.00    +0.000 OA
ATOM      3  O   UNL     1     113.715 124.895 136.228  0.00  0.00    +0.000 OA
ATOM      4  O   UNL     1     114.485 125.236 137.646  0.00  0.00    +0.000 OA
ATOM      5  C   UNL     1     112.155 125.991 137.290  0.00  0.00    +0.000 C 
ATOM      6  C   UNL     1     112.547 125.569 136.700  0.00  0.00    +0.000 C 
ATOM      7  C   UNL     1     113.324 125.317 136.818  0.00  0.00    +0.000 C 
ATOM      8  C   UNL     1     113.708 125.488 137.527  0.00  0.00    +0.000 C 
ATOM      9  C   UNL     1     113.317 125.910 138.118  0.00  0.00    +0.000 C 
ENDROOT
BRANCH   5  10
ATOM     10  O   UNL     1     111.378 126.243 137.171  0.00  0.00    +0.000 OA
BRANCH  10  14
ATOM     11  O   UNL     1     110.499 127.903 138.283  0.00  0.00    +0.000 OA
ATOM     12  O   UNL     1     110.789 125.454 138.495  0.00  0.00    +0.000 OA
ATOM     13  O   UNL     1     110.007 126.298 139.678  0.00  0.00    +0.000 OA
ATOM     14  C   UNL     1     110.987 126.664 137.763  0.00  0.00    +0.000 C 
ATOM     15  C   UNL     1     110.693 126.270 138.424  0.00  0.00    +0.000 C 
ATOM     16  C   UNL     1     110.301 126.692 139.016  0.00  0.00    +0.000 C 
ATOM     17  C   UNL     1     110.890 127.480 137.692  0.00  0.00    +0.000 C 
ATOM     18  C   UNL     1     110.204 127.508 138.945  0.00  0.00    +0.000 C 
ATOM     19  C   UNL     1     109.813 127.930 139.536  0.00  0.00    +0.000 C 
BRANCH  17  20
ATOM     20  O   UNL     1     111.185 127.875 137.029  0.00  0.00    +0.000 OA
BRANCH  20  25
ATOM     21  O   UNL     1     110.689 129.840 136.221  0.00  0.00    +0.000 OA
ATOM     22  O   UNL     1     109.599 127.657 136.628  0.00  0.00    +0.000 OA
ATOM     23  O   UNL     1     108.353 128.146 136.091  0.00  0.00    +0.000 OA
ATOM     24  O   UNL     1     108.207 130.896 135.123  0.00  0.00    +0.000 OA
ATOM     25  C   UNL     1     110.755 128.494 136.693  0.00  0.00    +0.000 A 
ATOM     26  C   UNL     1     111.118 129.222 136.557  0.00  0.00    +0.000 A 
ATOM     27  C   UNL     1     109.962 128.384 136.492  0.00  0.00    +0.000 A 
ATOM     28  C   UNL     1     109.533 129.003 136.156  0.00  0.00    +0.000 A 
ATOM     29  C   UNL     1     109.896 129.732 136.020  0.00  0.00    +0.000 A 
ATOM     30  C   UNL     1     108.707 128.877 135.951  0.00  0.00    +0.000 A 
ATOM     31  C   UNL     1     109.460 130.384 135.670  0.00  0.00    +0.000 A 
ATOM     32  C   UNL     1     108.255 129.518 135.600  0.00  0.00    +0.000 A 
ATOM     33  C   UNL     1     108.634 130.276 135.459  0.00  0.00    +0.000 A 
BRANCH  26  36
ATOM     34  O   UNL     1     113.893 128.892 135.954  0.00  0.00    +0.000 OA
ATOM     35  O   UNL     1     114.289 129.660 137.360  0.00  0.00    +0.000 OA
ATOM     36  C   UNL     1     111.911 129.331 136.757  0.00  0.00    +0.000 A 
ATOM     37  C   UNL     1     112.506 129.057 136.256  0.00  0.00    +0.000 A 
ATOM     38  C   UNL     1     112.109 129.715 137.460  0.00  0.00    +0.000 A 
ATOM     39  C   UNL     1     113.299 129.166 136.456  0.00  0.00    +0.000 A 
ATOM     40  C   UNL     1     112.902 129.825 137.661  0.00  0.00    +0.000 A 
ATOM     41  C   UNL     1     113.497 129.550 137.159  0.00  0.00    +0.000 A 
ENDBRANCH  26  36
ENDBRANCH  20  25
ENDBRANCH  17  20
ENDBRANCH  10  14
ENDBRANCH   5  10
BRANCH   9  42
ATOM     42  C   UNL     1     113.702 126.081 138.827  0.00  0.00    +0.000 C 
BRANCH  42  43
ATOM     43  O   UNL     1     113.768 126.863 139.084  0.00  0.00    +0.000 OA
BRANCH  43  45
ATOM     44  O   UNL     1     114.558 126.604 140.245  0.00  0.00    +0.000 OA
ATOM     45  C   UNL     1     113.956 127.025 139.870  0.00  0.00    +0.000 C 
BRANCH  45  46
ATOM     46  C   UNL     1     113.542 127.607 140.282  0.00  0.00    +0.000 C 
ATOM     47  C   UNL     1     113.946 128.245 140.613  0.00  0.00    +0.000 C 
BRANCH  47  51
ATOM     48  C   UNL     1     112.705 129.994 141.849  0.00  0.00    +0.000 A 
ATOM     49  C   UNL     1     113.345 130.202 141.370  0.00  0.00    +0.000 A 
ATOM     50  C   UNL     1     112.479 129.204 141.915  0.00  0.00    +0.000 A 
ATOM     51  C   UNL     1     113.532 128.828 141.025  0.00  0.00    +0.000 A 
ATOM     52  C   UNL     1     113.758 129.619 140.959  0.00  0.00    +0.000 A 
ATOM     53  C   UNL     1     112.893 128.621 141.503  0.00  0.00    +0.000 A 
BRANCH  48  54
ATOM     54  O   UNL     1     112.292 130.578 142.261  0.00  0.00    +0.000 OA
BRANCH  54  63
ATOM     55  O   UNL     1     111.321 130.916 141.268  0.00  0.00    +0.000 OA
ATOM     56  O   UNL     1     109.175 131.282 141.435  0.00  0.00    +0.000 OA
ATOM     57  O   UNL     1     109.560 130.958 143.007  0.00  0.00    +0.000 OA
ATOM     58  O   UNL     1     111.118 130.606 143.420  0.00  0.00    +0.000 OA
ATOM     59  C   UNL     1     109.954 131.106 141.642  0.00  0.00    +0.000 C 
ATOM     60  C   UNL     1     110.147 130.944 142.427  0.00  0.00    +0.000 C 
ATOM     61  C   UNL     1     110.541 131.092 141.063  0.00  0.00    +0.000 C 
ATOM     62  C   UNL     1     110.925 130.768 142.634  0.00  0.00    +0.000 C 
ATOM     63  C   UNL     1     111.512 130.754 142.054  0.00  0.00    +0.000 C 
BRANCH  61  65
ATOM     64  O   UNL     1     110.839 131.739 139.824  0.00  0.00    +0.000 OA
ATOM     65  C   UNL     1     110.349 131.254 140.276  0.00  0.00    +0.000 C 
ENDBRANCH  61  65
ENDBRANCH  54  63
ENDBRANCH  48  54
ENDBRANCH  47  51
ENDBRANCH  45  46
ENDBRANCH  43  45
ENDBRANCH  42  43
ENDBRANCH   9  42
TORSDOF 13
ENDMDL
MODEL 8
REMARK VINA RESULT:     -10.4      1.857      5.339
REMARK  Name = 44259264
REMARK  13 active torsions:
REMARK  status: ('A' for Active; 'I' for Inactive)
REMARK    1  A    between atoms: O_1  and  C_24
REMARK    2  A    between atoms: O_1  and  C_26
REMARK    3  A    between atoms: O_5  and  C_31
REMARK    4  A    between atoms: O_5  and  C_41
REMARK    5  A    between atoms: O_10  and  C_34
REMARK    6  A    between atoms: O_10  and  C_45
REMARK    7  A    between atoms: O_14  and  C_40
REMARK    8  A    between atoms: O_14  and  C_49
REMARK    9  A    between atoms: C_32  and  C_34
REMARK   10  A    between atoms: C_38  and  C_42
REMARK   11  A    between atoms: C_43  and  C_47
REMARK   12  A    between atoms: C_45  and  C_50
REMARK   13  A    between atoms: C_57  and  C_58
REMARK                            x       y       z     vdW  Elec       q    Type
REMARK                         _______ _______ _______ _____ _____    ______ ____
ROOT
ATOM      1  O   UNL     1     112.547 126.649 136.784  0.00  0.00    +0.000 OA
ATOM      2  O   UNL     1     111.237 126.027 135.153  0.00  0.00    +0.000 OA
ATOM      3  O   UNL     1     111.563 124.574 135.863  0.00  0.00    +0.000 OA
ATOM      4  O   UNL     1     112.545 124.504 137.186  0.00  0.00    +0.000 OA
ATOM      5  C   UNL     1     112.056 126.684 136.121  0.00  0.00    +0.000 C 
ATOM      6  C   UNL     1     111.728 125.992 135.815  0.00  0.00    +0.000 C 
ATOM      7  C   UNL     1     111.891 125.265 136.170  0.00  0.00    +0.000 C 
ATOM      8  C   UNL     1     112.382 125.231 136.831  0.00  0.00    +0.000 C 
ATOM      9  C   UNL     1     112.710 125.922 137.139  0.00  0.00    +0.000 C 
ENDROOT
BRANCH   5  10
ATOM     10  O   UNL     1     111.893 127.411 135.766  0.00  0.00    +0.000 OA
BRANCH  10  14
ATOM     11  O   UNL     1     111.836 129.261 136.923  0.00  0.00    +0.000 OA
ATOM     12  O   UNL     1     113.461 127.909 135.635  0.00  0.00    +0.000 OA
ATOM     13  O   UNL     1     113.945 129.308 136.362  0.00  0.00    +0.000 OA
ATOM     14  C   UNL     1     112.136 128.111 136.130  0.00  0.00    +0.000 C 
ATOM     15  C   UNL     1     112.919 128.359 136.064  0.00  0.00    +0.000 C 
ATOM     16  C   UNL     1     113.162 129.059 136.428  0.00  0.00    +0.000 C 
ATOM     17  C   UNL     1     111.595 128.561 136.559  0.00  0.00    +0.000 C 
ATOM     18  C   UNL     1     112.621 129.510 136.857  0.00  0.00    +0.000 C 
ATOM     19  C   UNL     1     112.863 130.210 137.221  0.00  0.00    +0.000 C 
BRANCH  17  20
ATOM     20  O   UNL     1     110.810 128.312 136.625  0.00  0.00    +0.000 OA
BRANCH  20  25
ATOM     21  O   UNL     1     109.033 129.459 137.161  0.00  0.00    +0.000 OA
ATOM     22  O   UNL     1     110.691 129.327 135.329  0.00  0.00    +0.000 OA
ATOM     23  O   UNL     1     110.031 130.394 134.617  0.00  0.00    +0.000 OA
ATOM     24  O   UNL     1     107.650 131.618 135.780  0.00  0.00    +0.000 OA
ATOM     25  C   UNL     1     110.198 128.864 136.588  0.00  0.00    +0.000 A 
ATOM     26  C   UNL     1     109.646 128.908 137.198  0.00  0.00    +0.000 A 
ATOM     27  C   UNL     1     110.139 129.371 135.940  0.00  0.00    +0.000 A 
ATOM     28  C   UNL     1     109.526 129.922 135.903  0.00  0.00    +0.000 A 
ATOM     29  C   UNL     1     108.973 129.966 136.514  0.00  0.00    +0.000 A 
ATOM     30  C   UNL     1     109.474 130.446 135.222  0.00  0.00    +0.000 A 
ATOM     31  C   UNL     1     108.330 130.536 136.487  0.00  0.00    +0.000 A 
ATOM     32  C   UNL     1     108.838 131.022 135.178  0.00  0.00    +0.000 A 
ATOM     33  C   UNL     1     108.263 131.067 135.815  0.00  0.00    +0.000 A 
BRANCH  26  36
ATOM     34  O   UNL     1     109.252 126.330 138.369  0.00  0.00    +0.000 OA
ATOM     35  O   UNL     1     109.884 126.879 139.791  0.00  0.00    +0.000 OA
ATOM     36  C   UNL     1     109.705 128.401 137.846  0.00  0.00    +0.000 A 
ATOM     37  C   UNL     1     109.449 127.619 137.784  0.00  0.00    +0.000 A 
ATOM     38  C   UNL     1     110.021 128.675 138.557  0.00  0.00    +0.000 A 
ATOM     39  C   UNL     1     109.508 127.111 138.432  0.00  0.00    +0.000 A 
ATOM     40  C   UNL     1     110.081 128.168 139.205  0.00  0.00    +0.000 A 
ATOM     41  C   UNL     1     109.824 127.386 139.142  0.00  0.00    +0.000 A 
ENDBRANCH  26  36
ENDBRANCH  20  25
ENDBRANCH  17  20
ENDBRANCH  10  14
ENDBRANCH   5  10
BRANCH   9  42
ATOM     42  C   UNL     1     113.201 125.888 137.800  0.00  0.00    +0.000 C 
BRANCH  42  43
ATOM     43  O   UNL     1     112.946 126.198 138.521  0.00  0.00    +0.000 OA
BRANCH  43  45
ATOM     44  O   UNL     1     114.234 126.120 139.132  0.00  0.00    +0.000 OA
ATOM     45  C   UNL     1     113.495 126.480 139.067  0.00  0.00    +0.000 C 
BRANCH  45  46
ATOM     46  C   UNL     1     113.306 127.122 139.550  0.00  0.00    +0.000 C 
ATOM     47  C   UNL     1     113.411 127.071 140.366  0.00  0.00    +0.000 C 
BRANCH  47  51
ATOM     48  C   UNL     1     112.843 128.996 141.814  0.00  0.00    +0.000 A 
ATOM     49  C   UNL     1     112.670 128.228 142.062  0.00  0.00    +0.000 A 
ATOM     50  C   UNL     1     113.205 129.122 141.083  0.00  0.00    +0.000 A 
ATOM     51  C   UNL     1     113.222 127.713 140.848  0.00  0.00    +0.000 A 
ATOM     52  C   UNL     1     112.860 127.587 141.579  0.00  0.00    +0.000 A 
ATOM     53  C   UNL     1     113.394 128.480 140.601  0.00  0.00    +0.000 A 
BRANCH  48  54
ATOM     54  O   UNL     1     112.653 129.637 142.297  0.00  0.00    +0.000 OA
BRANCH  54  63
ATOM     55  O   UNL     1     111.232 129.515 142.370  0.00  0.00    +0.000 OA
ATOM     56  O   UNL     1     109.655 131.003 142.119  0.00  0.00    +0.000 OA
ATOM     57  O   UNL     1     110.999 131.931 141.884  0.00  0.00    +0.000 OA
ATOM     58  O   UNL     1     112.498 131.248 141.973  0.00  0.00    +0.000 OA
ATOM     59  C   UNL     1     110.405 130.662 142.163  0.00  0.00    +0.000 C 
ATOM     60  C   UNL     1     111.077 131.126 142.046  0.00  0.00    +0.000 C 
ATOM     61  C   UNL     1     110.482 129.857 142.325  0.00  0.00    +0.000 C 
ATOM     62  C   UNL     1     111.826 130.785 142.091  0.00  0.00    +0.000 C 
ATOM     63  C   UNL     1     111.903 129.979 142.252  0.00  0.00    +0.000 C 
BRANCH  61  65
ATOM     64  O   UNL     1     109.728 128.953 143.136  0.00  0.00    +0.000 OA
ATOM     65  C   UNL     1     109.810 129.393 142.443  0.00  0.00    +0.000 C 
ENDBRANCH  61  65
ENDBRANCH  54  63
ENDBRANCH  48  54
ENDBRANCH  47  51
ENDBRANCH  45  46
ENDBRANCH  43  45
ENDBRANCH  42  43
ENDBRANCH   9  42
TORSDOF 13
ENDMDL
MODEL 9
REMARK VINA RESULT:     -10.4      2.456      5.694
REMARK  Name = 44259264
REMARK  13 active torsions:
REMARK  status: ('A' for Active; 'I' for Inactive)
REMARK    1  A    between atoms: O_1  and  C_24
REMARK    2  A    between atoms: O_1  and  C_26
REMARK    3  A    between atoms: O_5  and  C_31
REMARK    4  A    between atoms: O_5  and  C_41
REMARK    5  A    between atoms: O_10  and  C_34
REMARK    6  A    between atoms: O_10  and  C_45
REMARK    7  A    between atoms: O_14  and  C_40
REMARK    8  A    between atoms: O_14  and  C_49
REMARK    9  A    between atoms: C_32  and  C_34
REMARK   10  A    between atoms: C_38  and  C_42
REMARK   11  A    between atoms: C_43  and  C_47
REMARK   12  A    between atoms: C_45  and  C_50
REMARK   13  A    between atoms: C_57  and  C_58
REMARK                            x       y       z     vdW  Elec       q    Type
REMARK                         _______ _______ _______ _____ _____    ______ ____
ROOT
ATOM      1  O   UNL     1     110.129 129.635 137.098  0.00  0.00    +0.000 OA
ATOM      2  O   UNL     1     110.208 128.802 135.083  0.00  0.00    +0.000 OA
ATOM      3  O   UNL     1     108.625 129.258 135.171  0.00  0.00    +0.000 OA
ATOM      4  O   UNL     1     108.045 129.966 136.543  0.00  0.00    +0.000 OA
ATOM      5  C   UNL     1     110.420 129.281 136.411  0.00  0.00    +0.000 C 
ATOM      6  C   UNL     1     109.917 129.156 135.769  0.00  0.00    +0.000 C 
ATOM      7  C   UNL     1     109.126 129.384 135.813  0.00  0.00    +0.000 C 
ATOM      8  C   UNL     1     108.836 129.738 136.499  0.00  0.00    +0.000 C 
ATOM      9  C   UNL     1     109.338 129.864 137.142  0.00  0.00    +0.000 C 
ENDROOT
BRANCH   5  10
ATOM     10  O   UNL     1     111.211 129.053 136.367  0.00  0.00    +0.000 OA
BRANCH  10  14
ATOM     11  O   UNL     1     112.399 128.650 138.154  0.00  0.00    +0.000 OA
ATOM     12  O   UNL     1     111.828 130.552 136.677  0.00  0.00    +0.000 OA
ATOM     13  O   UNL     1     112.825 130.783 137.971  0.00  0.00    +0.000 OA
ATOM     14  C   UNL     1     111.710 129.169 137.014  0.00  0.00    +0.000 C 
ATOM     15  C   UNL     1     112.018 129.918 137.169  0.00  0.00    +0.000 C 
ATOM     16  C   UNL     1     112.517 130.034 137.816  0.00  0.00    +0.000 C 
ATOM     17  C   UNL     1     111.900 128.535 137.507  0.00  0.00    +0.000 C 
ATOM     18  C   UNL     1     112.707 129.400 138.308  0.00  0.00    +0.000 C 
ATOM     19  C   UNL     1     113.206 129.515 138.955  0.00  0.00    +0.000 C 
BRANCH  17  20
ATOM     20  O   UNL     1     111.592 127.785 137.352  0.00  0.00    +0.000 OA
BRANCH  20  25
ATOM     21  O   UNL     1     112.315 125.835 138.013  0.00  0.00    +0.000 OA
ATOM     22  O   UNL     1     113.014 127.682 136.522  0.00  0.00    +0.000 OA
ATOM     23  O   UNL     1     114.223 126.977 136.168  0.00  0.00    +0.000 OA
ATOM     24  O   UNL     1     114.732 124.354 137.345  0.00  0.00    +0.000 OA
ATOM     25  C   UNL     1     112.070 127.118 137.434  0.00  0.00    +0.000 A 
ATOM     26  C   UNL     1     111.837 126.502 137.931  0.00  0.00    +0.000 A 
ATOM     27  C   UNL     1     112.781 127.067 137.018  0.00  0.00    +0.000 A 
ATOM     28  C   UNL     1     113.259 126.399 137.100  0.00  0.00    +0.000 A 
ATOM     29  C   UNL     1     113.026 125.783 137.598  0.00  0.00    +0.000 A 
ATOM     30  C   UNL     1     113.998 126.357 136.663  0.00  0.00    +0.000 A 
ATOM     31  C   UNL     1     113.515 125.083 137.691  0.00  0.00    +0.000 A 
ATOM     32  C   UNL     1     114.500 125.664 136.744  0.00  0.00    +0.000 A 
ATOM     33  C   UNL     1     114.256 125.023 137.262  0.00  0.00    +0.000 A 
BRANCH  26  36
ATOM     34  O   UNL     1     108.986 126.304 137.993  0.00  0.00    +0.000 OA
ATOM     35  O   UNL     1     108.993 126.709 139.592  0.00  0.00    +0.000 OA
ATOM     36  C   UNL     1     111.126 126.554 138.346  0.00  0.00    +0.000 A 
ATOM     37  C   UNL     1     110.412 126.403 137.962  0.00  0.00    +0.000 A 
ATOM     38  C   UNL     1     111.130 126.756 139.145  0.00  0.00    +0.000 A 
ATOM     39  C   UNL     1     109.700 126.454 138.377  0.00  0.00    +0.000 A 
ATOM     40  C   UNL     1     110.418 126.808 139.561  0.00  0.00    +0.000 A 
ATOM     41  C   UNL     1     109.703 126.657 139.176  0.00  0.00    +0.000 A 
ENDBRANCH  26  36
ENDBRANCH  20  25
ENDBRANCH  17  20
ENDBRANCH  10  14
ENDBRANCH   5  10
BRANCH   9  42
ATOM     42  C   UNL     1     109.048 130.217 137.828  0.00  0.00    +0.000 C 
BRANCH  42  43
ATOM     43  O   UNL     1     109.106 129.824 138.552  0.00  0.00    +0.000 OA
BRANCH  43  45
ATOM     44  O   UNL     1     108.192 130.463 139.444  0.00  0.00    +0.000 OA
ATOM     45  C   UNL     1     108.960 130.229 139.255  0.00  0.00    +0.000 C 
BRANCH  45  46
ATOM     46  C   UNL     1     109.581 130.402 139.769  0.00  0.00    +0.000 C 
ATOM     47  C   UNL     1     109.560 130.132 140.548  0.00  0.00    +0.000 C 
BRANCH  47  51
ATOM     48  C   UNL     1     111.424 130.648 142.093  0.00  0.00    +0.000 A 
ATOM     49  C   UNL     1     111.092 129.892 142.084  0.00  0.00    +0.000 A 
ATOM     50  C   UNL     1     111.135 131.231 141.586  0.00  0.00    +0.000 A 
ATOM     51  C   UNL     1     110.181 130.304 141.063  0.00  0.00    +0.000 A 
ATOM     52  C   UNL     1     110.470 129.721 141.569  0.00  0.00    +0.000 A 
ATOM     53  C   UNL     1     110.513 131.059 141.071  0.00  0.00    +0.000 A 
BRANCH  48  54
ATOM     54  O   UNL     1     112.045 130.819 142.608  0.00  0.00    +0.000 OA
BRANCH  54  63
ATOM     55  O   UNL     1     111.283 131.159 143.768  0.00  0.00    +0.000 OA
ATOM     56  O   UNL     1     111.530 132.772 145.217  0.00  0.00    +0.000 OA
ATOM     57  O   UNL     1     112.796 133.069 144.202  0.00  0.00    +0.000 OA
ATOM     58  O   UNL     1     113.054 132.092 142.897  0.00  0.00    +0.000 OA
ATOM     59  C   UNL     1     111.659 132.284 144.564  0.00  0.00    +0.000 C 
ATOM     60  C   UNL     1     112.292 132.432 144.057  0.00  0.00    +0.000 C 
ATOM     61  C   UNL     1     111.155 131.648 144.420  0.00  0.00    +0.000 C 
ATOM     62  C   UNL     1     112.421 131.945 143.405  0.00  0.00    +0.000 C 
ATOM     63  C   UNL     1     111.916 131.308 143.260  0.00  0.00    +0.000 C 
BRANCH  61  65
ATOM     64  O   UNL     1     110.432 130.753 145.269  0.00  0.00    +0.000 OA
ATOM     65  C   UNL     1     110.521 131.499 144.928  0.00  0.00    +0.000 C 
ENDBRANCH  61  65
ENDBRANCH  54  63
ENDBRANCH  48  54
ENDBRANCH  47  51
ENDBRANCH  45  46
ENDBRANCH  43  45
ENDBRANCH  42  43
ENDBRANCH   9  42
TORSDOF 13
ENDMDL
MODEL 10
REMARK VINA RESULT:     -10.4      2.403      5.904
REMARK  Name = 44259264
REMARK  13 active torsions:
REMARK  status: ('A' for Active; 'I' for Inactive)
REMARK    1  A    between atoms: O_1  and  C_24
REMARK    2  A    between atoms: O_1  and  C_26
REMARK    3  A    between atoms: O_5  and  C_31
REMARK    4  A    between atoms: O_5  and  C_41
REMARK    5  A    between atoms: O_10  and  C_34
REMARK    6  A    between atoms: O_10  and  C_45
REMARK    7  A    between atoms: O_14  and  C_40
REMARK    8  A    between atoms: O_14  and  C_49
REMARK    9  A    between atoms: C_32  and  C_34
REMARK   10  A    between atoms: C_38  and  C_42
REMARK   11  A    between atoms: C_43  and  C_47
REMARK   12  A    between atoms: C_45  and  C_50
REMARK   13  A    between atoms: C_57  and  C_58
REMARK                            x       y       z     vdW  Elec       q    Type
REMARK                         _______ _______ _______ _____ _____    ______ ____
ROOT
ATOM      1  O   UNL     1     112.280 129.743 138.430  0.00  0.00    +0.000 OA
ATOM      2  O   UNL     1     113.812 129.449 136.905  0.00  0.00    +0.000 OA
ATOM      3  O   UNL     1     114.577 130.504 137.917  0.00  0.00    +0.000 OA
ATOM      4  O   UNL     1     113.811 131.051 139.271  0.00  0.00    +0.000 OA
ATOM      5  C   UNL     1     112.663 129.469 137.752  0.00  0.00    +0.000 C 
ATOM      6  C   UNL     1     113.429 129.723 137.582  0.00  0.00    +0.000 C 
ATOM      7  C   UNL     1     113.812 130.250 138.088  0.00  0.00    +0.000 C 
ATOM      8  C   UNL     1     113.428 130.524 138.764  0.00  0.00    +0.000 C 
ATOM      9  C   UNL     1     112.662 130.270 138.936  0.00  0.00    +0.000 C 
ENDROOT
BRANCH   5  10
ATOM     10  O   UNL     1     112.281 128.941 137.246  0.00  0.00    +0.000 OA
BRANCH  10  14
ATOM     11  O   UNL     1     110.744 127.576 137.981  0.00  0.00    +0.000 OA
ATOM     12  O   UNL     1     110.920 129.843 137.004  0.00  0.00    +0.000 OA
ATOM     13  O   UNL     1     109.443 129.234 137.413  0.00  0.00    +0.000 OA
ATOM     14  C   UNL     1     111.541 128.637 137.451  0.00  0.00    +0.000 C 
ATOM     15  C   UNL     1     110.862 129.087 137.330  0.00  0.00    +0.000 C 
ATOM     16  C   UNL     1     110.122 128.783 137.534  0.00  0.00    +0.000 C 
ATOM     17  C   UNL     1     111.483 127.881 137.776  0.00  0.00    +0.000 C 
ATOM     18  C   UNL     1     110.064 128.027 137.860  0.00  0.00    +0.000 C 
ATOM     19  C   UNL     1     109.325 127.722 138.064  0.00  0.00    +0.000 C 
BRANCH  17  20
ATOM     20  O   UNL     1     112.164 127.430 137.897  0.00  0.00    +0.000 OA
BRANCH  20  25
ATOM     21  O   UNL     1     112.371 125.275 138.174  0.00  0.00    +0.000 OA
ATOM     22  O   UNL     1     111.693 126.878 136.415  0.00  0.00    +0.000 OA
ATOM     23  O   UNL     1     111.438 125.800 135.491  0.00  0.00    +0.000 OA
ATOM     24  O   UNL     1     111.877 123.048 136.363  0.00  0.00    +0.000 OA
ATOM     25  C   UNL     1     112.154 126.619 137.743  0.00  0.00    +0.000 A 
ATOM     26  C   UNL     1     112.380 126.086 138.329  0.00  0.00    +0.000 A 
ATOM     27  C   UNL     1     111.919 126.344 137.001  0.00  0.00    +0.000 A 
ATOM     28  C   UNL     1     111.909 125.534 136.847  0.00  0.00    +0.000 A 
ATOM     29  C   UNL     1     112.135 124.999 137.434  0.00  0.00    +0.000 A 
ATOM     30  C   UNL     1     111.662 125.258 136.071  0.00  0.00    +0.000 A 
ATOM     31  C   UNL     1     112.130 124.153 137.285  0.00  0.00    +0.000 A 
ATOM     32  C   UNL     1     111.650 124.415 135.904  0.00  0.00    +0.000 A 
ATOM     33  C   UNL     1     111.885 123.859 136.515  0.00  0.00    +0.000 A 
BRANCH  26  36
ATOM     34  O   UNL     1     114.405 127.137 140.050  0.00  0.00    +0.000 OA
ATOM     35  O   UNL     1     113.321 127.188 141.293  0.00  0.00    +0.000 OA
ATOM     36  C   UNL     1     112.615 126.361 139.069  0.00  0.00    +0.000 A 
ATOM     37  C   UNL     1     113.392 126.611 139.190  0.00  0.00    +0.000 A 
ATOM     38  C   UNL     1     112.073 126.387 139.691  0.00  0.00    +0.000 A 
ATOM     39  C   UNL     1     113.628 126.887 139.931  0.00  0.00    +0.000 A 
ATOM     40  C   UNL     1     112.308 126.663 140.433  0.00  0.00    +0.000 A 
ATOM     41  C   UNL     1     113.086 126.913 140.552  0.00  0.00    +0.000 A 
ENDBRANCH  26  36
ENDBRANCH  20  25
ENDBRANCH  17  20
ENDBRANCH  10  14
ENDBRANCH   5  10
BRANCH   9  42
ATOM     42  C   UNL     1     112.279 130.543 139.613  0.00  0.00    +0.000 C 
BRANCH  42  43
ATOM     43  O   UNL     1     111.980 130.007 140.164  0.00  0.00    +0.000 OA
BRANCH  43  45
ATOM     44  O   UNL     1     111.346 131.053 140.901  0.00  0.00    +0.000 OA
ATOM     45  C   UNL     1     111.421 130.252 140.718  0.00  0.00    +0.000 C 
BRANCH  45  46
ATOM     46  C   UNL     1     110.936 129.697 141.089  0.00  0.00    +0.000 C 
ATOM     47  C   UNL     1     110.117 129.787 141.072  0.00  0.00    +0.000 C 
BRANCH  47  51
ATOM     48  C   UNL     1     108.664 128.122 142.187  0.00  0.00    +0.000 A 
ATOM     49  C   UNL     1     109.472 128.141 142.352  0.00  0.00    +0.000 A 
ATOM     50  C   UNL     1     108.340 128.658 141.650  0.00  0.00    +0.000 A 
ATOM     51  C   UNL     1     109.632 129.232 141.444  0.00  0.00    +0.000 A 
ATOM     52  C   UNL     1     109.956 128.696 141.981  0.00  0.00    +0.000 A 
ATOM     53  C   UNL     1     108.825 129.213 141.279  0.00  0.00    +0.000 A 
BRANCH  48  54
ATOM     54  O   UNL     1     108.180 127.566 142.558  0.00  0.00    +0.000 OA
BRANCH  54  63
ATOM     55  O   UNL     1     108.412 126.469 141.673  0.00  0.00    +0.000 OA
ATOM     56  O   UNL     1     107.043 124.974 140.862  0.00  0.00    +0.000 OA
ATOM     57  O   UNL     1     106.012 125.874 141.783  0.00  0.00    +0.000 OA
ATOM     58  O   UNL     1     106.580 127.170 142.632  0.00  0.00    +0.000 OA
ATOM     59  C   UNL     1     107.327 125.623 141.286  0.00  0.00    +0.000 C 
ATOM     60  C   UNL     1     106.812 126.072 141.747  0.00  0.00    +0.000 C 
ATOM     61  C   UNL     1     108.127 125.821 141.249  0.00  0.00    +0.000 C 
ATOM     62  C   UNL     1     107.096 126.720 142.171  0.00  0.00    +0.000 C 
ATOM     63  C   UNL     1     107.896 126.918 142.134  0.00  0.00    +0.000 C 
BRANCH  61  65
ATOM     64  O   UNL     1     109.286 124.991 141.139  0.00  0.00    +0.000 OA
ATOM     65  C   UNL     1     108.643 125.371 140.788  0.00  0.00    +0.000 C 
ENDBRANCH  61  65
ENDBRANCH  54  63
ENDBRANCH  48  54
ENDBRANCH  47  51
ENDBRANCH  45  46
ENDBRANCH  43  45
ENDBRANCH  42  43
ENDBRANCH   9  42
TORSDOF 13
ENDMDL
