MODEL 1
REMARK VINA RESULT:      -9.5      0.000      0.000
REMARK  Name = 131835114
REMARK  5 active torsions:
REMARK  status: ('A' for Active; 'I' for Inactive)
REMARK    1  A    between atoms: O_2  and  C_18
REMARK    2  A    between atoms: O_2  and  C_24
REMARK    3  A    between atoms: O_13  and  C_34
REMARK    4  A    between atoms: C_19  and  C_21
REMARK    5  A    between atoms: C_20  and  C_23
REMARK                            x       y       z     vdW  Elec       q    Type
REMARK                         _______ _______ _______ _____ _____    ______ ____
ROOT
ATOM      1  O   UNL     1     114.730 127.250 141.169  0.00  0.00    +0.000 OA
ATOM      2  C   UNL     1     113.410 127.122 139.435  0.00  0.00    +0.000 A 
ATOM      3  C   UNL     1     114.181 128.271 140.334  0.00  0.00    +0.000 A 
ATOM      4  C   UNL     1     114.263 127.474 140.526  0.00  0.00    +0.000 A 
ATOM      5  C   UNL     1     113.878 126.899 140.077  0.00  0.00    +0.000 A 
ATOM      6  C   UNL     1     113.328 127.921 139.242  0.00  0.00    +0.000 A 
ATOM      7  C   UNL     1     113.714 128.495 139.691  0.00  0.00    +0.000 A 
ENDROOT
BRANCH   2  13
ATOM      8  O   UNL     1     113.433 126.149 138.388  0.00  0.00    +0.000 OA
ATOM      9  O   UNL     1     111.826 126.770 139.729  0.00  0.00    +0.000 OA
ATOM     10  O   UNL     1     111.055 125.621 138.830  0.00  0.00    +0.000 OA
ATOM     11  O   UNL     1     111.050 124.633 137.779  0.00  0.00    +0.000 OA
ATOM     12  O   UNL     1     113.496 124.170 136.252  0.00  0.00    +0.000 OA
ATOM     13  C   UNL     1     113.025 126.548 138.985  0.00  0.00    +0.000 C 
ATOM     14  C   UNL     1     112.233 126.372 139.132  0.00  0.00    +0.000 C 
ATOM     15  C   UNL     1     111.848 125.797 138.683  0.00  0.00    +0.000 C 
ATOM     16  C   UNL     1     112.255 125.398 138.086  0.00  0.00    +0.000 A 
ATOM     17  C   UNL     1     113.048 125.575 137.939  0.00  0.00    +0.000 A 
ATOM     18  C   UNL     1     111.843 124.802 137.625  0.00  0.00    +0.000 A 
ATOM     19  C   UNL     1     113.482 125.166 137.319  0.00  0.00    +0.000 A 
ATOM     20  C   UNL     1     112.261 124.383 137.001  0.00  0.00    +0.000 A 
ATOM     21  C   UNL     1     113.086 124.567 136.848  0.00  0.00    +0.000 A 
BRANCH  20  22
ATOM     22  O   UNL     1     111.873 123.809 136.553  0.00  0.00    +0.000 OA
ATOM     23  C   UNL     1     111.951 123.012 136.749  0.00  0.00    +0.000 C 
ENDBRANCH  20  22
ENDBRANCH   2  13
BRANCH   3  24
ATOM     24  O   UNL     1     114.566 128.846 140.783  0.00  0.00    +0.000 OA
BRANCH  24  32
ATOM     25  O   UNL     1     113.413 129.363 141.450  0.00  0.00    +0.000 OA
ATOM     26  O   UNL     1     114.331 131.654 141.261  0.00  0.00    +0.000 OA
ATOM     27  O   UNL     1     115.178 130.373 140.657  0.00  0.00    +0.000 OA
ATOM     28  O   UNL     1     112.873 131.407 141.991  0.00  0.00    +0.000 OA
ATOM     29  C   UNL     1     114.025 130.890 141.324  0.00  0.00    +0.000 C 
ATOM     30  C   UNL     1     114.449 130.250 141.022  0.00  0.00    +0.000 C 
ATOM     31  C   UNL     1     113.296 130.767 141.689  0.00  0.00    +0.000 C 
ATOM     32  C   UNL     1     114.143 129.486 141.085  0.00  0.00    +0.000 C 
ATOM     33  C   UNL     1     112.990 130.004 141.752  0.00  0.00    +0.000 C 
BRANCH  33  36
ATOM     34  O   UNL     1     111.562 130.005 141.694  0.00  0.00    +0.000 OA
ATOM     35  O   UNL     1     112.229 129.631 142.902  0.00  0.00    +0.000 OA
ATOM     36  C   UNL     1     112.261 129.880 142.116  0.00  0.00    +0.000 C 
ENDBRANCH  33  36
ENDBRANCH  24  32
ENDBRANCH   3  24
TORSDOF 5
ENDMDL
MODEL 2
REMARK VINA RESULT:      -9.4      4.395      5.153
REMARK  Name = 131835114
REMARK  5 active torsions:
REMARK  status: ('A' for Active; 'I' for Inactive)
REMARK    1  A    between atoms: O_2  and  C_18
REMARK    2  A    between atoms: O_2  and  C_24
REMARK    3  A    between atoms: O_13  and  C_34
REMARK    4  A    between atoms: C_19  and  C_21
REMARK    5  A    between atoms: C_20  and  C_23
REMARK                            x       y       z     vdW  Elec       q    Type
REMARK                         _______ _______ _______ _____ _____    ______ ____
ROOT
ATOM      1  O   UNL     1     107.933 129.677 136.194  0.00  0.00    +0.000 OA
ATOM      2  C   UNL     1     109.808 128.569 136.048  0.00  0.00    +0.000 A 
ATOM      3  C   UNL     1     109.277 130.131 136.020  0.00  0.00    +0.000 A 
ATOM      4  C   UNL     1     108.738 129.514 136.114  0.00  0.00    +0.000 A 
ATOM      5  C   UNL     1     109.004 128.733 136.128  0.00  0.00    +0.000 A 
ATOM      6  C   UNL     1     110.348 129.187 135.954  0.00  0.00    +0.000 A 
ATOM      7  C   UNL     1     110.082 129.968 135.940  0.00  0.00    +0.000 A 
ENDROOT
BRANCH   2  13
ATOM      8  O   UNL     1     110.269 127.432 136.781  0.00  0.00    +0.000 OA
ATOM      9  O   UNL     1     109.949 127.720 134.640  0.00  0.00    +0.000 OA
ATOM     10  O   UNL     1     110.481 126.158 134.669  0.00  0.00    +0.000 OA
ATOM     11  O   UNL     1     110.948 124.996 135.384  0.00  0.00    +0.000 OA
ATOM     12  O   UNL     1     111.208 125.124 138.290  0.00  0.00    +0.000 OA
ATOM     13  C   UNL     1     110.074 127.788 136.062  0.00  0.00    +0.000 C 
ATOM     14  C   UNL     1     110.144 127.364 135.359  0.00  0.00    +0.000 C 
ATOM     15  C   UNL     1     110.410 126.583 135.373  0.00  0.00    +0.000 C 
ATOM     16  C   UNL     1     110.606 126.226 136.091  0.00  0.00    +0.000 A 
ATOM     17  C   UNL     1     110.535 126.651 136.795  0.00  0.00    +0.000 A 
ATOM     18  C   UNL     1     110.881 125.413 136.093  0.00  0.00    +0.000 A 
ATOM     19  C   UNL     1     110.736 126.291 137.549  0.00  0.00    +0.000 A 
ATOM     20  C   UNL     1     111.086 125.035 136.837  0.00  0.00    +0.000 A 
ATOM     21  C   UNL     1     111.013 125.478 137.570  0.00  0.00    +0.000 A 
BRANCH  20  22
ATOM     22  O   UNL     1     111.352 124.254 136.849  0.00  0.00    +0.000 OA
ATOM     23  C   UNL     1     112.159 124.094 136.905  0.00  0.00    +0.000 C 
ENDBRANCH  20  22
ENDBRANCH   2  13
BRANCH   3  24
ATOM     24  O   UNL     1     109.011 130.912 136.005  0.00  0.00    +0.000 OA
BRANCH  24  32
ATOM     25  O   UNL     1     109.476 131.321 137.293  0.00  0.00    +0.000 OA
ATOM     26  O   UNL     1     110.207 133.485 136.341  0.00  0.00    +0.000 OA
ATOM     27  O   UNL     1     109.499 132.355 135.371  0.00  0.00    +0.000 OA
ATOM     28  O   UNL     1     110.428 133.173 137.946  0.00  0.00    +0.000 OA
ATOM     29  C   UNL     1     109.963 132.764 136.659  0.00  0.00    +0.000 C 
ATOM     30  C   UNL     1     109.609 132.199 136.173  0.00  0.00    +0.000 C 
ATOM     31  C   UNL     1     110.074 132.608 137.461  0.00  0.00    +0.000 C 
ATOM     32  C   UNL     1     109.365 131.477 136.490  0.00  0.00    +0.000 C 
ATOM     33  C   UNL     1     109.830 131.887 137.778  0.00  0.00    +0.000 C 
BRANCH  33  36
ATOM     34  O   UNL     1     110.686 131.508 138.858  0.00  0.00    +0.000 OA
ATOM     35  O   UNL     1     109.307 131.795 139.105  0.00  0.00    +0.000 OA
ATOM     36  C   UNL     1     109.940 131.730 138.580  0.00  0.00    +0.000 C 
ENDBRANCH  33  36
ENDBRANCH  24  32
ENDBRANCH   3  24
TORSDOF 5
ENDMDL
MODEL 3
REMARK VINA RESULT:      -9.3      4.224      6.462
REMARK  Name = 131835114
REMARK  5 active torsions:
REMARK  status: ('A' for Active; 'I' for Inactive)
REMARK    1  A    between atoms: O_2  and  C_18
REMARK    2  A    between atoms: O_2  and  C_24
REMARK    3  A    between atoms: O_13  and  C_34
REMARK    4  A    between atoms: C_19  and  C_21
REMARK    5  A    between atoms: C_20  and  C_23
REMARK                            x       y       z     vdW  Elec       q    Type
REMARK                         _______ _______ _______ _____ _____    ______ ____
ROOT
ATOM      1  O   UNL     1     112.151 128.070 138.382  0.00  0.00    +0.000 OA
ATOM      2  C   UNL     1     110.982 128.643 136.630  0.00  0.00    +0.000 A 
ATOM      3  C   UNL     1     112.287 127.707 137.006  0.00  0.00    +0.000 A 
ATOM      4  C   UNL     1     111.893 128.122 137.599  0.00  0.00    +0.000 A 
ATOM      5  C   UNL     1     111.240 128.590 137.411  0.00  0.00    +0.000 A 
ATOM      6  C   UNL     1     111.377 128.227 136.036  0.00  0.00    +0.000 A 
ATOM      7  C   UNL     1     112.030 127.759 136.224  0.00  0.00    +0.000 A 
ENDROOT
BRANCH   2  13
ATOM      8  O   UNL     1     110.415 129.928 136.369  0.00  0.00    +0.000 OA
ATOM      9  O   UNL     1     109.505 127.944 136.397  0.00  0.00    +0.000 OA
ATOM     10  O   UNL     1     108.200 128.880 136.020  0.00  0.00    +0.000 OA
ATOM     11  O   UNL     1     107.602 130.165 135.754  0.00  0.00    +0.000 OA
ATOM     12  O   UNL     1     109.275 132.556 135.842  0.00  0.00    +0.000 OA
ATOM     13  C   UNL     1     110.329 129.111 136.441  0.00  0.00    +0.000 C 
ATOM     14  C   UNL     1     109.591 128.761 136.325  0.00  0.00    +0.000 C 
ATOM     15  C   UNL     1     108.938 129.229 136.137  0.00  0.00    +0.000 C 
ATOM     16  C   UNL     1     109.023 130.046 136.065  0.00  0.00    +0.000 A 
ATOM     17  C   UNL     1     109.762 130.396 136.181  0.00  0.00    +0.000 A 
ATOM     18  C   UNL     1     108.336 130.523 135.868  0.00  0.00    +0.000 A 
ATOM     19  C   UNL     1     109.863 131.247 136.109  0.00  0.00    +0.000 A 
ATOM     20  C   UNL     1     108.418 131.375 135.792  0.00  0.00    +0.000 A 
ATOM     21  C   UNL     1     109.187 131.739 135.913  0.00  0.00    +0.000 A 
BRANCH  20  22
ATOM     22  O   UNL     1     107.763 131.841 135.603  0.00  0.00    +0.000 OA
ATOM     23  C   UNL     1     107.682 132.149 134.842  0.00  0.00    +0.000 C 
ENDBRANCH  20  22
ENDBRANCH   2  13
BRANCH   3  24
ATOM     24  O   UNL     1     112.940 127.239 137.195  0.00  0.00    +0.000 OA
BRANCH  24  32
ATOM     25  O   UNL     1     112.268 125.978 137.186  0.00  0.00    +0.000 OA
ATOM     26  O   UNL     1     114.255 124.927 136.149  0.00  0.00    +0.000 OA
ATOM     27  O   UNL     1     114.264 126.538 136.503  0.00  0.00    +0.000 OA
ATOM     28  O   UNL     1     112.921 124.017 136.485  0.00  0.00    +0.000 OA
ATOM     29  C   UNL     1     113.592 125.277 136.494  0.00  0.00    +0.000 C 
ATOM     30  C   UNL     1     113.598 126.083 136.671  0.00  0.00    +0.000 C 
ATOM     31  C   UNL     1     112.926 124.822 136.663  0.00  0.00    +0.000 C 
ATOM     32  C   UNL     1     112.936 126.433 137.017  0.00  0.00    +0.000 C 
ATOM     33  C   UNL     1     112.264 125.172 137.008  0.00  0.00    +0.000 C 
BRANCH  33  36
ATOM     34  O   UNL     1     111.489 124.409 137.935  0.00  0.00    +0.000 OA
ATOM     35  O   UNL     1     111.038 124.570 136.588  0.00  0.00    +0.000 OA
ATOM     36  C   UNL     1     111.597 124.717 137.177  0.00  0.00    +0.000 C 
ENDBRANCH  33  36
ENDBRANCH  24  32
ENDBRANCH   3  24
TORSDOF 5
ENDMDL
MODEL 4
REMARK VINA RESULT:      -9.2      3.804      6.453
REMARK  Name = 131835114
REMARK  5 active torsions:
REMARK  status: ('A' for Active; 'I' for Inactive)
REMARK    1  A    between atoms: O_2  and  C_18
REMARK    2  A    between atoms: O_2  and  C_24
REMARK    3  A    between atoms: O_13  and  C_34
REMARK    4  A    between atoms: C_19  and  C_21
REMARK    5  A    between atoms: C_20  and  C_23
REMARK                            x       y       z     vdW  Elec       q    Type
REMARK                         _______ _______ _______ _____ _____    ______ ____
ROOT
ATOM      1  O   UNL     1     110.089 126.012 138.447  0.00  0.00    +0.000 OA
ATOM      2  C   UNL     1     110.018 127.356 136.728  0.00  0.00    +0.000 A 
ATOM      3  C   UNL     1     110.654 125.890 137.140  0.00  0.00    +0.000 A 
ATOM      4  C   UNL     1     110.213 126.317 137.690  0.00  0.00    +0.000 A 
ATOM      5  C   UNL     1     109.895 127.049 137.484  0.00  0.00    +0.000 A 
ATOM      6  C   UNL     1     110.460 126.928 136.177  0.00  0.00    +0.000 A 
ATOM      7  C   UNL     1     110.778 126.195 136.383  0.00  0.00    +0.000 A 
ENDROOT
BRANCH   2  13
ATOM      8  O   UNL     1     110.142 128.776 136.635  0.00  0.00    +0.000 OA
ATOM      9  O   UNL     1     108.498 127.445 136.092  0.00  0.00    +0.000 OA
ATOM     10  O   UNL     1     107.861 128.911 135.680  0.00  0.00    +0.000 OA
ATOM     11  O   UNL     1     107.960 130.346 135.575  0.00  0.00    +0.000 OA
ATOM     12  O   UNL     1     110.411 131.670 136.451  0.00  0.00    +0.000 OA
ATOM     13  C   UNL     1     109.699 128.088 136.522  0.00  0.00    +0.000 C 
ATOM     14  C   UNL     1     108.940 128.133 136.204  0.00  0.00    +0.000 C 
ATOM     15  C   UNL     1     108.622 128.866 135.998  0.00  0.00    +0.000 C 
ATOM     16  C   UNL     1     109.063 129.554 136.110  0.00  0.00    +0.000 A 
ATOM     17  C   UNL     1     109.823 129.509 136.429  0.00  0.00    +0.000 A 
ATOM     18  C   UNL     1     108.721 130.311 135.892  0.00  0.00    +0.000 A 
ATOM     19  C   UNL     1     110.293 130.219 136.551  0.00  0.00    +0.000 A 
ATOM     20  C   UNL     1     109.175 131.031 136.006  0.00  0.00    +0.000 A 
ATOM     21  C   UNL     1     109.967 130.984 136.338  0.00  0.00    +0.000 A 
BRANCH  20  22
ATOM     22  O   UNL     1     108.855 131.763 135.800  0.00  0.00    +0.000 OA
ATOM     23  C   UNL     1     109.005 132.083 135.054  0.00  0.00    +0.000 C 
ENDBRANCH  20  22
ENDBRANCH   2  13
BRANCH   3  24
ATOM     24  O   UNL     1     110.973 125.157 137.346  0.00  0.00    +0.000 OA
BRANCH  24  32
ATOM     25  O   UNL     1     112.301 125.587 137.649  0.00  0.00    +0.000 OA
ATOM     26  O   UNL     1     113.208 123.576 136.528  0.00  0.00    +0.000 OA
ATOM     27  O   UNL     1     111.577 123.816 136.598  0.00  0.00    +0.000 OA
ATOM     28  O   UNL     1     114.233 124.676 137.205  0.00  0.00    +0.000 OA
ATOM     29  C   UNL     1     112.906 124.246 136.902  0.00  0.00    +0.000 C 
ATOM     30  C   UNL     1     112.090 124.366 136.937  0.00  0.00    +0.000 C 
ATOM     31  C   UNL     1     113.419 124.796 137.240  0.00  0.00    +0.000 C 
ATOM     32  C   UNL     1     111.788 125.036 137.310  0.00  0.00    +0.000 C 
ATOM     33  C   UNL     1     113.116 125.466 137.614  0.00  0.00    +0.000 C 
BRANCH  33  36
ATOM     34  O   UNL     1     113.789 125.987 138.762  0.00  0.00    +0.000 OA
ATOM     35  O   UNL     1     113.981 126.596 137.483  0.00  0.00    +0.000 OA
ATOM     36  C   UNL     1     113.629 126.017 137.953  0.00  0.00    +0.000 C 
ENDBRANCH  33  36
ENDBRANCH  24  32
ENDBRANCH   3  24
TORSDOF 5
ENDMDL
MODEL 5
REMARK VINA RESULT:      -9.2      7.911      9.884
REMARK  Name = 131835114
REMARK  5 active torsions:
REMARK  status: ('A' for Active; 'I' for Inactive)
REMARK    1  A    between atoms: O_2  and  C_18
REMARK    2  A    between atoms: O_2  and  C_24
REMARK    3  A    between atoms: O_13  and  C_34
REMARK    4  A    between atoms: C_19  and  C_21
REMARK    5  A    between atoms: C_20  and  C_23
REMARK                            x       y       z     vdW  Elec       q    Type
REMARK                         _______ _______ _______ _____ _____    ______ ____
ROOT
ATOM      1  O   UNL     1     106.135 124.949 143.070  0.00  0.00    +0.000 OA
ATOM      2  C   UNL     1     105.877 125.735 145.089  0.00  0.00    +0.000 A 
ATOM      3  C   UNL     1     105.782 126.256 143.527  0.00  0.00    +0.000 A 
ATOM      4  C   UNL     1     105.982 125.473 143.689  0.00  0.00    +0.000 A 
ATOM      5  C   UNL     1     106.030 125.213 144.470  0.00  0.00    +0.000 A 
ATOM      6  C   UNL     1     105.676 126.520 144.927  0.00  0.00    +0.000 A 
ATOM      7  C   UNL     1     105.629 126.780 144.146  0.00  0.00    +0.000 A 
ENDROOT
BRANCH   2  13
ATOM      8  O   UNL     1     106.655 125.447 146.252  0.00  0.00    +0.000 OA
ATOM      9  O   UNL     1     104.510 125.271 145.889  0.00  0.00    +0.000 OA
ATOM     10  O   UNL     1     104.605 124.750 147.451  0.00  0.00    +0.000 OA
ATOM     11  O   UNL     1     105.367 124.451 148.639  0.00  0.00    +0.000 OA
ATOM     12  O   UNL     1     108.258 124.864 148.614  0.00  0.00    +0.000 OA
ATOM     13  C   UNL     1     105.924 125.475 145.871  0.00  0.00    +0.000 C 
ATOM     14  C   UNL     1     105.241 125.243 146.270  0.00  0.00    +0.000 C 
ATOM     15  C   UNL     1     105.289 124.982 147.051  0.00  0.00    +0.000 C 
ATOM     16  C   UNL     1     106.019 124.954 147.434  0.00  0.00    +0.000 A 
ATOM     17  C   UNL     1     106.703 125.186 147.034  0.00  0.00    +0.000 A 
ATOM     18  C   UNL     1     106.055 124.681 148.247  0.00  0.00    +0.000 A 
ATOM     19  C   UNL     1     107.470 125.161 147.421  0.00  0.00    +0.000 A 
ATOM     20  C   UNL     1     106.814 124.649 148.651  0.00  0.00    +0.000 A 
ATOM     21  C   UNL     1     107.525 124.891 148.235  0.00  0.00    +0.000 A 
BRANCH  20  22
ATOM     22  O   UNL     1     106.858 124.388 149.433  0.00  0.00    +0.000 OA
ATOM     23  C   UNL     1     107.256 123.688 149.612  0.00  0.00    +0.000 C 
ENDBRANCH  20  22
ENDBRANCH   2  13
BRANCH   3  24
ATOM     24  O   UNL     1     105.735 126.517 142.745  0.00  0.00    +0.000 OA
BRANCH  24  32
ATOM     25  O   UNL     1     106.988 127.201 142.682  0.00  0.00    +0.000 OA
ATOM     26  O   UNL     1     105.927 129.023 141.385  0.00  0.00    +0.000 OA
ATOM     27  O   UNL     1     105.028 127.731 141.881  0.00  0.00    +0.000 OA
ATOM     28  O   UNL     1     107.533 129.099 141.754  0.00  0.00    +0.000 OA
ATOM     29  C   UNL     1     106.281 128.415 141.818  0.00  0.00    +0.000 C 
ATOM     30  C   UNL     1     105.830 127.770 142.065  0.00  0.00    +0.000 C 
ATOM     31  C   UNL     1     107.083 128.454 142.002  0.00  0.00    +0.000 C 
ATOM     32  C   UNL     1     106.184 127.163 142.497  0.00  0.00    +0.000 C 
ATOM     33  C   UNL     1     107.437 127.847 142.434  0.00  0.00    +0.000 C 
BRANCH  33  36
ATOM     34  O   UNL     1     108.496 128.352 143.250  0.00  0.00    +0.000 OA
ATOM     35  O   UNL     1     108.787 127.456 142.174  0.00  0.00    +0.000 OA
ATOM     36  C   UNL     1     108.240 127.885 142.619  0.00  0.00    +0.000 C 
ENDBRANCH  33  36
ENDBRANCH  24  32
ENDBRANCH   3  24
TORSDOF 5
ENDMDL
MODEL 6
REMARK VINA RESULT:      -9.2      4.362      7.204
REMARK  Name = 131835114
REMARK  5 active torsions:
REMARK  status: ('A' for Active; 'I' for Inactive)
REMARK    1  A    between atoms: O_2  and  C_18
REMARK    2  A    between atoms: O_2  and  C_24
REMARK    3  A    between atoms: O_13  and  C_34
REMARK    4  A    between atoms: C_19  and  C_21
REMARK    5  A    between atoms: C_20  and  C_23
REMARK                            x       y       z     vdW  Elec       q    Type
REMARK                         _______ _______ _______ _____ _____    ______ ____
ROOT
ATOM      1  O   UNL     1     108.396 127.057 136.504  0.00  0.00    +0.000 OA
ATOM      2  C   UNL     1     109.733 128.714 136.023  0.00  0.00    +0.000 A 
ATOM      3  C   UNL     1     109.728 127.065 135.986  0.00  0.00    +0.000 A 
ATOM      4  C   UNL     1     109.064 127.473 136.254  0.00  0.00    +0.000 A 
ATOM      5  C   UNL     1     109.066 128.298 136.273  0.00  0.00    +0.000 A 
ATOM      6  C   UNL     1     110.398 128.305 135.755  0.00  0.00    +0.000 A 
ATOM      7  C   UNL     1     110.395 127.480 135.736  0.00  0.00    +0.000 A 
ENDROOT
BRANCH   2  13
ATOM      8  O   UNL     1     110.037 129.935 136.701  0.00  0.00    +0.000 OA
ATOM      9  O   UNL     1     109.137 129.570 134.745  0.00  0.00    +0.000 OA
ATOM     10  O   UNL     1     109.142 131.220 134.782  0.00  0.00    +0.000 OA
ATOM     11  O   UNL     1     109.438 132.467 135.444  0.00  0.00    +0.000 OA
ATOM     12  O   UNL     1     110.662 132.415 138.095  0.00  0.00    +0.000 OA
ATOM     13  C   UNL     1     109.736 129.539 136.042  0.00  0.00    +0.000 C 
ATOM     14  C   UNL     1     109.438 129.967 135.403  0.00  0.00    +0.000 C 
ATOM     15  C   UNL     1     109.441 130.791 135.422  0.00  0.00    +0.000 C 
ATOM     16  C   UNL     1     109.741 131.189 136.079  0.00  0.00    +0.000 A 
ATOM     17  C   UNL     1     110.039 130.760 136.719  0.00  0.00    +0.000 A 
ATOM     18  C   UNL     1     109.738 132.048 136.087  0.00  0.00    +0.000 A 
ATOM     19  C   UNL     1     110.355 131.162 137.410  0.00  0.00    +0.000 A 
ATOM     20  C   UNL     1     110.050 132.467 136.770  0.00  0.00    +0.000 A 
ATOM     21  C   UNL     1     110.360 132.021 137.435  0.00  0.00    +0.000 A 
BRANCH  20  22
ATOM     22  O   UNL     1     110.052 133.292 136.786  0.00  0.00    +0.000 OA
ATOM     23  C   UNL     1     110.746 133.707 136.622  0.00  0.00    +0.000 C 
ENDBRANCH  20  22
ENDBRANCH   2  13
BRANCH   3  24
ATOM     24  O   UNL     1     109.725 126.240 135.967  0.00  0.00    +0.000 OA
BRANCH  24  32
ATOM     25  O   UNL     1     110.454 125.971 137.167  0.00  0.00    +0.000 OA
ATOM     26  O   UNL     1     111.762 124.236 135.982  0.00  0.00    +0.000 OA
ATOM     27  O   UNL     1     110.597 125.083 135.178  0.00  0.00    +0.000 OA
ATOM     28  O   UNL     1     112.054 124.545 137.576  0.00  0.00    +0.000 OA
ATOM     29  C   UNL     1     111.326 124.814 136.377  0.00  0.00    +0.000 C 
ATOM     30  C   UNL     1     110.743 125.237 135.974  0.00  0.00    +0.000 C 
ATOM     31  C   UNL     1     111.472 124.968 137.173  0.00  0.00    +0.000 C 
ATOM     32  C   UNL     1     110.307 125.816 136.369  0.00  0.00    +0.000 C 
ATOM     33  C   UNL     1     111.036 125.547 137.568  0.00  0.00    +0.000 C 
BRANCH  33  36
ATOM     34  O   UNL     1     111.777 126.233 138.580  0.00  0.00    +0.000 OA
ATOM     35  O   UNL     1     110.734 125.326 138.948  0.00  0.00    +0.000 OA
ATOM     36  C   UNL     1     111.182 125.701 138.365  0.00  0.00    +0.000 C 
ENDBRANCH  33  36
ENDBRANCH  24  32
ENDBRANCH   3  24
TORSDOF 5
ENDMDL
MODEL 7
REMARK VINA RESULT:      -9.1      4.227      5.084
REMARK  Name = 131835114
REMARK  5 active torsions:
REMARK  status: ('A' for Active; 'I' for Inactive)
REMARK    1  A    between atoms: O_2  and  C_18
REMARK    2  A    between atoms: O_2  and  C_24
REMARK    3  A    between atoms: O_13  and  C_34
REMARK    4  A    between atoms: C_19  and  C_21
REMARK    5  A    between atoms: C_20  and  C_23
REMARK                            x       y       z     vdW  Elec       q    Type
REMARK                         _______ _______ _______ _____ _____    ______ ____
ROOT
ATOM      1  O   UNL     1     110.071 129.918 134.612  0.00  0.00    +0.000 OA
ATOM      2  C   UNL     1     110.190 128.176 135.922  0.00  0.00    +0.000 A 
ATOM      3  C   UNL     1     109.475 129.663 135.886  0.00  0.00    +0.000 A 
ATOM      4  C   UNL     1     109.951 129.419 135.258  0.00  0.00    +0.000 A 
ATOM      5  C   UNL     1     110.308 128.676 135.276  0.00  0.00    +0.000 A 
ATOM      6  C   UNL     1     109.713 128.420 136.550  0.00  0.00    +0.000 A 
ATOM      7  C   UNL     1     109.356 129.164 136.532  0.00  0.00    +0.000 A 
ENDROOT
BRANCH   2  13
ATOM      8  O   UNL     1     111.311 127.350 136.238  0.00  0.00    +0.000 OA
ATOM      9  O   UNL     1     109.375 126.856 135.360  0.00  0.00    +0.000 OA
ATOM     10  O   UNL     1     110.089 125.369 135.396  0.00  0.00    +0.000 OA
ATOM     11  O   UNL     1     111.207 124.512 135.706  0.00  0.00    +0.000 OA
ATOM     12  O   UNL     1     113.607 125.679 136.890  0.00  0.00    +0.000 OA
ATOM     13  C   UNL     1     110.547 127.432 135.939  0.00  0.00    +0.000 C 
ATOM     14  C   UNL     1     110.139 126.773 135.659  0.00  0.00    +0.000 C 
ATOM     15  C   UNL     1     110.496 126.029 135.677  0.00  0.00    +0.000 C 
ATOM     16  C   UNL     1     111.261 125.945 135.975  0.00  0.00    +0.000 A 
ATOM     17  C   UNL     1     111.668 126.606 136.256  0.00  0.00    +0.000 A 
ATOM     18  C   UNL     1     111.622 125.166 135.988  0.00  0.00    +0.000 A 
ATOM     19  C   UNL     1     112.466 126.532 136.570  0.00  0.00    +0.000 A 
ATOM     20  C   UNL     1     112.418 125.072 136.298  0.00  0.00    +0.000 A 
ATOM     21  C   UNL     1     112.842 125.760 136.591  0.00  0.00    +0.000 A 
BRANCH  20  22
ATOM     22  O   UNL     1     112.773 124.327 136.315  0.00  0.00    +0.000 OA
ATOM     23  C   UNL     1     112.848 123.922 137.030  0.00  0.00    +0.000 C 
ENDBRANCH  20  22
ENDBRANCH   2  13
BRANCH   3  24
ATOM     24  O   UNL     1     109.118 130.406 135.868  0.00  0.00    +0.000 OA
BRANCH  24  32
ATOM     25  O   UNL     1     109.977 131.139 136.744  0.00  0.00    +0.000 OA
ATOM     26  O   UNL     1     107.998 132.066 137.907  0.00  0.00    +0.000 OA
ATOM     27  O   UNL     1     107.799 131.024 136.643  0.00  0.00    +0.000 OA
ATOM     28  O   UNL     1     109.515 132.489 138.396  0.00  0.00    +0.000 OA
ATOM     29  C   UNL     1     108.657 131.757 137.520  0.00  0.00    +0.000 C 
ATOM     30  C   UNL     1     108.557 131.236 136.888  0.00  0.00    +0.000 C 
ATOM     31  C   UNL     1     109.415 131.969 137.764  0.00  0.00    +0.000 C 
ATOM     32  C   UNL     1     109.217 130.927 136.500  0.00  0.00    +0.000 C 
ATOM     33  C   UNL     1     110.075 131.660 137.376  0.00  0.00    +0.000 C 
BRANCH  33  36
ATOM     34  O   UNL     1     111.177 131.499 138.272  0.00  0.00    +0.000 OA
ATOM     35  O   UNL     1     111.251 132.456 137.213  0.00  0.00    +0.000 OA
ATOM     36  C   UNL     1     110.834 131.872 137.620  0.00  0.00    +0.000 C 
ENDBRANCH  33  36
ENDBRANCH  24  32
ENDBRANCH   3  24
TORSDOF 5
ENDMDL
MODEL 8
REMARK VINA RESULT:      -9.1      8.336     10.075
REMARK  Name = 131835114
REMARK  5 active torsions:
REMARK  status: ('A' for Active; 'I' for Inactive)
REMARK    1  A    between atoms: O_2  and  C_18
REMARK    2  A    between atoms: O_2  and  C_24
REMARK    3  A    between atoms: O_13  and  C_34
REMARK    4  A    between atoms: C_19  and  C_21
REMARK    5  A    between atoms: C_20  and  C_23
REMARK                            x       y       z     vdW  Elec       q    Type
REMARK                         _______ _______ _______ _____ _____    ______ ____
ROOT
ATOM      1  O   UNL     1     107.457 127.918 144.974  0.00  0.00    +0.000 OA
ATOM      2  C   UNL     1     105.644 127.574 143.808  0.00  0.00    +0.000 A 
ATOM      3  C   UNL     1     106.509 126.848 145.011  0.00  0.00    +0.000 A 
ATOM      4  C   UNL     1     106.767 127.564 144.692  0.00  0.00    +0.000 A 
ATOM      5  C   UNL     1     106.334 127.926 144.090  0.00  0.00    +0.000 A 
ATOM      6  C   UNL     1     105.387 126.857 144.127  0.00  0.00    +0.000 A 
ATOM      7  C   UNL     1     105.819 126.494 144.729  0.00  0.00    +0.000 A 
ENDROOT
BRANCH   2  13
ATOM      8  O   UNL     1     104.749 128.599 143.373  0.00  0.00    +0.000 OA
ATOM      9  O   UNL     1     105.703 126.973 142.272  0.00  0.00    +0.000 OA
ATOM     10  O   UNL     1     104.838 127.698 141.069  0.00  0.00    +0.000 OA
ATOM     11  O   UNL     1     103.935 128.723 140.603  0.00  0.00    +0.000 OA
ATOM     12  O   UNL     1     102.924 130.696 142.503  0.00  0.00    +0.000 OA
ATOM     13  C   UNL     1     105.211 127.936 143.206  0.00  0.00    +0.000 C 
ATOM     14  C   UNL     1     105.241 127.636 142.439  0.00  0.00    +0.000 C 
ATOM     15  C   UNL     1     104.808 127.998 141.837  0.00  0.00    +0.000 C 
ATOM     16  C   UNL     1     104.346 128.661 142.003  0.00  0.00    +0.000 A 
ATOM     17  C   UNL     1     104.316 128.961 142.771  0.00  0.00    +0.000 A 
ATOM     18  C   UNL     1     103.900 129.030 141.368  0.00  0.00    +0.000 A 
ATOM     19  C   UNL     1     103.838 129.652 142.957  0.00  0.00    +0.000 A 
ATOM     20  C   UNL     1     103.416 129.721 141.534  0.00  0.00    +0.000 A 
ATOM     21  C   UNL     1     103.385 130.033 142.334  0.00  0.00    +0.000 A 
BRANCH  20  22
ATOM     22  O   UNL     1     102.984 130.081 140.931  0.00  0.00    +0.000 OA
ATOM     23  C   UNL     1     102.172 129.950 140.870  0.00  0.00    +0.000 C 
ENDBRANCH  20  22
ENDBRANCH   2  13
BRANCH   3  24
ATOM     24  O   UNL     1     106.942 126.486 145.613  0.00  0.00    +0.000 OA
BRANCH  24  32
ATOM     25  O   UNL     1     106.072 126.742 146.716  0.00  0.00    +0.000 OA
ATOM     26  O   UNL     1     106.395 124.421 147.511  0.00  0.00    +0.000 OA
ATOM     27  O   UNL     1     107.158 124.938 146.142  0.00  0.00    +0.000 OA
ATOM     28  O   UNL     1     105.417 125.451 148.349  0.00  0.00    +0.000 OA
ATOM     29  C   UNL     1     106.287 125.195 147.246  0.00  0.00    +0.000 C 
ATOM     30  C   UNL     1     106.669 125.453 146.562  0.00  0.00    +0.000 C 
ATOM     31  C   UNL     1     105.799 125.709 147.665  0.00  0.00    +0.000 C 
ATOM     32  C   UNL     1     106.561 126.227 146.297  0.00  0.00    +0.000 C 
ATOM     33  C   UNL     1     105.691 126.483 147.401  0.00  0.00    +0.000 C 
BRANCH  33  36
ATOM     34  O   UNL     1     104.386 126.992 147.687  0.00  0.00    +0.000 OA
ATOM     35  O   UNL     1     105.526 127.520 148.370  0.00  0.00    +0.000 OA
ATOM     36  C   UNL     1     105.202 126.999 147.819  0.00  0.00    +0.000 C 
ENDBRANCH  33  36
ENDBRANCH  24  32
ENDBRANCH   3  24
TORSDOF 5
ENDMDL
MODEL 9
REMARK VINA RESULT:      -9.1      8.196     10.778
REMARK  Name = 131835114
REMARK  5 active torsions:
REMARK  status: ('A' for Active; 'I' for Inactive)
REMARK    1  A    between atoms: O_2  and  C_18
REMARK    2  A    between atoms: O_2  and  C_24
REMARK    3  A    between atoms: O_13  and  C_34
REMARK    4  A    between atoms: C_19  and  C_21
REMARK    5  A    between atoms: C_20  and  C_23
REMARK                            x       y       z     vdW  Elec       q    Type
REMARK                         _______ _______ _______ _____ _____    ______ ____
ROOT
ATOM      1  O   UNL     1     104.085 127.977 140.741  0.00  0.00    +0.000 OA
ATOM      2  C   UNL     1     103.952 129.776 141.971  0.00  0.00    +0.000 A 
ATOM      3  C   UNL     1     104.555 128.242 142.064  0.00  0.00    +0.000 A 
ATOM      4  C   UNL     1     104.169 128.493 141.380  0.00  0.00    +0.000 A 
ATOM      5  C   UNL     1     103.868 129.259 141.333  0.00  0.00    +0.000 A 
ATOM      6  C   UNL     1     104.338 129.525 142.656  0.00  0.00    +0.000 A 
ATOM      7  C   UNL     1     104.639 128.758 142.703  0.00  0.00    +0.000 A 
ENDROOT
BRANCH   2  13
ATOM      8  O   UNL     1     102.888 130.702 142.197  0.00  0.00    +0.000 OA
ATOM      9  O   UNL     1     104.873 130.987 141.332  0.00  0.00    +0.000 OA
ATOM     10  O   UNL     1     104.270 132.520 141.239  0.00  0.00    +0.000 OA
ATOM     11  O   UNL     1     103.212 133.476 141.456  0.00  0.00    +0.000 OA
ATOM     12  O   UNL     1     100.710 132.579 142.665  0.00  0.00    +0.000 OA
ATOM     13  C   UNL     1     103.650 130.542 141.924  0.00  0.00    +0.000 C 
ATOM     14  C   UNL     1     104.110 131.147 141.605  0.00  0.00    +0.000 C 
ATOM     15  C   UNL     1     103.809 131.914 141.558  0.00  0.00    +0.000 C 
ATOM     16  C   UNL     1     103.047 132.075 141.831  0.00  0.00    +0.000 A 
ATOM     17  C   UNL     1     102.587 131.469 142.151  0.00  0.00    +0.000 A 
ATOM     18  C   UNL     1     102.745 132.877 141.777  0.00  0.00    +0.000 A 
ATOM     19  C   UNL     1     101.791 131.625 142.438  0.00  0.00    +0.000 A 
ATOM     20  C   UNL     1     101.952 133.052 142.059  0.00  0.00    +0.000 A 
ATOM     21  C   UNL     1     101.472 132.421 142.392  0.00  0.00    +0.000 A 
BRANCH  20  22
ATOM     22  O   UNL     1     101.653 133.819 142.011  0.00  0.00    +0.000 OA
ATOM     23  C   UNL     1     101.114 134.016 141.418  0.00  0.00    +0.000 C 
ENDBRANCH  20  22
ENDBRANCH   2  13
BRANCH   3  24
ATOM     24  O   UNL     1     104.856 127.476 142.111  0.00  0.00    +0.000 OA
BRANCH  24  32
ATOM     25  O   UNL     1     106.232 127.794 141.895  0.00  0.00    +0.000 OA
ATOM     26  O   UNL     1     106.887 126.119 143.595  0.00  0.00    +0.000 OA
ATOM     27  O   UNL     1     105.293 126.359 143.245  0.00  0.00    +0.000 OA
ATOM     28  O   UNL     1     108.044 126.996 142.812  0.00  0.00    +0.000 OA
ATOM     29  C   UNL     1     106.669 126.678 143.028  0.00  0.00    +0.000 C 
ATOM     30  C   UNL     1     105.871 126.797 142.854  0.00  0.00    +0.000 C 
ATOM     31  C   UNL     1     107.247 127.116 142.637  0.00  0.00    +0.000 C 
ATOM     32  C   UNL     1     105.653 127.355 142.287  0.00  0.00    +0.000 C 
ATOM     33  C   UNL     1     107.029 127.674 142.071  0.00  0.00    +0.000 C 
BRANCH  33  36
ATOM     34  O   UNL     1     107.912 128.796 142.027  0.00  0.00    +0.000 OA
ATOM     35  O   UNL     1     107.881 127.868 140.940  0.00  0.00    +0.000 OA
ATOM     36  C   UNL     1     107.608 128.113 141.679  0.00  0.00    +0.000 C 
ENDBRANCH  33  36
ENDBRANCH  24  32
ENDBRANCH   3  24
TORSDOF 5
ENDMDL
MODEL 10
REMARK VINA RESULT:      -9.0      2.539      5.898
REMARK  Name = 131835114
REMARK  5 active torsions:
REMARK  status: ('A' for Active; 'I' for Inactive)
REMARK    1  A    between atoms: O_2  and  C_18
REMARK    2  A    between atoms: O_2  and  C_24
REMARK    3  A    between atoms: O_13  and  C_34
REMARK    4  A    between atoms: C_19  and  C_21
REMARK    5  A    between atoms: C_20  and  C_23
REMARK                            x       y       z     vdW  Elec       q    Type
REMARK                         _______ _______ _______ _____ _____    ______ ____
ROOT
ATOM      1  O   UNL     1     112.318 126.350 140.108  0.00  0.00    +0.000 OA
ATOM      2  C   UNL     1     112.132 128.195 138.957  0.00  0.00    +0.000 A 
ATOM      3  C   UNL     1     113.011 126.798 138.941  0.00  0.00    +0.000 A 
ATOM      4  C   UNL     1     112.445 126.923 139.528  0.00  0.00    +0.000 A 
ATOM      5  C   UNL     1     112.005 127.621 139.536  0.00  0.00    +0.000 A 
ATOM      6  C   UNL     1     112.698 128.070 138.369  0.00  0.00    +0.000 A 
ATOM      7  C   UNL     1     113.138 127.372 138.362  0.00  0.00    +0.000 A 
ENDROOT
BRANCH   2  13
ATOM      8  O   UNL     1     110.942 128.911 138.621  0.00  0.00    +0.000 OA
ATOM      9  O   UNL     1     112.752 129.553 139.659  0.00  0.00    +0.000 OA
ATOM     10  O   UNL     1     111.874 130.949 139.674  0.00  0.00    +0.000 OA
ATOM     11  O   UNL     1     110.684 131.696 139.347  0.00  0.00    +0.000 OA
ATOM     12  O   UNL     1     108.511 130.358 137.928  0.00  0.00    +0.000 OA
ATOM     13  C   UNL     1     111.692 128.893 138.964  0.00  0.00    +0.000 C 
ATOM     14  C   UNL     1     112.002 129.571 139.315  0.00  0.00    +0.000 C 
ATOM     15  C   UNL     1     111.563 130.269 139.323  0.00  0.00    +0.000 C 
ATOM     16  C   UNL     1     110.813 130.289 138.979  0.00  0.00    +0.000 A 
ATOM     17  C   UNL     1     110.503 129.610 138.628  0.00  0.00    +0.000 A 
ATOM     18  C   UNL     1     110.365 131.022 138.994  0.00  0.00    +0.000 A 
ATOM     19  C   UNL     1     109.722 129.617 138.267  0.00  0.00    +0.000 A 
ATOM     20  C   UNL     1     109.583 131.049 138.638  0.00  0.00    +0.000 A 
ATOM     21  C   UNL     1     109.260 130.341 138.272  0.00  0.00    +0.000 A 
BRANCH  20  22
ATOM     22  O   UNL     1     109.146 131.748 138.647  0.00  0.00    +0.000 OA
ATOM     23  C   UNL     1     109.090 132.209 137.964  0.00  0.00    +0.000 C 
ENDBRANCH  20  22
ENDBRANCH   2  13
BRANCH   3  24
ATOM     24  O   UNL     1     113.450 126.100 138.934  0.00  0.00    +0.000 OA
BRANCH  24  32
ATOM     25  O   UNL     1     112.770 125.420 137.877  0.00  0.00    +0.000 OA
ATOM     26  O   UNL     1     114.943 124.663 136.966  0.00  0.00    +0.000 OA
ATOM     27  O   UNL     1     114.899 125.595 138.327  0.00  0.00    +0.000 OA
ATOM     28  O   UNL     1     113.540 124.236 136.214  0.00  0.00    +0.000 OA
ATOM     29  C   UNL     1     114.219 124.915 137.270  0.00  0.00    +0.000 C 
ATOM     30  C   UNL     1     114.197 125.382 137.950  0.00  0.00    +0.000 C 
ATOM     31  C   UNL     1     113.517 124.701 136.893  0.00  0.00    +0.000 C 
ATOM     32  C   UNL     1     113.473 125.634 138.254  0.00  0.00    +0.000 C 
ATOM     33  C   UNL     1     112.793 124.954 137.197  0.00  0.00    +0.000 C 
BRANCH  33  36
ATOM     34  O   UNL     1     111.653 124.098 137.099  0.00  0.00    +0.000 OA
ATOM     35  O   UNL     1     111.825 125.168 136.167  0.00  0.00    +0.000 OA
ATOM     36  C   UNL     1     112.091 124.740 136.821  0.00  0.00    +0.000 C 
ENDBRANCH  33  36
ENDBRANCH  24  32
ENDBRANCH   3  24
TORSDOF 5
ENDMDL
