MODEL 1
REMARK VINA RESULT:      -9.7      0.000      0.000
REMARK  Name = 42607943
REMARK  8 active torsions:
REMARK  status: ('A' for Active; 'I' for Inactive)
REMARK    1  A    between atoms: O_2  and  C_20
REMARK    2  A    between atoms: O_2  and  C_23
REMARK    3  A    between atoms: O_4  and  C_22
REMARK    4  A    between atoms: O_4  and  C_26
REMARK    5  A    between atoms: O_14  and  C_42
REMARK    6  A    between atoms: C_15  and  C_23
REMARK    7  A    between atoms: C_16  and  C_25
REMARK    8  A    between atoms: C_31  and  C_37
REMARK                            x       y       z     vdW  Elec       q    Type
REMARK                         _______ _______ _______ _____ _____    ______ ____
ROOT
ATOM      1  O   UNL     1     112.140 126.403 138.095  0.00  0.00    +0.000 OA
ATOM      2  O   UNL     1     114.764 126.165 139.293  0.00  0.00    +0.000 OA
ATOM      3  O   UNL     1     114.531 125.577 137.995  0.00  0.00    +0.000 OA
ATOM      4  C   UNL     1     112.946 127.127 140.023  0.00  0.00    +0.000 A 
ATOM      5  C   UNL     1     112.428 126.975 139.398  0.00  0.00    +0.000 A 
ATOM      6  C   UNL     1     113.724 126.856 139.987  0.00  0.00    +0.000 A 
ATOM      7  C   UNL     1     112.689 126.554 138.739  0.00  0.00    +0.000 A 
ATOM      8  C   UNL     1     113.467 126.284 138.704  0.00  0.00    +0.000 A 
ATOM      9  C   UNL     1     112.406 125.964 137.406  0.00  0.00    +0.000 C 
ATOM     10  C   UNL     1     113.985 126.435 139.327  0.00  0.00    +0.000 A 
ATOM     11  C   UNL     1     113.217 125.683 137.369  0.00  0.00    +0.000 C 
ATOM     12  C   UNL     1     113.751 125.843 138.022  0.00  0.00    +0.000 C 
ATOM     13  C   UNL     1     111.649 127.246 139.434  0.00  0.00    +0.000 C 
ATOM     14  C   UNL     1     114.242 127.008 140.612  0.00  0.00    +0.000 C 
ENDROOT
BRANCH   9  15
ATOM     15  C   UNL     1     111.886 125.814 136.783  0.00  0.00    +0.000 A 
ATOM     16  C   UNL     1     111.792 126.370 136.180  0.00  0.00    +0.000 A 
ATOM     17  C   UNL     1     111.459 125.109 136.762  0.00  0.00    +0.000 A 
ATOM     18  C   UNL     1     111.272 126.220 135.557  0.00  0.00    +0.000 A 
ATOM     19  C   UNL     1     110.939 124.959 136.139  0.00  0.00    +0.000 A 
ATOM     20  C   UNL     1     110.846 125.515 135.537  0.00  0.00    +0.000 A 
BRANCH  20  21
ATOM     21  O   UNL     1     110.326 125.364 134.915  0.00  0.00    +0.000 OA
ATOM     22  C   UNL     1     109.705 125.885 134.762  0.00  0.00    +0.000 C 
ENDBRANCH  20  21
ENDBRANCH   9  15
BRANCH   4  23
ATOM     23  O   UNL     1     112.685 127.548 140.682  0.00  0.00    +0.000 OA
BRANCH  23  32
ATOM     24  O   UNL     1     113.093 128.772 140.068  0.00  0.00    +0.000 OA
ATOM     25  O   UNL     1     113.151 130.811 140.846  0.00  0.00    +0.000 OA
ATOM     26  O   UNL     1     112.568 129.994 142.155  0.00  0.00    +0.000 OA
ATOM     27  O   UNL     1     112.334 128.363 142.073  0.00  0.00    +0.000 OA
ATOM     28  C   UNL     1     113.210 129.587 140.109  0.00  0.00    +0.000 C 
ATOM     29  C   UNL     1     113.035 129.995 140.805  0.00  0.00    +0.000 C 
ATOM     30  C   UNL     1     112.743 129.587 141.460  0.00  0.00    +0.000 C 
ATOM     31  C   UNL     1     112.626 128.771 141.418  0.00  0.00    +0.000 C 
ATOM     32  C   UNL     1     112.801 128.363 140.723  0.00  0.00    +0.000 C 
BRANCH  28  33
ATOM     33  C   UNL     1     113.502 129.996 139.454  0.00  0.00    +0.000 C 
BRANCH  33  34
ATOM     34  O   UNL     1     113.085 129.989 138.743  0.00  0.00    +0.000 OA
BRANCH  34  40
ATOM     35  O   UNL     1     114.211 130.532 137.969  0.00  0.00    +0.000 OA
ATOM     36  O   UNL     1     113.253 130.088 136.113  0.00  0.00    +0.000 OA
ATOM     37  O   UNL     1     112.454 129.699 137.088  0.00  0.00    +0.000 OA
ATOM     38  C   UNL     1     113.741 130.316 136.738  0.00  0.00    +0.000 C 
ATOM     39  C   UNL     1     113.179 130.044 137.277  0.00  0.00    +0.000 C 
ATOM     40  C   UNL     1     113.469 130.177 138.037  0.00  0.00    +0.000 C 
ATOM     41  C   UNL     1     114.379 130.617 137.166  0.00  0.00    +0.000 C 
BRANCH  38  43
ATOM     42  O   UNL     1     114.008 130.036 135.362  0.00  0.00    +0.000 OA
ATOM     43  C   UNL     1     114.125 130.504 136.032  0.00  0.00    +0.000 C 
ENDBRANCH  38  43
ENDBRANCH  34  40
ENDBRANCH  33  34
ENDBRANCH  28  33
ENDBRANCH  23  32
ENDBRANCH   4  23
TORSDOF 8
ENDMDL
MODEL 2
REMARK VINA RESULT:      -9.6      2.019      5.448
REMARK  Name = 42607943
REMARK  8 active torsions:
REMARK  status: ('A' for Active; 'I' for Inactive)
REMARK    1  A    between atoms: O_2  and  C_20
REMARK    2  A    between atoms: O_2  and  C_23
REMARK    3  A    between atoms: O_4  and  C_22
REMARK    4  A    between atoms: O_4  and  C_26
REMARK    5  A    between atoms: O_14  and  C_42
REMARK    6  A    between atoms: C_15  and  C_23
REMARK    7  A    between atoms: C_16  and  C_25
REMARK    8  A    between atoms: C_31  and  C_37
REMARK                            x       y       z     vdW  Elec       q    Type
REMARK                         _______ _______ _______ _____ _____    ______ ____
ROOT
ATOM      1  O   UNL     1     112.601 127.844 139.533  0.00  0.00    +0.000 OA
ATOM      2  O   UNL     1     109.857 127.145 140.134  0.00  0.00    +0.000 OA
ATOM      3  O   UNL     1     110.383 128.398 140.621  0.00  0.00    +0.000 OA
ATOM      4  C   UNL     1     111.389 126.070 139.010  0.00  0.00    +0.000 A 
ATOM      5  C   UNL     1     112.022 126.596 139.068  0.00  0.00    +0.000 A 
ATOM      6  C   UNL     1     110.668 126.253 139.366  0.00  0.00    +0.000 A 
ATOM      7  C   UNL     1     111.933 127.304 139.481  0.00  0.00    +0.000 A 
ATOM      8  C   UNL     1     111.212 127.487 139.836  0.00  0.00    +0.000 A 
ATOM      9  C   UNL     1     112.515 128.583 139.962  0.00  0.00    +0.000 C 
ATOM     10  C   UNL     1     110.579 126.962 139.779  0.00  0.00    +0.000 A 
ATOM     11  C   UNL     1     111.764 128.774 140.332  0.00  0.00    +0.000 C 
ATOM     12  C   UNL     1     111.108 128.223 140.269  0.00  0.00    +0.000 C 
ATOM     13  C   UNL     1     112.744 126.412 138.712  0.00  0.00    +0.000 C 
ATOM     14  C   UNL     1     110.034 125.727 139.308  0.00  0.00    +0.000 C 
ENDROOT
BRANCH   9  15
ATOM     15  C   UNL     1     113.150 129.107 140.018  0.00  0.00    +0.000 A 
ATOM     16  C   UNL     1     113.699 129.027 140.629  0.00  0.00    +0.000 A 
ATOM     17  C   UNL     1     113.237 129.711 139.462  0.00  0.00    +0.000 A 
ATOM     18  C   UNL     1     114.334 129.551 140.684  0.00  0.00    +0.000 A 
ATOM     19  C   UNL     1     113.872 130.235 139.518  0.00  0.00    +0.000 A 
ATOM     20  C   UNL     1     114.420 130.155 140.129  0.00  0.00    +0.000 A 
BRANCH  20  21
ATOM     21  O   UNL     1     115.055 130.679 140.184  0.00  0.00    +0.000 OA
ATOM     22  C   UNL     1     115.166 131.119 140.873  0.00  0.00    +0.000 C 
ENDBRANCH  20  21
ENDBRANCH   9  15
BRANCH   4  23
ATOM     23  O   UNL     1     111.477 125.361 138.597  0.00  0.00    +0.000 OA
BRANCH  23  32
ATOM     24  O   UNL     1     111.060 126.007 137.393  0.00  0.00    +0.000 OA
ATOM     25  O   UNL     1     110.953 125.272 135.340  0.00  0.00    +0.000 OA
ATOM     26  O   UNL     1     111.525 123.935 136.121  0.00  0.00    +0.000 OA
ATOM     27  O   UNL     1     111.787 123.980 137.749  0.00  0.00    +0.000 OA
ATOM     28  C   UNL     1     110.929 125.985 136.579  0.00  0.00    +0.000 C 
ATOM     29  C   UNL     1     111.084 125.294 136.155  0.00  0.00    +0.000 C 
ATOM     30  C   UNL     1     111.370 124.626 136.545  0.00  0.00    +0.000 C 
ATOM     31  C   UNL     1     111.501 124.648 137.360  0.00  0.00    +0.000 C 
ATOM     32  C   UNL     1     111.346 125.339 137.784  0.00  0.00    +0.000 C 
BRANCH  28  33
ATOM     33  C   UNL     1     110.643 126.653 136.189  0.00  0.00    +0.000 C 
BRANCH  33  34
ATOM     34  O   UNL     1     109.861 126.892 136.297  0.00  0.00    +0.000 OA
BRANCH  34  40
ATOM     35  O   UNL     1     110.157 128.312 136.055  0.00  0.00    +0.000 OA
ATOM     36  O   UNL     1     108.086 128.790 135.848  0.00  0.00    +0.000 OA
ATOM     37  O   UNL     1     108.184 127.497 136.089  0.00  0.00    +0.000 OA
ATOM     38  C   UNL     1     108.910 128.761 135.901  0.00  0.00    +0.000 C 
ATOM     39  C   UNL     1     108.872 127.950 136.046  0.00  0.00    +0.000 C 
ATOM     40  C   UNL     1     109.642 127.672 136.142  0.00  0.00    +0.000 C 
ATOM     41  C   UNL     1     109.703 128.984 135.906  0.00  0.00    +0.000 C 
BRANCH  38  43
ATOM     42  O   UNL     1     107.891 129.740 135.683  0.00  0.00    +0.000 OA
ATOM     43  C   UNL     1     108.690 129.541 135.746  0.00  0.00    +0.000 C 
ENDBRANCH  38  43
ENDBRANCH  34  40
ENDBRANCH  33  34
ENDBRANCH  28  33
ENDBRANCH  23  32
ENDBRANCH   4  23
TORSDOF 8
ENDMDL
MODEL 3
REMARK VINA RESULT:      -9.5      2.038      5.937
REMARK  Name = 42607943
REMARK  8 active torsions:
REMARK  status: ('A' for Active; 'I' for Inactive)
REMARK    1  A    between atoms: O_2  and  C_20
REMARK    2  A    between atoms: O_2  and  C_23
REMARK    3  A    between atoms: O_4  and  C_22
REMARK    4  A    between atoms: O_4  and  C_26
REMARK    5  A    between atoms: O_14  and  C_42
REMARK    6  A    between atoms: C_15  and  C_23
REMARK    7  A    between atoms: C_16  and  C_25
REMARK    8  A    between atoms: C_31  and  C_37
REMARK                            x       y       z     vdW  Elec       q    Type
REMARK                         _______ _______ _______ _____ _____    ______ ____
ROOT
ATOM      1  O   UNL     1     112.605 129.814 137.674  0.00  0.00    +0.000 OA
ATOM      2  O   UNL     1     113.071 128.956 134.949  0.00  0.00    +0.000 OA
ATOM      3  O   UNL     1     114.186 129.018 135.864  0.00  0.00    +0.000 OA
ATOM      4  C   UNL     1     111.234 129.569 135.957  0.00  0.00    +0.000 A 
ATOM      5  C   UNL     1     111.519 129.733 136.713  0.00  0.00    +0.000 A 
ATOM      6  C   UNL     1     111.752 129.310 135.369  0.00  0.00    +0.000 A 
ATOM      7  C   UNL     1     112.321 129.639 136.882  0.00  0.00    +0.000 A 
ATOM      8  C   UNL     1     112.838 129.380 136.294  0.00  0.00    +0.000 A 
ATOM      9  C   UNL     1     113.439 129.717 137.856  0.00  0.00    +0.000 C 
ATOM     10  C   UNL     1     112.554 129.215 135.538  0.00  0.00    +0.000 A 
ATOM     11  C   UNL     1     113.978 129.447 137.244  0.00  0.00    +0.000 C 
ATOM     12  C   UNL     1     113.676 129.277 136.458  0.00  0.00    +0.000 C 
ATOM     13  C   UNL     1     111.001 129.993 137.302  0.00  0.00    +0.000 C 
ATOM     14  C   UNL     1     111.467 129.145 134.612  0.00  0.00    +0.000 C 
ENDROOT
BRANCH   9  15
ATOM     15  C   UNL     1     113.721 129.882 138.614  0.00  0.00    +0.000 A 
ATOM     16  C   UNL     1     113.565 129.362 139.235  0.00  0.00    +0.000 A 
ATOM     17  C   UNL     1     114.159 130.568 138.750  0.00  0.00    +0.000 A 
ATOM     18  C   UNL     1     113.847 129.528 139.992  0.00  0.00    +0.000 A 
ATOM     19  C   UNL     1     114.441 130.733 139.508  0.00  0.00    +0.000 A 
ATOM     20  C   UNL     1     114.285 130.213 140.129  0.00  0.00    +0.000 A 
BRANCH  20  21
ATOM     21  O   UNL     1     114.567 130.379 140.886  0.00  0.00    +0.000 OA
ATOM     22  C   UNL     1     114.166 130.917 141.366  0.00  0.00    +0.000 C 
ENDBRANCH  20  21
ENDBRANCH   9  15
BRANCH   4  23
ATOM     23  O   UNL     1     110.432 129.664 135.788  0.00  0.00    +0.000 OA
BRANCH  23  32
ATOM     24  O   UNL     1     110.179 128.331 136.237  0.00  0.00    +0.000 OA
ATOM     25  O   UNL     1     108.334 127.166 136.291  0.00  0.00    +0.000 OA
ATOM     26  O   UNL     1     107.790 128.583 135.645  0.00  0.00    +0.000 OA
ATOM     27  O   UNL     1     108.839 129.832 135.393  0.00  0.00    +0.000 OA
ATOM     28  C   UNL     1     109.656 127.707 136.363  0.00  0.00    +0.000 C 
ATOM     29  C   UNL     1     108.859 127.791 136.166  0.00  0.00    +0.000 C 
ATOM     30  C   UNL     1     108.586 128.499 135.842  0.00  0.00    +0.000 C 
ATOM     31  C   UNL     1     109.111 129.124 135.716  0.00  0.00    +0.000 C 
ATOM     32  C   UNL     1     109.908 129.040 135.914  0.00  0.00    +0.000 C 
BRANCH  28  33
ATOM     33  C   UNL     1     109.927 126.998 136.687  0.00  0.00    +0.000 C 
BRANCH  33  34
ATOM     34  O   UNL     1     110.421 126.506 136.247  0.00  0.00    +0.000 OA
BRANCH  34  40
ATOM     35  O   UNL     1     110.984 125.815 137.416  0.00  0.00    +0.000 OA
ATOM     36  O   UNL     1     111.611 124.152 136.233  0.00  0.00    +0.000 OA
ATOM     37  O   UNL     1     111.024 125.023 135.434  0.00  0.00    +0.000 OA
ATOM     38  C   UNL     1     111.433 124.713 136.811  0.00  0.00    +0.000 C 
ATOM     39  C   UNL     1     111.084 125.194 136.239  0.00  0.00    +0.000 C 
ATOM     40  C   UNL     1     110.807 125.875 136.612  0.00  0.00    +0.000 C 
ATOM     41  C   UNL     1     111.371 125.097 137.538  0.00  0.00    +0.000 C 
BRANCH  38  43
ATOM     42  O   UNL     1     111.992 123.399 136.746  0.00  0.00    +0.000 OA
ATOM     43  C   UNL     1     111.819 124.082 137.177  0.00  0.00    +0.000 C 
ENDBRANCH  38  43
ENDBRANCH  34  40
ENDBRANCH  33  34
ENDBRANCH  28  33
ENDBRANCH  23  32
ENDBRANCH   4  23
TORSDOF 8
ENDMDL
MODEL 4
REMARK VINA RESULT:      -9.5      3.652      5.608
REMARK  Name = 42607943
REMARK  8 active torsions:
REMARK  status: ('A' for Active; 'I' for Inactive)
REMARK    1  A    between atoms: O_2  and  C_20
REMARK    2  A    between atoms: O_2  and  C_23
REMARK    3  A    between atoms: O_4  and  C_22
REMARK    4  A    between atoms: O_4  and  C_26
REMARK    5  A    between atoms: O_14  and  C_42
REMARK    6  A    between atoms: C_15  and  C_23
REMARK    7  A    between atoms: C_16  and  C_25
REMARK    8  A    between atoms: C_31  and  C_37
REMARK                            x       y       z     vdW  Elec       q    Type
REMARK                         _______ _______ _______ _____ _____    ______ ____
ROOT
ATOM      1  O   UNL     1     110.338 128.704 135.980  0.00  0.00    +0.000 OA
ATOM      2  O   UNL     1     107.682 129.835 135.775  0.00  0.00    +0.000 OA
ATOM      3  O   UNL     1     107.830 128.400 135.818  0.00  0.00    +0.000 OA
ATOM      4  C   UNL     1     109.637 130.799 135.884  0.00  0.00    +0.000 A 
ATOM      5  C   UNL     1     110.132 130.141 135.933  0.00  0.00    +0.000 A 
ATOM      6  C   UNL     1     108.820 130.696 135.832  0.00  0.00    +0.000 A 
ATOM      7  C   UNL     1     109.811 129.381 135.929  0.00  0.00    +0.000 A 
ATOM      8  C   UNL     1     108.995 129.279 135.876  0.00  0.00    +0.000 A 
ATOM      9  C   UNL     1     110.010 127.910 135.976  0.00  0.00    +0.000 C 
ATOM     10  C   UNL     1     108.499 129.936 135.828  0.00  0.00    +0.000 A 
ATOM     11  C   UNL     1     109.159 127.804 135.921  0.00  0.00    +0.000 C 
ATOM     12  C   UNL     1     108.648 128.492 135.871  0.00  0.00    +0.000 C 
ATOM     13  C   UNL     1     110.950 130.243 135.986  0.00  0.00    +0.000 C 
ATOM     14  C   UNL     1     108.324 131.355 135.783  0.00  0.00    +0.000 C 
ENDROOT
BRANCH   9  15
ATOM     15  C   UNL     1     110.508 127.254 136.025  0.00  0.00    +0.000 A 
ATOM     16  C   UNL     1     110.837 127.039 136.750  0.00  0.00    +0.000 A 
ATOM     17  C   UNL     1     110.677 126.813 135.348  0.00  0.00    +0.000 A 
ATOM     18  C   UNL     1     111.335 126.383 136.799  0.00  0.00    +0.000 A 
ATOM     19  C   UNL     1     111.175 126.157 135.397  0.00  0.00    +0.000 A 
ATOM     20  C   UNL     1     111.504 125.942 136.122  0.00  0.00    +0.000 A 
BRANCH  20  21
ATOM     21  O   UNL     1     112.001 125.287 136.170  0.00  0.00    +0.000 OA
ATOM     22  C   UNL     1     111.682 124.535 136.287  0.00  0.00    +0.000 C 
ENDBRANCH  20  21
ENDBRANCH   9  15
BRANCH   4  23
ATOM     23  O   UNL     1     109.958 131.559 135.889  0.00  0.00    +0.000 OA
BRANCH  23  32
ATOM     24  O   UNL     1     109.942 131.572 137.317  0.00  0.00    +0.000 OA
ATOM     25  O   UNL     1     110.288 133.195 138.735  0.00  0.00    +0.000 OA
ATOM     26  O   UNL     1     110.486 133.987 137.301  0.00  0.00    +0.000 OA
ATOM     27  O   UNL     1     110.321 133.169 135.878  0.00  0.00    +0.000 OA
ATOM     28  C   UNL     1     110.025 131.981 138.029  0.00  0.00    +0.000 C 
ATOM     29  C   UNL     1     110.206 132.786 138.023  0.00  0.00    +0.000 C 
ATOM     30  C   UNL     1     110.305 133.182 137.306  0.00  0.00    +0.000 C 
ATOM     31  C   UNL     1     110.222 132.772 136.594  0.00  0.00    +0.000 C 
ATOM     32  C   UNL     1     110.041 131.968 136.600  0.00  0.00    +0.000 C 
BRANCH  28  33
ATOM     33  C   UNL     1     109.926 131.586 138.746  0.00  0.00    +0.000 C 
BRANCH  33  34
ATOM     34  O   UNL     1     109.170 131.385 139.007  0.00  0.00    +0.000 OA
BRANCH  34  40
ATOM     35  O   UNL     1     109.639 130.221 139.772  0.00  0.00    +0.000 OA
ATOM     36  O   UNL     1     107.762 130.020 140.770  0.00  0.00    +0.000 OA
ATOM     37  O   UNL     1     107.679 131.048 139.948  0.00  0.00    +0.000 OA
ATOM     38  C   UNL     1     108.530 129.971 140.472  0.00  0.00    +0.000 C 
ATOM     39  C   UNL     1     108.385 130.624 139.990  0.00  0.00    +0.000 C 
ATOM     40  C   UNL     1     109.070 130.779 139.558  0.00  0.00    +0.000 C 
ATOM     41  C   UNL     1     109.304 129.721 140.337  0.00  0.00    +0.000 C 
BRANCH  38  43
ATOM     42  O   UNL     1     107.756 128.888 140.994  0.00  0.00    +0.000 OA
ATOM     43  C   UNL     1     108.430 129.364 141.022  0.00  0.00    +0.000 C 
ENDBRANCH  38  43
ENDBRANCH  34  40
ENDBRANCH  33  34
ENDBRANCH  28  33
ENDBRANCH  23  32
ENDBRANCH   4  23
TORSDOF 8
ENDMDL
MODEL 5
REMARK VINA RESULT:      -9.5      3.085      4.866
REMARK  Name = 42607943
REMARK  8 active torsions:
REMARK  status: ('A' for Active; 'I' for Inactive)
REMARK    1  A    between atoms: O_2  and  C_20
REMARK    2  A    between atoms: O_2  and  C_23
REMARK    3  A    between atoms: O_4  and  C_22
REMARK    4  A    between atoms: O_4  and  C_26
REMARK    5  A    between atoms: O_14  and  C_42
REMARK    6  A    between atoms: C_15  and  C_23
REMARK    7  A    between atoms: C_16  and  C_25
REMARK    8  A    between atoms: C_31  and  C_37
REMARK                            x       y       z     vdW  Elec       q    Type
REMARK                         _______ _______ _______ _____ _____    ______ ____
ROOT
ATOM      1  O   UNL     1     110.372 127.439 136.011  0.00  0.00    +0.000 OA
ATOM      2  O   UNL     1     111.440 129.736 134.613  0.00  0.00    +0.000 OA
ATOM      3  O   UNL     1     112.297 128.598 134.845  0.00  0.00    +0.000 OA
ATOM      4  C   UNL     1     109.454 129.368 135.441  0.00  0.00    +0.000 A 
ATOM      5  C   UNL     1     109.554 128.610 135.752  0.00  0.00    +0.000 A 
ATOM      6  C   UNL     1     110.084 129.742 135.061  0.00  0.00    +0.000 A 
ATOM      7  C   UNL     1     110.282 128.228 135.683  0.00  0.00    +0.000 A 
ATOM      8  C   UNL     1     110.910 128.603 135.304  0.00  0.00    +0.000 A 
ATOM      9  C   UNL     1     111.127 127.035 135.943  0.00  0.00    +0.000 C 
ATOM     10  C   UNL     1     110.812 129.360 134.993  0.00  0.00    +0.000 A 
ATOM     11  C   UNL     1     111.783 127.426 135.548  0.00  0.00    +0.000 C 
ATOM     12  C   UNL     1     111.674 128.215 135.226  0.00  0.00    +0.000 C 
ATOM     13  C   UNL     1     108.924 128.235 136.132  0.00  0.00    +0.000 C 
ATOM     14  C   UNL     1     109.984 130.501 134.750  0.00  0.00    +0.000 C 
ENDROOT
BRANCH   9  15
ATOM     15  C   UNL     1     111.223 126.277 136.255  0.00  0.00    +0.000 A 
ATOM     16  C   UNL     1     111.473 126.181 137.036  0.00  0.00    +0.000 A 
ATOM     17  C   UNL     1     111.070 125.616 135.787  0.00  0.00    +0.000 A 
ATOM     18  C   UNL     1     111.569 125.424 137.348  0.00  0.00    +0.000 A 
ATOM     19  C   UNL     1     111.166 124.858 136.099  0.00  0.00    +0.000 A 
ATOM     20  C   UNL     1     111.416 124.762 136.879  0.00  0.00    +0.000 A 
BRANCH  20  21
ATOM     21  O   UNL     1     111.512 124.004 137.191  0.00  0.00    +0.000 OA
ATOM     22  C   UNL     1     112.149 123.538 136.951  0.00  0.00    +0.000 C 
ENDBRANCH  20  21
ENDBRANCH   9  15
BRANCH   4  23
ATOM     23  O   UNL     1     108.727 129.750 135.509  0.00  0.00    +0.000 OA
BRANCH  23  32
ATOM     24  O   UNL     1     109.060 130.249 136.806  0.00  0.00    +0.000 OA
ATOM     25  O   UNL     1     108.213 131.893 137.966  0.00  0.00    +0.000 OA
ATOM     26  O   UNL     1     107.289 131.966 136.601  0.00  0.00    +0.000 OA
ATOM     27  O   UNL     1     107.546 130.894 135.373  0.00  0.00    +0.000 OA
ATOM     28  C   UNL     1     108.932 130.785 137.420  0.00  0.00    +0.000 C 
ATOM     29  C   UNL     1     108.342 131.357 137.351  0.00  0.00    +0.000 C 
ATOM     30  C   UNL     1     107.880 131.394 136.669  0.00  0.00    +0.000 C 
ATOM     31  C   UNL     1     108.008 130.857 136.055  0.00  0.00    +0.000 C 
ATOM     32  C   UNL     1     108.599 130.285 136.123  0.00  0.00    +0.000 C 
BRANCH  28  33
ATOM     33  C   UNL     1     109.394 130.749 138.102  0.00  0.00    +0.000 C 
BRANCH  33  34
ATOM     34  O   UNL     1     110.202 130.911 138.064  0.00  0.00    +0.000 OA
BRANCH  34  40
ATOM     35  O   UNL     1     110.480 130.220 139.331  0.00  0.00    +0.000 OA
ATOM     36  O   UNL     1     112.560 130.690 139.223  0.00  0.00    +0.000 OA
ATOM     37  O   UNL     1     111.971 131.201 138.159  0.00  0.00    +0.000 OA
ATOM     38  C   UNL     1     111.796 130.435 139.401  0.00  0.00    +0.000 C 
ATOM     39  C   UNL     1     111.516 130.788 138.710  0.00  0.00    +0.000 C 
ATOM     40  C   UNL     1     110.704 130.655 138.666  0.00  0.00    +0.000 C 
ATOM     41  C   UNL     1     111.156 130.085 139.785  0.00  0.00    +0.000 C 
BRANCH  38  43
ATOM     42  O   UNL     1     112.877 130.687 140.302  0.00  0.00    +0.000 OA
ATOM     43  C   UNL     1     112.298 130.179 140.004  0.00  0.00    +0.000 C 
ENDBRANCH  38  43
ENDBRANCH  34  40
ENDBRANCH  33  34
ENDBRANCH  28  33
ENDBRANCH  23  32
ENDBRANCH   4  23
TORSDOF 8
ENDMDL
MODEL 6
REMARK VINA RESULT:      -9.5      1.941      4.119
REMARK  Name = 42607943
REMARK  8 active torsions:
REMARK  status: ('A' for Active; 'I' for Inactive)
REMARK    1  A    between atoms: O_2  and  C_20
REMARK    2  A    between atoms: O_2  and  C_23
REMARK    3  A    between atoms: O_4  and  C_22
REMARK    4  A    between atoms: O_4  and  C_26
REMARK    5  A    between atoms: O_14  and  C_42
REMARK    6  A    between atoms: C_15  and  C_23
REMARK    7  A    between atoms: C_16  and  C_25
REMARK    8  A    between atoms: C_31  and  C_37
REMARK                            x       y       z     vdW  Elec       q    Type
REMARK                         _______ _______ _______ _____ _____    ______ ____
ROOT
ATOM      1  O   UNL     1     111.428 129.473 137.402  0.00  0.00    +0.000 OA
ATOM      2  O   UNL     1     113.580 127.700 136.628  0.00  0.00    +0.000 OA
ATOM      3  O   UNL     1     113.468 128.987 135.984  0.00  0.00    +0.000 OA
ATOM      4  C   UNL     1     111.985 127.449 138.097  0.00  0.00    +0.000 A 
ATOM      5  C   UNL     1     111.587 128.167 138.017  0.00  0.00    +0.000 A 
ATOM      6  C   UNL     1     112.650 127.294 137.633  0.00  0.00    +0.000 A 
ATOM      7  C   UNL     1     111.852 128.729 137.475  0.00  0.00    +0.000 A 
ATOM      8  C   UNL     1     112.516 128.573 137.012  0.00  0.00    +0.000 A 
ATOM      9  C   UNL     1     111.699 130.062 136.839  0.00  0.00    +0.000 C 
ATOM     10  C   UNL     1     112.915 127.856 137.091  0.00  0.00    +0.000 A 
ATOM     11  C   UNL     1     112.391 129.901 136.357  0.00  0.00    +0.000 C 
ATOM     12  C   UNL     1     112.803 129.151 136.443  0.00  0.00    +0.000 C 
ATOM     13  C   UNL     1     110.921 128.322 138.481  0.00  0.00    +0.000 C 
ATOM     14  C   UNL     1     113.049 126.576 137.712  0.00  0.00    +0.000 C 
ENDROOT
BRANCH   9  15
ATOM     15  C   UNL     1     111.298 130.779 136.762  0.00  0.00    +0.000 A 
ATOM     16  C   UNL     1     111.564 131.447 137.168  0.00  0.00    +0.000 A 
ATOM     17  C   UNL     1     110.631 130.829 136.280  0.00  0.00    +0.000 A 
ATOM     18  C   UNL     1     111.163 132.164 137.091  0.00  0.00    +0.000 A 
ATOM     19  C   UNL     1     110.230 131.546 136.203  0.00  0.00    +0.000 A 
ATOM     20  C   UNL     1     110.496 132.213 136.608  0.00  0.00    +0.000 A 
BRANCH  20  21
ATOM     21  O   UNL     1     110.095 132.929 136.531  0.00  0.00    +0.000 OA
ATOM     22  C   UNL     1     110.506 133.641 136.600  0.00  0.00    +0.000 C 
ENDBRANCH  20  21
ENDBRANCH   9  15
BRANCH   4  23
ATOM     23  O   UNL     1     111.719 126.887 138.639  0.00  0.00    +0.000 OA
BRANCH  23  32
ATOM     24  O   UNL     1     112.555 127.456 139.649  0.00  0.00    +0.000 OA
ATOM     25  O   UNL     1     112.695 127.042 141.788  0.00  0.00    +0.000 OA
ATOM     26  O   UNL     1     111.513 125.981 141.341  0.00  0.00    +0.000 OA
ATOM     27  O   UNL     1     111.025 125.903 139.767  0.00  0.00    +0.000 OA
ATOM     28  C   UNL     1     112.799 127.495 140.436  0.00  0.00    +0.000 C 
ATOM     29  C   UNL     1     112.451 127.003 141.000  0.00  0.00    +0.000 C 
ATOM     30  C   UNL     1     111.860 126.472 140.777  0.00  0.00    +0.000 C 
ATOM     31  C   UNL     1     111.616 126.434 139.989  0.00  0.00    +0.000 C 
ATOM     32  C   UNL     1     111.963 126.926 139.425  0.00  0.00    +0.000 C 
BRANCH  28  33
ATOM     33  C   UNL     1     113.390 128.025 140.659  0.00  0.00    +0.000 C 
BRANCH  33  34
ATOM     34  O   UNL     1     113.265 128.837 140.587  0.00  0.00    +0.000 OA
BRANCH  34  40
ATOM     35  O   UNL     1     114.696 129.148 140.722  0.00  0.00    +0.000 OA
ATOM     36  O   UNL     1     114.351 131.236 140.444  0.00  0.00    +0.000 OA
ATOM     37  O   UNL     1     113.187 130.618 140.375  0.00  0.00    +0.000 OA
ATOM     38  C   UNL     1     114.638 130.472 140.565  0.00  0.00    +0.000 C 
ATOM     39  C   UNL     1     113.871 130.174 140.507  0.00  0.00    +0.000 C 
ATOM     40  C   UNL     1     113.906 129.357 140.604  0.00  0.00    +0.000 C 
ATOM     41  C   UNL     1     115.148 129.838 140.698  0.00  0.00    +0.000 C 
BRANCH  38  43
ATOM     42  O   UNL     1     115.196 131.736 140.929  0.00  0.00    +0.000 OA
ATOM     43  C   UNL     1     115.279 130.991 140.582  0.00  0.00    +0.000 C 
ENDBRANCH  38  43
ENDBRANCH  34  40
ENDBRANCH  33  34
ENDBRANCH  28  33
ENDBRANCH  23  32
ENDBRANCH   4  23
TORSDOF 8
ENDMDL
MODEL 7
REMARK VINA RESULT:      -9.5      2.254      3.202
REMARK  Name = 42607943
REMARK  8 active torsions:
REMARK  status: ('A' for Active; 'I' for Inactive)
REMARK    1  A    between atoms: O_2  and  C_20
REMARK    2  A    between atoms: O_2  and  C_23
REMARK    3  A    between atoms: O_4  and  C_22
REMARK    4  A    between atoms: O_4  and  C_26
REMARK    5  A    between atoms: O_14  and  C_42
REMARK    6  A    between atoms: C_15  and  C_23
REMARK    7  A    between atoms: C_16  and  C_25
REMARK    8  A    between atoms: C_31  and  C_37
REMARK                            x       y       z     vdW  Elec       q    Type
REMARK                         _______ _______ _______ _____ _____    ______ ____
ROOT
ATOM      1  O   UNL     1     112.765 127.172 137.566  0.00  0.00    +0.000 OA
ATOM      2  O   UNL     1     113.701 129.646 136.391  0.00  0.00    +0.000 OA
ATOM      3  O   UNL     1     113.541 128.487 135.546  0.00  0.00    +0.000 OA
ATOM      4  C   UNL     1     113.153 129.162 138.448  0.00  0.00    +0.000 A 
ATOM      5  C   UNL     1     112.944 128.368 138.370  0.00  0.00    +0.000 A 
ATOM      6  C   UNL     1     113.405 129.587 137.787  0.00  0.00    +0.000 A 
ATOM      7  C   UNL     1     112.987 128.000 137.633  0.00  0.00    +0.000 A 
ATOM      8  C   UNL     1     113.239 128.426 136.973  0.00  0.00    +0.000 A 
ATOM      9  C   UNL     1     112.808 126.783 136.801  0.00  0.00    +0.000 C 
ATOM     10  C   UNL     1     113.448 129.219 137.050  0.00  0.00    +0.000 A 
ATOM     11  C   UNL     1     113.071 127.226 136.113  0.00  0.00    +0.000 C 
ATOM     12  C   UNL     1     113.288 128.053 136.200  0.00  0.00    +0.000 C 
ATOM     13  C   UNL     1     112.691 127.942 139.030  0.00  0.00    +0.000 C 
ATOM     14  C   UNL     1     113.615 130.382 137.865  0.00  0.00    +0.000 C 
ENDROOT
BRANCH   9  15
ATOM     15  C   UNL     1     112.598 125.988 136.727  0.00  0.00    +0.000 A 
ATOM     16  C   UNL     1     111.824 125.783 136.527  0.00  0.00    +0.000 A 
ATOM     17  C   UNL     1     113.161 125.399 136.852  0.00  0.00    +0.000 A 
ATOM     18  C   UNL     1     111.614 124.989 136.452  0.00  0.00    +0.000 A 
ATOM     19  C   UNL     1     112.951 124.604 136.778  0.00  0.00    +0.000 A 
ATOM     20  C   UNL     1     112.177 124.399 136.578  0.00  0.00    +0.000 A 
BRANCH  20  21
ATOM     21  O   UNL     1     111.968 123.605 136.504  0.00  0.00    +0.000 OA
ATOM     22  C   UNL     1     111.960 123.118 137.169  0.00  0.00    +0.000 C 
ENDBRANCH  20  21
ENDBRANCH   9  15
BRANCH   4  23
ATOM     23  O   UNL     1     113.110 129.530 139.185  0.00  0.00    +0.000 OA
BRANCH  23  32
ATOM     24  O   UNL     1     111.786 129.977 138.887  0.00  0.00    +0.000 OA
ATOM     25  O   UNL     1     110.336 131.061 140.106  0.00  0.00    +0.000 OA
ATOM     26  O   UNL     1     111.597 130.933 141.162  0.00  0.00    +0.000 OA
ATOM     27  O   UNL     1     112.984 130.168 140.701  0.00  0.00    +0.000 OA
ATOM     28  C   UNL     1     111.093 130.359 139.117  0.00  0.00    +0.000 C 
ATOM     29  C   UNL     1     111.030 130.678 139.875  0.00  0.00    +0.000 C 
ATOM     30  C   UNL     1     111.660 130.614 140.404  0.00  0.00    +0.000 C 
ATOM     31  C   UNL     1     112.354 130.231 140.173  0.00  0.00    +0.000 C 
ATOM     32  C   UNL     1     112.417 129.912 139.415  0.00  0.00    +0.000 C 
BRANCH  28  33
ATOM     33  C   UNL     1     110.462 130.423 138.589  0.00  0.00    +0.000 C 
BRANCH  33  34
ATOM     34  O   UNL     1     110.085 129.745 138.311  0.00  0.00    +0.000 OA
BRANCH  34  40
ATOM     35  O   UNL     1     109.546 130.430 137.127  0.00  0.00    +0.000 OA
ATOM     36  O   UNL     1     108.767 128.609 136.329  0.00  0.00    +0.000 OA
ATOM     37  O   UNL     1     109.359 128.332 137.475  0.00  0.00    +0.000 OA
ATOM     38  C   UNL     1     109.006 129.379 136.506  0.00  0.00    +0.000 C 
ATOM     39  C   UNL     1     109.350 129.112 137.206  0.00  0.00    +0.000 C 
ATOM     40  C   UNL     1     109.684 129.761 137.590  0.00  0.00    +0.000 C 
ATOM     41  C   UNL     1     109.127 130.193 136.457  0.00  0.00    +0.000 C 
BRANCH  38  43
ATOM     42  O   UNL     1     107.835 129.100 135.735  0.00  0.00    +0.000 OA
ATOM     43  C   UNL     1     108.605 129.395 135.785  0.00  0.00    +0.000 C 
ENDBRANCH  38  43
ENDBRANCH  34  40
ENDBRANCH  33  34
ENDBRANCH  28  33
ENDBRANCH  23  32
ENDBRANCH   4  23
TORSDOF 8
ENDMDL
MODEL 8
REMARK VINA RESULT:      -9.4      7.532      9.015
REMARK  Name = 42607943
REMARK  8 active torsions:
REMARK  status: ('A' for Active; 'I' for Inactive)
REMARK    1  A    between atoms: O_2  and  C_20
REMARK    2  A    between atoms: O_2  and  C_23
REMARK    3  A    between atoms: O_4  and  C_22
REMARK    4  A    between atoms: O_4  and  C_26
REMARK    5  A    between atoms: O_14  and  C_42
REMARK    6  A    between atoms: C_15  and  C_23
REMARK    7  A    between atoms: C_16  and  C_25
REMARK    8  A    between atoms: C_31  and  C_37
REMARK                            x       y       z     vdW  Elec       q    Type
REMARK                         _______ _______ _______ _____ _____    ______ ____
ROOT
ATOM      1  O   UNL     1     103.795 129.794 142.398  0.00  0.00    +0.000 OA
ATOM      2  O   UNL     1     104.739 127.351 141.167  0.00  0.00    +0.000 OA
ATOM      3  O   UNL     1     103.866 128.220 140.416  0.00  0.00    +0.000 OA
ATOM      4  C   UNL     1     105.118 128.189 143.147  0.00  0.00    +0.000 A 
ATOM      5  C   UNL     1     104.675 128.883 143.109  0.00  0.00    +0.000 A 
ATOM      6  C   UNL     1     105.139 127.678 142.499  0.00  0.00    +0.000 A 
ATOM      7  C   UNL     1     104.253 129.067 142.424  0.00  0.00    +0.000 A 
ATOM      8  C   UNL     1     104.274 128.556 141.777  0.00  0.00    +0.000 A 
ATOM      9  C   UNL     1     103.353 129.991 141.688  0.00  0.00    +0.000 C 
ATOM     10  C   UNL     1     104.717 127.862 141.814  0.00  0.00    +0.000 A 
ATOM     11  C   UNL     1     103.375 129.459 141.014  0.00  0.00    +0.000 C 
ATOM     12  C   UNL     1     103.839 128.737 141.058  0.00  0.00    +0.000 C 
ATOM     13  C   UNL     1     104.653 129.394 143.757  0.00  0.00    +0.000 C 
ATOM     14  C   UNL     1     105.583 126.983 142.536  0.00  0.00    +0.000 C 
ENDROOT
BRANCH   9  15
ATOM     15  C   UNL     1     102.910 130.686 141.654  0.00  0.00    +0.000 A 
ATOM     16  C   UNL     1     103.245 131.374 141.344  0.00  0.00    +0.000 A 
ATOM     17  C   UNL     1     102.133 130.695 141.929  0.00  0.00    +0.000 A 
ATOM     18  C   UNL     1     102.802 132.069 141.309  0.00  0.00    +0.000 A 
ATOM     19  C   UNL     1     101.690 131.390 141.894  0.00  0.00    +0.000 A 
ATOM     20  C   UNL     1     102.025 132.077 141.585  0.00  0.00    +0.000 A 
BRANCH  20  21
ATOM     21  O   UNL     1     101.582 132.772 141.550  0.00  0.00    +0.000 OA
ATOM     22  C   UNL     1     101.683 133.353 142.127  0.00  0.00    +0.000 C 
ENDBRANCH  20  21
ENDBRANCH   9  15
BRANCH   4  23
ATOM     23  O   UNL     1     105.540 128.005 143.831  0.00  0.00    +0.000 OA
BRANCH  23  32
ATOM     24  O   UNL     1     106.734 128.553 143.268  0.00  0.00    +0.000 OA
ATOM     25  O   UNL     1     108.646 129.061 144.188  0.00  0.00    +0.000 OA
ATOM     26  O   UNL     1     107.813 128.493 145.494  0.00  0.00    +0.000 OA
ATOM     27  O   UNL     1     106.260 127.965 145.316  0.00  0.00    +0.000 OA
ATOM     28  C   UNL     1     107.509 128.817 143.357  0.00  0.00    +0.000 C 
ATOM     29  C   UNL     1     107.869 128.797 144.099  0.00  0.00    +0.000 C 
ATOM     30  C   UNL     1     107.453 128.513 144.752  0.00  0.00    +0.000 C 
ATOM     31  C   UNL     1     106.676 128.249 144.662  0.00  0.00    +0.000 C 
ATOM     32  C   UNL     1     106.316 128.269 143.920  0.00  0.00    +0.000 C 
BRANCH  28  33
ATOM     33  C   UNL     1     107.927 129.102 142.704  0.00  0.00    +0.000 C 
BRANCH  33  34
ATOM     34  O   UNL     1     107.632 129.738 142.271  0.00  0.00    +0.000 OA
BRANCH  34  40
ATOM     35  O   UNL     1     108.719 129.675 141.283  0.00  0.00    +0.000 OA
ATOM     36  O   UNL     1     107.802 131.166 140.060  0.00  0.00    +0.000 OA
ATOM     37  O   UNL     1     107.029 130.968 141.111  0.00  0.00    +0.000 OA
ATOM     38  C   UNL     1     108.270 130.590 140.420  0.00  0.00    +0.000 C 
ATOM     39  C   UNL     1     107.727 130.534 141.039  0.00  0.00    +0.000 C 
ATOM     40  C   UNL     1     108.004 129.970 141.571  0.00  0.00    +0.000 C 
ATOM     41  C   UNL     1     108.883 130.059 140.571  0.00  0.00    +0.000 C 
BRANCH  38  43
ATOM     42  O   UNL     1     108.228 131.268 139.163  0.00  0.00    +0.000 OA
ATOM     43  C   UNL     1     108.641 130.821 139.721  0.00  0.00    +0.000 C 
ENDBRANCH  38  43
ENDBRANCH  34  40
ENDBRANCH  33  34
ENDBRANCH  28  33
ENDBRANCH  23  32
ENDBRANCH   4  23
TORSDOF 8
ENDMDL
MODEL 9
REMARK VINA RESULT:      -9.2      2.529      5.362
REMARK  Name = 42607943
REMARK  8 active torsions:
REMARK  status: ('A' for Active; 'I' for Inactive)
REMARK    1  A    between atoms: O_2  and  C_20
REMARK    2  A    between atoms: O_2  and  C_23
REMARK    3  A    between atoms: O_4  and  C_22
REMARK    4  A    between atoms: O_4  and  C_26
REMARK    5  A    between atoms: O_14  and  C_42
REMARK    6  A    between atoms: C_15  and  C_23
REMARK    7  A    between atoms: C_16  and  C_25
REMARK    8  A    between atoms: C_31  and  C_37
REMARK                            x       y       z     vdW  Elec       q    Type
REMARK                         _______ _______ _______ _____ _____    ______ ____
ROOT
ATOM      1  O   UNL     1     110.778 128.612 135.932  0.00  0.00    +0.000 OA
ATOM      2  O   UNL     1     113.428 128.591 137.096  0.00  0.00    +0.000 OA
ATOM      3  O   UNL     1     112.693 129.833 137.050  0.00  0.00    +0.000 OA
ATOM      4  C   UNL     1     112.245 126.982 136.214  0.00  0.00    +0.000 A 
ATOM      5  C   UNL     1     111.560 127.390 136.003  0.00  0.00    +0.000 A 
ATOM      6  C   UNL     1     112.867 127.383 136.578  0.00  0.00    +0.000 A 
ATOM      7  C   UNL     1     111.497 128.199 136.156  0.00  0.00    +0.000 A 
ATOM      8  C   UNL     1     112.119 128.599 136.520  0.00  0.00    +0.000 A 
ATOM      9  C   UNL     1     110.706 129.453 136.088  0.00  0.00    +0.000 C 
ATOM     10  C   UNL     1     112.804 128.191 136.731  0.00  0.00    +0.000 A 
ATOM     11  C   UNL     1     111.354 129.871 136.468  0.00  0.00    +0.000 C 
ATOM     12  C   UNL     1     112.066 129.441 136.685  0.00  0.00    +0.000 C 
ATOM     13  C   UNL     1     110.937 126.989 135.639  0.00  0.00    +0.000 C 
ATOM     14  C   UNL     1     113.553 126.975 136.789  0.00  0.00    +0.000 C 
ENDROOT
BRANCH   9  15
ATOM     15  C   UNL     1     110.019 129.859 135.876  0.00  0.00    +0.000 A 
ATOM     16  C   UNL     1     109.959 130.206 135.130  0.00  0.00    +0.000 A 
ATOM     17  C   UNL     1     109.393 129.917 136.410  0.00  0.00    +0.000 A 
ATOM     18  C   UNL     1     109.272 130.611 134.918  0.00  0.00    +0.000 A 
ATOM     19  C   UNL     1     108.706 130.322 136.198  0.00  0.00    +0.000 A 
ATOM     20  C   UNL     1     108.646 130.669 135.452  0.00  0.00    +0.000 A 
BRANCH  20  21
ATOM     21  O   UNL     1     107.959 131.074 135.241  0.00  0.00    +0.000 OA
ATOM     22  C   UNL     1     107.748 131.763 135.642  0.00  0.00    +0.000 C 
ENDBRANCH  20  21
ENDBRANCH   9  15
BRANCH   4  23
ATOM     23  O   UNL     1     112.308 126.174 136.061  0.00  0.00    +0.000 OA
BRANCH  23  32
ATOM     24  O   UNL     1     111.666 125.887 137.305  0.00  0.00    +0.000 OA
ATOM     25  O   UNL     1     111.216 123.985 138.276  0.00  0.00    +0.000 OA
ATOM     26  O   UNL     1     111.955 123.464 136.896  0.00  0.00    +0.000 OA
ATOM     27  O   UNL     1     112.501 124.558 135.788  0.00  0.00    +0.000 OA
ATOM     28  C   UNL     1     111.393 125.341 137.858  0.00  0.00    +0.000 C 
ATOM     29  C   UNL     1     111.489 124.533 137.722  0.00  0.00    +0.000 C 
ATOM     30  C   UNL     1     111.859 124.271 137.032  0.00  0.00    +0.000 C 
ATOM     31  C   UNL     1     112.132 124.819 136.478  0.00  0.00    +0.000 C 
ATOM     32  C   UNL     1     112.035 125.627 136.614  0.00  0.00    +0.000 C 
BRANCH  28  33
ATOM     33  C   UNL     1     111.023 125.601 138.548  0.00  0.00    +0.000 C 
BRANCH  33  34
ATOM     34  O   UNL     1     111.464 125.968 139.140  0.00  0.00    +0.000 OA
BRANCH  34  40
ATOM     35  O   UNL     1     110.327 126.708 139.705  0.00  0.00    +0.000 OA
ATOM     36  O   UNL     1     111.330 126.985 141.570  0.00  0.00    +0.000 OA
ATOM     37  O   UNL     1     112.132 126.306 140.772  0.00  0.00    +0.000 OA
ATOM     38  C   UNL     1     110.823 126.959 140.918  0.00  0.00    +0.000 C 
ATOM     39  C   UNL     1     111.389 126.535 140.494  0.00  0.00    +0.000 C 
ATOM     40  C   UNL     1     111.083 126.380 139.745  0.00  0.00    +0.000 C 
ATOM     41  C   UNL     1     110.167 127.067 140.431  0.00  0.00    +0.000 C 
BRANCH  38  43
ATOM     42  O   UNL     1     110.825 127.493 142.245  0.00  0.00    +0.000 OA
ATOM     43  C   UNL     1     110.442 127.371 141.523  0.00  0.00    +0.000 C 
ENDBRANCH  38  43
ENDBRANCH  34  40
ENDBRANCH  33  34
ENDBRANCH  28  33
ENDBRANCH  23  32
ENDBRANCH   4  23
TORSDOF 8
ENDMDL
MODEL 10
REMARK VINA RESULT:      -9.2      2.375      3.624
REMARK  Name = 42607943
REMARK  8 active torsions:
REMARK  status: ('A' for Active; 'I' for Inactive)
REMARK    1  A    between atoms: O_2  and  C_20
REMARK    2  A    between atoms: O_2  and  C_23
REMARK    3  A    between atoms: O_4  and  C_22
REMARK    4  A    between atoms: O_4  and  C_26
REMARK    5  A    between atoms: O_14  and  C_42
REMARK    6  A    between atoms: C_15  and  C_23
REMARK    7  A    between atoms: C_16  and  C_25
REMARK    8  A    between atoms: C_31  and  C_37
REMARK                            x       y       z     vdW  Elec       q    Type
REMARK                         _______ _______ _______ _____ _____    ______ ____
ROOT
ATOM      1  O   UNL     1     111.215 127.152 136.987  0.00  0.00    +0.000 OA
ATOM      2  O   UNL     1     109.659 128.738 135.133  0.00  0.00    +0.000 OA
ATOM      3  O   UNL     1     110.594 127.770 134.612  0.00  0.00    +0.000 OA
ATOM      4  C   UNL     1     109.693 128.722 137.316  0.00  0.00    +0.000 A 
ATOM      5  C   UNL     1     110.260 128.140 137.458  0.00  0.00    +0.000 A 
ATOM      6  C   UNL     1     109.494 128.921 136.541  0.00  0.00    +0.000 A 
ATOM      7  C   UNL     1     110.626 127.757 136.825  0.00  0.00    +0.000 A 
ATOM      8  C   UNL     1     110.426 127.956 136.051  0.00  0.00    +0.000 A 
ATOM      9  C   UNL     1     111.600 126.749 136.334  0.00  0.00    +0.000 C 
ATOM     10  C   UNL     1     109.860 128.538 135.908  0.00  0.00    +0.000 A 
ATOM     11  C   UNL     1     111.391 126.957 135.526  0.00  0.00    +0.000 C 
ATOM     12  C   UNL     1     110.801 127.564 135.384  0.00  0.00    +0.000 C 
ATOM     13  C   UNL     1     110.460 127.940 138.234  0.00  0.00    +0.000 C 
ATOM     14  C   UNL     1     108.926 129.504 136.398  0.00  0.00    +0.000 C 
ENDROOT
BRANCH   9  15
ATOM     15  C   UNL     1     112.166 126.167 136.479  0.00  0.00    +0.000 A 
ATOM     16  C   UNL     1     111.937 125.379 136.558  0.00  0.00    +0.000 A 
ATOM     17  C   UNL     1     112.962 126.374 136.546  0.00  0.00    +0.000 A 
ATOM     18  C   UNL     1     112.503 124.797 136.704  0.00  0.00    +0.000 A 
ATOM     19  C   UNL     1     113.529 125.791 136.692  0.00  0.00    +0.000 A 
ATOM     20  C   UNL     1     113.299 125.003 136.770  0.00  0.00    +0.000 A 
BRANCH  20  21
ATOM     21  O   UNL     1     113.865 124.422 136.916  0.00  0.00    +0.000 OA
ATOM     22  C   UNL     1     114.591 124.628 137.251  0.00  0.00    +0.000 C 
ENDBRANCH  20  21
ENDBRANCH   9  15
BRANCH   4  23
ATOM     23  O   UNL     1     109.327 129.105 137.948  0.00  0.00    +0.000 OA
BRANCH  23  32
ATOM     24  O   UNL     1     110.341 130.112 137.928  0.00  0.00    +0.000 OA
ATOM     25  O   UNL     1     110.565 131.939 139.101  0.00  0.00    +0.000 OA
ATOM     26  O   UNL     1     109.155 131.343 139.718  0.00  0.00    +0.000 OA
ATOM     27  O   UNL     1     108.536 129.926 139.141  0.00  0.00    +0.000 OA
ATOM     28  C   UNL     1     110.650 130.820 138.216  0.00  0.00    +0.000 C 
ATOM     29  C   UNL     1     110.255 131.230 138.813  0.00  0.00    +0.000 C 
ATOM     30  C   UNL     1     109.550 130.932 139.121  0.00  0.00    +0.000 C 
ATOM     31  C   UNL     1     109.241 130.223 138.833  0.00  0.00    +0.000 C 
ATOM     32  C   UNL     1     109.636 129.813 138.236  0.00  0.00    +0.000 C 
BRANCH  28  33
ATOM     33  C   UNL     1     111.355 131.118 137.908  0.00  0.00    +0.000 C 
BRANCH  33  34
ATOM     34  O   UNL     1     112.059 130.699 138.004  0.00  0.00    +0.000 OA
BRANCH  34  40
ATOM     35  O   UNL     1     112.792 131.503 137.015  0.00  0.00    +0.000 OA
ATOM     36  O   UNL     1     114.383 130.083 136.921  0.00  0.00    +0.000 OA
ATOM     37  O   UNL     1     113.488 129.636 137.781  0.00  0.00    +0.000 OA
ATOM     38  C   UNL     1     113.854 130.713 136.850  0.00  0.00    +0.000 C 
ATOM     39  C   UNL     1     113.354 130.356 137.400  0.00  0.00    +0.000 C 
ATOM     40  C   UNL     1     112.698 130.844 137.503  0.00  0.00    +0.000 C 
ATOM     41  C   UNL     1     113.507 131.421 136.612  0.00  0.00    +0.000 C 
BRANCH  38  43
ATOM     42  O   UNL     1     114.898 130.225 136.003  0.00  0.00    +0.000 OA
ATOM     43  C   UNL     1     114.493 130.857 136.348  0.00  0.00    +0.000 C 
ENDBRANCH  38  43
ENDBRANCH  34  40
ENDBRANCH  33  34
ENDBRANCH  28  33
ENDBRANCH  23  32
ENDBRANCH   4  23
TORSDOF 8
ENDMDL
