MODEL 1
REMARK VINA RESULT:      -8.4      0.000      0.000
REMARK  Name = 11795367
REMARK  5 active torsions:
REMARK  status: ('A' for Active; 'I' for Inactive)
REMARK    1  A    between atoms: O_3  and  C_14
REMARK    2  A    between atoms: O_4  and  C_15
REMARK    3  A    between atoms: O_6  and  C_17
REMARK    4  A    between atoms: O_7  and  C_18
REMARK    5  A    between atoms: C_12  and  C_13
REMARK                            x       y       z     vdW  Elec       q    Type
REMARK                         _______ _______ _______ _____ _____    ______ ____
ROOT
ATOM      1  O   UNL     1     104.646 124.235 146.782  0.00  0.00    +0.000 OA
ATOM      2  O   UNL     1     102.421 122.739 145.728  0.00  0.00    +0.000 OA
ATOM      3  O   UNL     1     103.018 125.691 148.062  0.00  0.00    +0.000 OA
ATOM      4  C   UNL     1     103.271 124.578 147.151  0.00  0.00    +0.000 A 
ATOM      5  C   UNL     1     103.799 124.102 146.732  0.00  0.00    +0.000 A 
ATOM      6  C   UNL     1     104.948 124.872 147.274  0.00  0.00    +0.000 A 
ATOM      7  C   UNL     1     104.398 125.367 147.710  0.00  0.00    +0.000 A 
ATOM      8  C   UNL     1     102.459 124.441 147.095  0.00  0.00    +0.000 A 
ATOM      9  C   UNL     1     103.553 125.220 147.648  0.00  0.00    +0.000 A 
ATOM     10  C   UNL     1     103.516 123.489 146.258  0.00  0.00    +0.000 A 
ATOM     11  C   UNL     1     102.176 123.829 146.621  0.00  0.00    +0.000 A 
ATOM     12  C   UNL     1     102.704 123.353 146.203  0.00  0.00    +0.000 A 
ENDROOT
BRANCH   6  15
ATOM     13  O   UNL     1     107.571 124.552 148.537  0.00  0.00    +0.000 OA
ATOM     14  O   UNL     1     108.181 125.306 147.630  0.00  0.00    +0.000 OA
ATOM     15  C   UNL     1     105.761 125.006 147.328  0.00  0.00    +0.000 A 
ATOM     16  C   UNL     1     106.194 124.671 147.945  0.00  0.00    +0.000 A 
ATOM     17  C   UNL     1     107.006 124.804 147.999  0.00  0.00    +0.000 A 
ATOM     18  C   UNL     1     106.140 125.474 146.765  0.00  0.00    +0.000 A 
ATOM     19  C   UNL     1     107.386 125.273 147.436  0.00  0.00    +0.000 A 
ATOM     20  C   UNL     1     106.952 125.608 146.818  0.00  0.00    +0.000 A 
ATOM     21  C   UNL     1     108.295 124.861 148.310  0.00  0.00    +0.000 C 
ENDBRANCH   6  15
BRANCH   7  22
ATOM     22  O   UNL     1     104.679 125.981 148.185  0.00  0.00    +0.000 OA
ATOM     23  C   UNL     1     104.246 126.680 148.254  0.00  0.00    +0.000 C 
ENDBRANCH   7  22
BRANCH   8  24
ATOM     24  O   UNL     1     101.931 124.917 147.513  0.00  0.00    +0.000 OA
ATOM     25  C   UNL     1     101.695 124.702 148.273  0.00  0.00    +0.000 C 
ENDBRANCH   8  24
BRANCH  10  26
ATOM     26  O   UNL     1     104.044 123.013 145.840  0.00  0.00    +0.000 OA
ATOM     27  C   UNL     1     103.993 122.963 145.018  0.00  0.00    +0.000 C 
ENDBRANCH  10  26
BRANCH  11  28
ATOM     28  O   UNL     1     101.364 123.691 146.565  0.00  0.00    +0.000 OA
ATOM     29  C   UNL     1     100.974 123.811 145.849  0.00  0.00    +0.000 C 
ENDBRANCH  11  28
TORSDOF 5
ENDMDL
MODEL 2
REMARK VINA RESULT:      -8.1      1.147      2.089
REMARK  Name = 11795367
REMARK  5 active torsions:
REMARK  status: ('A' for Active; 'I' for Inactive)
REMARK    1  A    between atoms: O_3  and  C_14
REMARK    2  A    between atoms: O_4  and  C_15
REMARK    3  A    between atoms: O_6  and  C_17
REMARK    4  A    between atoms: O_7  and  C_18
REMARK    5  A    between atoms: C_12  and  C_13
REMARK                            x       y       z     vdW  Elec       q    Type
REMARK                         _______ _______ _______ _____ _____    ______ ____
ROOT
ATOM      1  O   UNL     1     104.042 124.252 147.763  0.00  0.00    +0.000 OA
ATOM      2  O   UNL     1     101.331 123.318 147.482  0.00  0.00    +0.000 OA
ATOM      3  O   UNL     1     104.380 123.916 145.276  0.00  0.00    +0.000 OA
ATOM      4  C   UNL     1     103.521 123.847 146.455  0.00  0.00    +0.000 A 
ATOM      5  C   UNL     1     103.408 123.956 147.265  0.00  0.00    +0.000 A 
ATOM      6  C   UNL     1     104.805 124.438 147.412  0.00  0.00    +0.000 A 
ATOM      7  C   UNL     1     104.923 124.325 146.569  0.00  0.00    +0.000 A 
ATOM      8  C   UNL     1     102.903 123.562 145.988  0.00  0.00    +0.000 A 
ATOM      9  C   UNL     1     104.276 124.027 146.087  0.00  0.00    +0.000 A 
ATOM     10  C   UNL     1     102.678 123.779 147.608  0.00  0.00    +0.000 A 
ATOM     11  C   UNL     1     102.174 123.386 146.329  0.00  0.00    +0.000 A 
ATOM     12  C   UNL     1     102.062 123.494 147.139  0.00  0.00    +0.000 A 
ENDROOT
BRANCH   6  15
ATOM     13  O   UNL     1     107.164 124.101 149.113  0.00  0.00    +0.000 OA
ATOM     14  O   UNL     1     107.301 125.407 149.310  0.00  0.00    +0.000 OA
ATOM     15  C   UNL     1     105.420 124.723 147.883  0.00  0.00    +0.000 A 
ATOM     16  C   UNL     1     105.950 124.196 148.232  0.00  0.00    +0.000 A 
ATOM     17  C   UNL     1     106.565 124.480 148.703  0.00  0.00    +0.000 A 
ATOM     18  C   UNL     1     105.505 125.535 148.005  0.00  0.00    +0.000 A 
ATOM     19  C   UNL     1     106.650 125.292 148.825  0.00  0.00    +0.000 A 
ATOM     20  C   UNL     1     106.119 125.819 148.475  0.00  0.00    +0.000 A 
ATOM     21  C   UNL     1     107.618 124.671 149.488  0.00  0.00    +0.000 C 
ENDBRANCH   6  15
BRANCH   7  22
ATOM     22  O   UNL     1     105.651 124.501 146.224  0.00  0.00    +0.000 OA
ATOM     23  C   UNL     1     105.680 124.850 145.477  0.00  0.00    +0.000 C 
ENDBRANCH   7  22
BRANCH   8  24
ATOM     24  O   UNL     1     103.016 123.453 145.178  0.00  0.00    +0.000 OA
ATOM     25  C   UNL     1     103.316 122.739 144.895  0.00  0.00    +0.000 C 
ENDBRANCH   8  24
BRANCH  10  26
ATOM     26  O   UNL     1     102.565 123.888 148.418  0.00  0.00    +0.000 OA
ATOM     27  C   UNL     1     102.008 124.433 148.686  0.00  0.00    +0.000 C 
ENDBRANCH  10  26
BRANCH  11  28
ATOM     28  O   UNL     1     101.557 123.100 145.862  0.00  0.00    +0.000 OA
ATOM     29  C   UNL     1     100.908 123.581 145.698  0.00  0.00    +0.000 C 
ENDBRANCH  11  28
TORSDOF 5
ENDMDL
MODEL 3
REMARK VINA RESULT:      -8.1      2.442      3.594
REMARK  Name = 11795367
REMARK  5 active torsions:
REMARK  status: ('A' for Active; 'I' for Inactive)
REMARK    1  A    between atoms: O_3  and  C_14
REMARK    2  A    between atoms: O_4  and  C_15
REMARK    3  A    between atoms: O_6  and  C_17
REMARK    4  A    between atoms: O_7  and  C_18
REMARK    5  A    between atoms: C_12  and  C_13
REMARK                            x       y       z     vdW  Elec       q    Type
REMARK                         _______ _______ _______ _____ _____    ______ ____
ROOT
ATOM      1  O   UNL     1     106.151 124.927 145.977  0.00  0.00    +0.000 OA
ATOM      2  O   UNL     1     105.156 124.201 143.372  0.00  0.00    +0.000 OA
ATOM      3  O   UNL     1     106.880 127.163 145.038  0.00  0.00    +0.000 OA
ATOM      4  C   UNL     1     106.260 125.854 144.848  0.00  0.00    +0.000 A 
ATOM      5  C   UNL     1     106.022 125.125 145.151  0.00  0.00    +0.000 A 
ATOM      6  C   UNL     1     106.534 125.497 146.494  0.00  0.00    +0.000 A 
ATOM      7  C   UNL     1     106.782 126.256 146.179  0.00  0.00    +0.000 A 
ATOM      8  C   UNL     1     106.131 126.032 144.052  0.00  0.00    +0.000 A 
ATOM      9  C   UNL     1     106.645 126.436 145.349  0.00  0.00    +0.000 A 
ATOM     10  C   UNL     1     105.654 124.573 144.659  0.00  0.00    +0.000 A 
ATOM     11  C   UNL     1     105.763 125.482 143.561  0.00  0.00    +0.000 A 
ATOM     12  C   UNL     1     105.525 124.752 143.864  0.00  0.00    +0.000 A 
ENDROOT
BRANCH   6  15
ATOM     13  O   UNL     1     108.166 124.518 148.720  0.00  0.00    +0.000 OA
ATOM     14  O   UNL     1     107.203 124.722 149.612  0.00  0.00    +0.000 OA
ATOM     15  C   UNL     1     106.662 125.315 147.289  0.00  0.00    +0.000 A 
ATOM     16  C   UNL     1     107.389 125.006 147.529  0.00  0.00    +0.000 A 
ATOM     17  C   UNL     1     107.517 124.824 148.324  0.00  0.00    +0.000 A 
ATOM     18  C   UNL     1     106.064 125.441 147.843  0.00  0.00    +0.000 A 
ATOM     19  C   UNL     1     106.919 124.951 148.878  0.00  0.00    +0.000 A 
ATOM     20  C   UNL     1     106.192 125.259 148.637  0.00  0.00    +0.000 A 
ATOM     21  C   UNL     1     107.973 124.455 149.514  0.00  0.00    +0.000 C 
ENDBRANCH   6  15
BRANCH   7  22
ATOM     22  O   UNL     1     107.151 126.809 146.668  0.00  0.00    +0.000 OA
ATOM     23  C   UNL     1     107.024 127.615 146.548  0.00  0.00    +0.000 C 
ENDBRANCH   7  22
BRANCH   8  24
ATOM     24  O   UNL     1     106.369 126.761 143.749  0.00  0.00    +0.000 OA
ATOM     25  C   UNL     1     105.839 127.392 143.726  0.00  0.00    +0.000 C 
ENDBRANCH   8  24
BRANCH  10  26
ATOM     26  O   UNL     1     105.415 123.844 144.962  0.00  0.00    +0.000 OA
ATOM     27  C   UNL     1     104.615 123.645 144.974  0.00  0.00    +0.000 C 
ENDBRANCH  10  26
BRANCH  11  28
ATOM     28  O   UNL     1     105.633 125.659 142.765  0.00  0.00    +0.000 OA
ATOM     29  C   UNL     1     106.042 125.249 142.179  0.00  0.00    +0.000 C 
ENDBRANCH  11  28
TORSDOF 5
ENDMDL
MODEL 4
REMARK VINA RESULT:      -8.1     12.826     14.356
REMARK  Name = 11795367
REMARK  5 active torsions:
REMARK  status: ('A' for Active; 'I' for Inactive)
REMARK    1  A    between atoms: O_3  and  C_14
REMARK    2  A    between atoms: O_4  and  C_15
REMARK    3  A    between atoms: O_6  and  C_17
REMARK    4  A    between atoms: O_7  and  C_18
REMARK    5  A    between atoms: C_12  and  C_13
REMARK                            x       y       z     vdW  Elec       q    Type
REMARK                         _______ _______ _______ _____ _____    ______ ____
ROOT
ATOM      1  O   UNL     1     113.489 127.069 136.455  0.00  0.00    +0.000 OA
ATOM      2  O   UNL     1     113.494 124.216 136.862  0.00  0.00    +0.000 OA
ATOM      3  O   UNL     1     111.023 126.950 135.891  0.00  0.00    +0.000 OA
ATOM      4  C   UNL     1     112.265 126.284 136.278  0.00  0.00    +0.000 A 
ATOM      5  C   UNL     1     113.068 126.320 136.462  0.00  0.00    +0.000 A 
ATOM      6  C   UNL     1     113.068 127.790 136.253  0.00  0.00    +0.000 A 
ATOM      7  C   UNL     1     112.231 127.753 136.061  0.00  0.00    +0.000 A 
ATOM      8  C   UNL     1     111.871 125.559 136.289  0.00  0.00    +0.000 A 
ATOM      9  C   UNL     1     111.827 126.994 136.074  0.00  0.00    +0.000 A 
ATOM     10  C   UNL     1     113.478 125.631 136.657  0.00  0.00    +0.000 A 
ATOM     11  C   UNL     1     112.281 124.870 136.483  0.00  0.00    +0.000 A 
ATOM     12  C   UNL     1     113.084 124.906 136.667  0.00  0.00    +0.000 A 
ENDROOT
BRANCH   6  15
ATOM     13  O   UNL     1     114.691 129.862 134.971  0.00  0.00    +0.000 OA
ATOM     14  O   UNL     1     114.692 130.634 136.051  0.00  0.00    +0.000 OA
ATOM     15  C   UNL     1     113.465 128.514 136.244  0.00  0.00    +0.000 A 
ATOM     16  C   UNL     1     113.861 128.758 135.562  0.00  0.00    +0.000 A 
ATOM     17  C   UNL     1     114.258 129.481 135.552  0.00  0.00    +0.000 A 
ATOM     18  C   UNL     1     113.465 128.994 136.915  0.00  0.00    +0.000 A 
ATOM     19  C   UNL     1     114.259 129.960 136.223  0.00  0.00    +0.000 A 
ATOM     20  C   UNL     1     113.862 129.716 136.905  0.00  0.00    +0.000 A 
ATOM     21  C   UNL     1     114.959 130.574 135.277  0.00  0.00    +0.000 C 
ENDBRANCH   6  15
BRANCH   7  22
ATOM     22  O   UNL     1     111.819 128.441 135.866  0.00  0.00    +0.000 OA
ATOM     23  C   UNL     1     111.030 128.527 136.093  0.00  0.00    +0.000 C 
ENDBRANCH   7  22
BRANCH   8  24
ATOM     24  O   UNL     1     111.068 125.523 136.105  0.00  0.00    +0.000 OA
ATOM     25  C   UNL     1     110.828 125.423 135.322  0.00  0.00    +0.000 C 
ENDBRANCH   8  24
BRANCH  10  26
ATOM     26  O   UNL     1     114.282 125.666 136.841  0.00  0.00    +0.000 OA
ATOM     27  C   UNL     1     114.830 125.267 136.373  0.00  0.00    +0.000 C 
ENDBRANCH  10  26
BRANCH  11  28
ATOM     28  O   UNL     1     111.888 124.145 136.494  0.00  0.00    +0.000 OA
ATOM     29  C   UNL     1     111.793 123.737 137.204  0.00  0.00    +0.000 C 
ENDBRANCH  11  28
TORSDOF 5
ENDMDL
MODEL 5
REMARK VINA RESULT:      -8.0      1.308      4.501
REMARK  Name = 11795367
REMARK  5 active torsions:
REMARK  status: ('A' for Active; 'I' for Inactive)
REMARK    1  A    between atoms: O_3  and  C_14
REMARK    2  A    between atoms: O_4  and  C_15
REMARK    3  A    between atoms: O_6  and  C_17
REMARK    4  A    between atoms: O_7  and  C_18
REMARK    5  A    between atoms: C_12  and  C_13
REMARK                            x       y       z     vdW  Elec       q    Type
REMARK                         _______ _______ _______ _____ _____    ______ ____
ROOT
ATOM      1  O   UNL     1     104.519 124.740 145.911  0.00  0.00    +0.000 OA
ATOM      2  O   UNL     1     106.767 126.285 144.984  0.00  0.00    +0.000 OA
ATOM      3  O   UNL     1     105.342 125.029 148.287  0.00  0.00    +0.000 OA
ATOM      4  C   UNL     1     105.500 125.276 146.857  0.00  0.00    +0.000 A 
ATOM      5  C   UNL     1     105.234 125.184 146.081  0.00  0.00    +0.000 A 
ATOM      6  C   UNL     1     104.074 124.387 146.557  0.00  0.00    +0.000 A 
ATOM      7  C   UNL     1     104.351 124.483 147.364  0.00  0.00    +0.000 A 
ATOM      8  C   UNL     1     106.188 125.705 147.007  0.00  0.00    +0.000 A 
ATOM      9  C   UNL     1     105.069 124.931 147.515  0.00  0.00    +0.000 A 
ATOM     10  C   UNL     1     105.656 125.520 145.457  0.00  0.00    +0.000 A 
ATOM     11  C   UNL     1     106.610 126.041 146.384  0.00  0.00    +0.000 A 
ATOM     12  C   UNL     1     106.344 125.949 145.609  0.00  0.00    +0.000 A 
ENDROOT
BRANCH   6  15
ATOM     13  O   UNL     1     101.168 124.101 146.343  0.00  0.00    +0.000 OA
ATOM     14  O   UNL     1     101.246 122.827 145.977  0.00  0.00    +0.000 OA
ATOM     15  C   UNL     1     103.386 123.959 146.401  0.00  0.00    +0.000 A 
ATOM     16  C   UNL     1     102.649 124.323 146.474  0.00  0.00    +0.000 A 
ATOM     17  C   UNL     1     101.960 123.895 146.319  0.00  0.00    +0.000 A 
ATOM     18  C   UNL     1     103.434 123.167 146.174  0.00  0.00    +0.000 A 
ATOM     19  C   UNL     1     102.009 123.104 146.092  0.00  0.00    +0.000 A 
ATOM     20  C   UNL     1     102.747 122.739 146.019  0.00  0.00    +0.000 A 
ATOM     21  C   UNL     1     100.727 123.444 146.132  0.00  0.00    +0.000 C 
ENDBRANCH   6  15
BRANCH   7  22
ATOM     22  O   UNL     1     103.931 124.148 147.990  0.00  0.00    +0.000 OA
ATOM     23  C   UNL     1     103.854 124.559 148.701  0.00  0.00    +0.000 C 
ENDBRANCH   7  22
BRANCH   8  24
ATOM     24  O   UNL     1     106.455 125.798 147.783  0.00  0.00    +0.000 OA
ATOM     25  C   UNL     1     106.956 125.235 148.117  0.00  0.00    +0.000 C 
ENDBRANCH   8  24
BRANCH  10  26
ATOM     26  O   UNL     1     105.390 125.427 144.681  0.00  0.00    +0.000 OA
ATOM     27  C   UNL     1     105.875 125.069 144.119  0.00  0.00    +0.000 C 
ENDBRANCH  10  26
BRANCH  11  28
ATOM     28  O   UNL     1     107.299 126.470 146.535  0.00  0.00    +0.000 OA
ATOM     29  C   UNL     1     107.281 127.295 146.535  0.00  0.00    +0.000 C 
ENDBRANCH  11  28
TORSDOF 5
ENDMDL
MODEL 6
REMARK VINA RESULT:      -7.9     12.795     13.918
REMARK  Name = 11795367
REMARK  5 active torsions:
REMARK  status: ('A' for Active; 'I' for Inactive)
REMARK    1  A    between atoms: O_3  and  C_14
REMARK    2  A    between atoms: O_4  and  C_15
REMARK    3  A    between atoms: O_6  and  C_17
REMARK    4  A    between atoms: O_7  and  C_18
REMARK    5  A    between atoms: C_12  and  C_13
REMARK                            x       y       z     vdW  Elec       q    Type
REMARK                         _______ _______ _______ _____ _____    ______ ____
ROOT
ATOM      1  O   UNL     1     111.577 127.369 136.150  0.00  0.00    +0.000 OA
ATOM      2  O   UNL     1     114.040 126.311 137.206  0.00  0.00    +0.000 OA
ATOM      3  O   UNL     1     110.831 125.008 135.617  0.00  0.00    +0.000 OA
ATOM      4  C   UNL     1     111.832 125.926 136.154  0.00  0.00    +0.000 A 
ATOM      5  C   UNL     1     112.078 126.694 136.328  0.00  0.00    +0.000 A 
ATOM      6  C   UNL     1     110.809 127.242 135.785  0.00  0.00    +0.000 A 
ATOM      7  C   UNL     1     110.553 126.442 135.603  0.00  0.00    +0.000 A 
ATOM      8  C   UNL     1     112.323 125.287 136.330  0.00  0.00    +0.000 A 
ATOM      9  C   UNL     1     111.069 125.780 135.789  0.00  0.00    +0.000 A 
ATOM     10  C   UNL     1     112.814 126.823 136.679  0.00  0.00    +0.000 A 
ATOM     11  C   UNL     1     113.058 125.415 136.681  0.00  0.00    +0.000 A 
ATOM     12  C   UNL     1     113.304 126.183 136.855  0.00  0.00    +0.000 A 
ENDROOT
BRANCH   6  15
ATOM     13  O   UNL     1     108.680 129.152 136.412  0.00  0.00    +0.000 OA
ATOM     14  O   UNL     1     108.795 129.776 135.246  0.00  0.00    +0.000 OA
ATOM     15  C   UNL     1     110.321 127.884 135.610  0.00  0.00    +0.000 A 
ATOM     16  C   UNL     1     109.762 128.138 136.160  0.00  0.00    +0.000 A 
ATOM     17  C   UNL     1     109.274 128.781 135.986  0.00  0.00    +0.000 A 
ATOM     18  C   UNL     1     110.393 128.272 134.885  0.00  0.00    +0.000 A 
ATOM     19  C   UNL     1     109.345 129.169 135.262  0.00  0.00    +0.000 A 
ATOM     20  C   UNL     1     109.905 128.914 134.711  0.00  0.00    +0.000 A 
ATOM     21  C   UNL     1     108.385 129.766 135.957  0.00  0.00    +0.000 C 
ENDBRANCH   6  15
BRANCH   7  22
ATOM     22  O   UNL     1     109.818 126.311 135.252  0.00  0.00    +0.000 OA
ATOM     23  C   UNL     1     109.731 125.718 134.685  0.00  0.00    +0.000 C 
ENDBRANCH   7  22
BRANCH   8  24
ATOM     24  O   UNL     1     112.077 124.519 136.155  0.00  0.00    +0.000 OA
ATOM     25  C   UNL     1     111.682 124.072 136.725  0.00  0.00    +0.000 C 
ENDBRANCH   8  24
BRANCH  10  26
ATOM     26  O   UNL     1     113.060 127.591 136.854  0.00  0.00    +0.000 OA
ATOM     27  C   UNL     1     113.168 127.820 137.638  0.00  0.00    +0.000 C 
ENDBRANCH  10  26
BRANCH  11  28
ATOM     28  O   UNL     1     113.549 124.775 136.857  0.00  0.00    +0.000 OA
ATOM     29  C   UNL     1     114.261 124.677 136.453  0.00  0.00    +0.000 C 
ENDBRANCH  11  28
TORSDOF 5
ENDMDL
MODEL 7
REMARK VINA RESULT:      -7.7     12.363     13.840
REMARK  Name = 11795367
REMARK  5 active torsions:
REMARK  status: ('A' for Active; 'I' for Inactive)
REMARK    1  A    between atoms: O_3  and  C_14
REMARK    2  A    between atoms: O_4  and  C_15
REMARK    3  A    between atoms: O_6  and  C_17
REMARK    4  A    between atoms: O_7  and  C_18
REMARK    5  A    between atoms: C_12  and  C_13
REMARK                            x       y       z     vdW  Elec       q    Type
REMARK                         _______ _______ _______ _____ _____    ______ ____
ROOT
ATOM      1  O   UNL     1     112.972 127.272 136.701  0.00  0.00    +0.000 OA
ATOM      2  O   UNL     1     112.921 129.999 135.771  0.00  0.00    +0.000 OA
ATOM      3  O   UNL     1     113.167 128.122 139.078  0.00  0.00    +0.000 OA
ATOM      4  C   UNL     1     113.056 128.388 137.646  0.00  0.00    +0.000 A 
ATOM      5  C   UNL     1     112.992 128.114 136.871  0.00  0.00    +0.000 A 
ATOM      6  C   UNL     1     113.018 126.707 137.348  0.00  0.00    +0.000 A 
ATOM      7  C   UNL     1     113.084 126.993 138.155  0.00  0.00    +0.000 A 
ATOM      8  C   UNL     1     113.074 129.199 137.796  0.00  0.00    +0.000 A 
ATOM      9  C   UNL     1     113.103 127.839 138.306  0.00  0.00    +0.000 A 
ATOM     10  C   UNL     1     112.947 128.651 136.245  0.00  0.00    +0.000 A 
ATOM     11  C   UNL     1     113.029 129.736 137.172  0.00  0.00    +0.000 A 
ATOM     12  C   UNL     1     112.966 129.461 136.397  0.00  0.00    +0.000 A 
ENDROOT
BRANCH   6  15
ATOM     13  O   UNL     1     111.647 124.138 137.045  0.00  0.00    +0.000 OA
ATOM     14  O   UNL     1     112.770 123.489 136.759  0.00  0.00    +0.000 OA
ATOM     15  C   UNL     1     112.999 125.897 137.193  0.00  0.00    +0.000 A 
ATOM     16  C   UNL     1     112.282 125.490 137.217  0.00  0.00    +0.000 A 
ATOM     17  C   UNL     1     112.262 124.680 137.063  0.00  0.00    +0.000 A 
ATOM     18  C   UNL     1     113.697 125.494 137.016  0.00  0.00    +0.000 A 
ATOM     19  C   UNL     1     112.959 124.276 136.885  0.00  0.00    +0.000 A 
ATOM     20  C   UNL     1     113.677 124.684 136.862  0.00  0.00    +0.000 A 
ATOM     21  C   UNL     1     111.960 123.403 136.858  0.00  0.00    +0.000 C 
ENDBRANCH   6  15
BRANCH   7  22
ATOM     22  O   UNL     1     113.129 126.458 138.782  0.00  0.00    +0.000 OA
ATOM     23  C   UNL     1     113.577 126.643 139.450  0.00  0.00    +0.000 C 
ENDBRANCH   7  22
BRANCH   8  24
ATOM     24  O   UNL     1     113.138 129.473 138.572  0.00  0.00    +0.000 OA
ATOM     25  C   UNL     1     112.458 129.625 139.014  0.00  0.00    +0.000 C 
ENDBRANCH   8  24
BRANCH  10  26
ATOM     26  O   UNL     1     112.884 128.377 135.470  0.00  0.00    +0.000 OA
ATOM     27  C   UNL     1     112.224 128.573 135.016  0.00  0.00    +0.000 C 
ENDBRANCH  10  26
BRANCH  11  28
ATOM     28  O   UNL     1     113.048 130.547 137.322  0.00  0.00    +0.000 OA
ATOM     29  C   UNL     1     113.712 130.990 137.115  0.00  0.00    +0.000 C 
ENDBRANCH  11  28
TORSDOF 5
ENDMDL
MODEL 8
REMARK VINA RESULT:      -7.7     10.478     12.375
REMARK  Name = 11795367
REMARK  5 active torsions:
REMARK  status: ('A' for Active; 'I' for Inactive)
REMARK    1  A    between atoms: O_3  and  C_14
REMARK    2  A    between atoms: O_4  and  C_15
REMARK    3  A    between atoms: O_6  and  C_17
REMARK    4  A    between atoms: O_7  and  C_18
REMARK    5  A    between atoms: C_12  and  C_13
REMARK                            x       y       z     vdW  Elec       q    Type
REMARK                         _______ _______ _______ _____ _____    ______ ____
ROOT
ATOM      1  O   UNL     1     113.490 126.250 138.611  0.00  0.00    +0.000 OA
ATOM      2  O   UNL     1     113.582 124.231 136.557  0.00  0.00    +0.000 OA
ATOM      3  O   UNL     1     110.972 125.999 138.697  0.00  0.00    +0.000 OA
ATOM      4  C   UNL     1     112.262 125.612 138.132  0.00  0.00    +0.000 A 
ATOM      5  C   UNL     1     113.082 125.691 138.101  0.00  0.00    +0.000 A 
ATOM      6  C   UNL     1     113.038 126.732 139.160  0.00  0.00    +0.000 A 
ATOM      7  C   UNL     1     112.183 126.649 139.191  0.00  0.00    +0.000 A 
ATOM      8  C   UNL     1     111.881 125.072 137.637  0.00  0.00    +0.000 A 
ATOM      9  C   UNL     1     111.792 126.085 138.673  0.00  0.00    +0.000 A 
ATOM     10  C   UNL     1     113.523 125.231 137.576  0.00  0.00    +0.000 A 
ATOM     11  C   UNL     1     112.321 124.612 137.112  0.00  0.00    +0.000 A 
ATOM     12  C   UNL     1     113.141 124.691 137.082  0.00  0.00    +0.000 A 
ENDROOT
BRANCH   6  15
ATOM     13  O   UNL     1     113.952 129.418 139.883  0.00  0.00    +0.000 OA
ATOM     14  O   UNL     1     114.523 129.001 141.007  0.00  0.00    +0.000 OA
ATOM     15  C   UNL     1     113.422 127.271 139.653  0.00  0.00    +0.000 A 
ATOM     16  C   UNL     1     113.451 128.070 139.447  0.00  0.00    +0.000 A 
ATOM     17  C   UNL     1     113.834 128.609 139.939  0.00  0.00    +0.000 A 
ATOM     18  C   UNL     1     113.777 127.012 140.351  0.00  0.00    +0.000 A 
ATOM     19  C   UNL     1     114.189 128.350 140.638  0.00  0.00    +0.000 A 
ATOM     20  C   UNL     1     114.160 127.551 140.843  0.00  0.00    +0.000 A 
ATOM     21  C   UNL     1     114.376 129.660 140.541  0.00  0.00    +0.000 C 
ENDBRANCH   6  15
BRANCH   7  22
ATOM     22  O   UNL     1     111.741 127.108 139.715  0.00  0.00    +0.000 OA
ATOM     23  C   UNL     1     111.096 126.778 140.110  0.00  0.00    +0.000 C 
ENDBRANCH   7  22
BRANCH   8  24
ATOM     24  O   UNL     1     111.061 124.992 137.667  0.00  0.00    +0.000 OA
ATOM     25  C   UNL     1     110.581 125.489 137.216  0.00  0.00    +0.000 C 
ENDBRANCH   8  24
BRANCH  10  26
ATOM     26  O   UNL     1     114.343 125.310 137.546  0.00  0.00    +0.000 OA
ATOM     27  C   UNL     1     114.712 125.503 136.834  0.00  0.00    +0.000 C 
ENDBRANCH  10  26
BRANCH  11  28
ATOM     28  O   UNL     1     111.941 124.072 136.618  0.00  0.00    +0.000 OA
ATOM     29  C   UNL     1     112.001 123.263 136.765  0.00  0.00    +0.000 C 
ENDBRANCH  11  28
TORSDOF 5
ENDMDL
MODEL 9
REMARK VINA RESULT:      -7.7      2.646      4.325
REMARK  Name = 11795367
REMARK  5 active torsions:
REMARK  status: ('A' for Active; 'I' for Inactive)
REMARK    1  A    between atoms: O_3  and  C_14
REMARK    2  A    between atoms: O_4  and  C_15
REMARK    3  A    between atoms: O_6  and  C_17
REMARK    4  A    between atoms: O_7  and  C_18
REMARK    5  A    between atoms: C_12  and  C_13
REMARK                            x       y       z     vdW  Elec       q    Type
REMARK                         _______ _______ _______ _____ _____    ______ ____
ROOT
ATOM      1  O   UNL     1     106.710 126.362 145.842  0.00  0.00    +0.000 OA
ATOM      2  O   UNL     1     107.001 128.016 143.501  0.00  0.00    +0.000 OA
ATOM      3  O   UNL     1     105.319 124.741 144.482  0.00  0.00    +0.000 OA
ATOM      4  C   UNL     1     106.092 125.977 144.571  0.00  0.00    +0.000 A 
ATOM      5  C   UNL     1     106.546 126.507 145.012  0.00  0.00    +0.000 A 
ATOM      6  C   UNL     1     106.397 125.655 146.219  0.00  0.00    +0.000 A 
ATOM      7  C   UNL     1     105.925 125.104 145.761  0.00  0.00    +0.000 A 
ATOM      8  C   UNL     1     105.942 126.127 143.774  0.00  0.00    +0.000 A 
ATOM      9  C   UNL     1     105.771 125.266 144.930  0.00  0.00    +0.000 A 
ATOM     10  C   UNL     1     106.849 127.187 144.655  0.00  0.00    +0.000 A 
ATOM     11  C   UNL     1     106.244 126.806 143.417  0.00  0.00    +0.000 A 
ATOM     12  C   UNL     1     106.697 127.336 143.858  0.00  0.00    +0.000 A 
ENDROOT
BRANCH   6  15
ATOM     13  O   UNL     1     107.995 124.558 148.414  0.00  0.00    +0.000 OA
ATOM     14  O   UNL     1     107.150 124.990 149.343  0.00  0.00    +0.000 OA
ATOM     15  C   UNL     1     106.550 125.509 147.017  0.00  0.00    +0.000 A 
ATOM     16  C   UNL     1     107.228 125.094 147.237  0.00  0.00    +0.000 A 
ATOM     17  C   UNL     1     107.382 124.947 148.034  0.00  0.00    +0.000 A 
ATOM     18  C   UNL     1     106.025 125.777 147.595  0.00  0.00    +0.000 A 
ATOM     19  C   UNL     1     106.857 125.214 148.612  0.00  0.00    +0.000 A 
ATOM     20  C   UNL     1     106.178 125.630 148.391  0.00  0.00    +0.000 A 
ATOM     21  C   UNL     1     107.854 124.584 149.221  0.00  0.00    +0.000 C 
ENDBRANCH   6  15
BRANCH   7  22
ATOM     22  O   UNL     1     105.621 124.423 146.114  0.00  0.00    +0.000 OA
ATOM     23  C   UNL     1     104.856 124.172 145.935  0.00  0.00    +0.000 C 
ENDBRANCH   7  22
BRANCH   8  24
ATOM     24  O   UNL     1     105.488 125.597 143.333  0.00  0.00    +0.000 OA
ATOM     25  C   UNL     1     105.852 124.972 142.937  0.00  0.00    +0.000 C 
ENDBRANCH   8  24
BRANCH  10  26
ATOM     26  O   UNL     1     107.302 127.717 145.096  0.00  0.00    +0.000 OA
ATOM     27  C   UNL     1     107.033 128.486 145.220  0.00  0.00    +0.000 C 
ENDBRANCH  10  26
BRANCH  11  28
ATOM     28  O   UNL     1     106.093 126.957 142.620  0.00  0.00    +0.000 OA
ATOM     29  C   UNL     1     105.559 127.546 142.405  0.00  0.00    +0.000 C 
ENDBRANCH  11  28
TORSDOF 5
ENDMDL
MODEL 10
REMARK VINA RESULT:      -7.6     11.116     13.180
REMARK  Name = 11795367
REMARK  5 active torsions:
REMARK  status: ('A' for Active; 'I' for Inactive)
REMARK    1  A    between atoms: O_3  and  C_14
REMARK    2  A    between atoms: O_4  and  C_15
REMARK    3  A    between atoms: O_6  and  C_17
REMARK    4  A    between atoms: O_7  and  C_18
REMARK    5  A    between atoms: C_12  and  C_13
REMARK                            x       y       z     vdW  Elec       q    Type
REMARK                         _______ _______ _______ _____ _____    ______ ____
ROOT
ATOM      1  O   UNL     1     113.268 126.789 138.942  0.00  0.00    +0.000 OA
ATOM      2  O   UNL     1     113.419 128.515 141.244  0.00  0.00    +0.000 OA
ATOM      3  O   UNL     1     113.108 128.835 137.460  0.00  0.00    +0.000 OA
ATOM      4  C   UNL     1     113.227 128.245 138.791  0.00  0.00    +0.000 A 
ATOM      5  C   UNL     1     113.279 127.580 139.276  0.00  0.00    +0.000 A 
ATOM      6  C   UNL     1     113.201 126.688 138.091  0.00  0.00    +0.000 A 
ATOM      7  C   UNL     1     113.146 127.381 137.586  0.00  0.00    +0.000 A 
ATOM      8  C   UNL     1     113.239 129.000 139.124  0.00  0.00    +0.000 A 
ATOM      9  C   UNL     1     113.159 128.165 137.938  0.00  0.00    +0.000 A 
ATOM     10  C   UNL     1     113.343 127.670 140.094  0.00  0.00    +0.000 A 
ATOM     11  C   UNL     1     113.303 129.091 139.940  0.00  0.00    +0.000 A 
ATOM     12  C   UNL     1     113.355 128.425 140.426  0.00  0.00    +0.000 A 
ENDROOT
BRANCH   6  15
ATOM     13  O   UNL     1     111.843 124.280 137.128  0.00  0.00    +0.000 OA
ATOM     14  O   UNL     1     112.981 123.682 136.796  0.00  0.00    +0.000 OA
ATOM     15  C   UNL     1     113.189 125.931 137.762  0.00  0.00    +0.000 A 
ATOM     16  C   UNL     1     112.470 125.547 137.640  0.00  0.00    +0.000 A 
ATOM     17  C   UNL     1     112.457 124.790 137.311  0.00  0.00    +0.000 A 
ATOM     18  C   UNL     1     113.896 125.560 137.556  0.00  0.00    +0.000 A 
ATOM     19  C   UNL     1     113.164 124.418 137.105  0.00  0.00    +0.000 A 
ATOM     20  C   UNL     1     113.884 124.804 137.227  0.00  0.00    +0.000 A 
ATOM     21  C   UNL     1     112.165 123.596 136.810  0.00  0.00    +0.000 C 
ENDBRANCH   6  15
BRANCH   7  22
ATOM     22  O   UNL     1     113.082 127.294 136.768  0.00  0.00    +0.000 OA
ATOM     23  C   UNL     1     113.443 127.839 136.265  0.00  0.00    +0.000 C 
ENDBRANCH   7  22
BRANCH   8  24
ATOM     24  O   UNL     1     113.186 129.665 138.638  0.00  0.00    +0.000 OA
ATOM     25  C   UNL     1     112.449 129.988 138.457  0.00  0.00    +0.000 C 
ENDBRANCH   8  24
BRANCH  10  26
ATOM     26  O   UNL     1     113.396 127.005 140.580  0.00  0.00    +0.000 OA
ATOM     27  C   UNL     1     112.802 126.850 141.131  0.00  0.00    +0.000 C 
ENDBRANCH  10  26
BRANCH  11  28
ATOM     28  O   UNL     1     113.315 129.846 140.273  0.00  0.00    +0.000 OA
ATOM     29  C   UNL     1     114.006 130.134 140.617  0.00  0.00    +0.000 C 
ENDBRANCH  11  28
TORSDOF 5
ENDMDL
