MODEL 1
REMARK VINA RESULT:      -8.7      0.000      0.000
REMARK  Name = 44259875
REMARK  4 active torsions:
REMARK  status: ('A' for Active; 'I' for Inactive)
REMARK    1  A    between atoms: S_1  and  O_4
REMARK    2  A    between atoms: O_3  and  C_16
REMARK    3  A    between atoms: O_4  and  C_21
REMARK    4  A    between atoms: C_15  and  C_19
REMARK                            x       y       z     vdW  Elec       q    Type
REMARK                         _______ _______ _______ _____ _____    ______ ____
ROOT
ATOM      1  O   UNL     1     104.960 124.712 147.871  0.00  0.00    +0.000 OA
ATOM      2  O   UNL     1     102.632 126.138 148.813  0.00  0.00    +0.000 OA
ATOM      3  O   UNL     1     101.643 125.222 147.793  0.00  0.00    +0.000 OA
ATOM      4  O   UNL     1     103.947 126.444 149.319  0.00  0.00    +0.000 OA
ATOM      5  C   UNL     1     103.808 125.416 148.336  0.00  0.00    +0.000 A 
ATOM      6  C   UNL     1     104.146 124.839 147.853  0.00  0.00    +0.000 A 
ATOM      7  C   UNL     1     105.438 125.162 148.371  0.00  0.00    +0.000 A 
ATOM      8  C   UNL     1     105.100 125.739 148.854  0.00  0.00    +0.000 A 
ATOM      9  C   UNL     1     104.285 125.867 148.836  0.00  0.00    +0.000 A 
ATOM     10  C   UNL     1     102.960 125.559 148.327  0.00  0.00    +0.000 A 
ATOM     11  C   UNL     1     103.659 124.363 147.327  0.00  0.00    +0.000 A 
ATOM     12  C   UNL     1     102.810 124.491 147.305  0.00  0.00    +0.000 A 
ATOM     13  C   UNL     1     102.458 125.093 147.808  0.00  0.00    +0.000 A 
ENDROOT
BRANCH   7  16
ATOM     14  O   UNL     1     108.032 125.578 147.246  0.00  0.00    +0.000 OA
ATOM     15  O   UNL     1     108.698 124.654 148.441  0.00  0.00    +0.000 OA
ATOM     16  C   UNL     1     106.252 125.035 148.388  0.00  0.00    +0.000 A 
ATOM     17  C   UNL     1     106.735 125.370 147.809  0.00  0.00    +0.000 A 
ATOM     18  C   UNL     1     106.585 124.573 148.985  0.00  0.00    +0.000 A 
ATOM     19  C   UNL     1     107.549 125.243 147.826  0.00  0.00    +0.000 A 
ATOM     20  C   UNL     1     107.400 124.445 149.003  0.00  0.00    +0.000 A 
ATOM     21  C   UNL     1     107.882 124.781 148.423  0.00  0.00    +0.000 A 
ENDBRANCH   7  16
BRANCH   8  22
ATOM     22  O   UNL     1     105.577 126.189 149.354  0.00  0.00    +0.000 OA
ATOM     23  C   UNL     1     105.338 126.946 149.582  0.00  0.00    +0.000 C 
ENDBRANCH   8  22
BRANCH  12  24
ATOM     24  O   UNL     1     102.335 124.040 146.804  0.00  0.00    +0.000 OA
BRANCH  24  25
ATOM     25  S   UNL     1     102.665 123.417 146.374  0.00  0.00    +0.000 S 
ATOM     26  O   UNL     1     102.994 122.795 145.944  0.00  0.00    +0.000 OA
ATOM     27  O   UNL     1     102.505 122.902 146.997  0.00  0.00    +0.000 OA
ATOM     28  O   UNL     1     102.824 123.933 145.750  0.00  0.00    +0.000 OA
ENDBRANCH  24  25
ENDBRANCH  12  24
TORSDOF 4
ENDMDL
MODEL 2
REMARK VINA RESULT:      -8.3      2.054      4.803
REMARK  Name = 44259875
REMARK  4 active torsions:
REMARK  status: ('A' for Active; 'I' for Inactive)
REMARK    1  A    between atoms: S_1  and  O_4
REMARK    2  A    between atoms: O_3  and  C_16
REMARK    3  A    between atoms: O_4  and  C_21
REMARK    4  A    between atoms: C_15  and  C_19
REMARK                            x       y       z     vdW  Elec       q    Type
REMARK                         _______ _______ _______ _____ _____    ______ ____
ROOT
ATOM      1  O   UNL     1     103.861 124.499 147.368  0.00  0.00    +0.000 OA
ATOM      2  O   UNL     1     104.855 123.826 144.741  0.00  0.00    +0.000 OA
ATOM      3  O   UNL     1     106.337 124.553 145.102  0.00  0.00    +0.000 OA
ATOM      4  O   UNL     1     103.518 123.465 145.145  0.00  0.00    +0.000 OA
ATOM      5  C   UNL     1     104.353 124.166 146.069  0.00  0.00    +0.000 A 
ATOM      6  C   UNL     1     104.467 124.511 146.810  0.00  0.00    +0.000 A 
ATOM      7  C   UNL     1     103.139 124.142 147.186  0.00  0.00    +0.000 A 
ATOM      8  C   UNL     1     103.025 123.798 146.445  0.00  0.00    +0.000 A 
ATOM      9  C   UNL     1     103.632 123.810 145.886  0.00  0.00    +0.000 A 
ATOM     10  C   UNL     1     104.978 124.172 145.478  0.00  0.00    +0.000 A 
ATOM     11  C   UNL     1     105.215 124.885 147.012  0.00  0.00    +0.000 A 
ATOM     12  C   UNL     1     105.850 124.901 146.434  0.00  0.00    +0.000 A 
ATOM     13  C   UNL     1     105.731 124.542 145.662  0.00  0.00    +0.000 A 
ENDROOT
BRANCH   7  16
ATOM     14  O   UNL     1     101.871 122.918 149.435  0.00  0.00    +0.000 OA
ATOM     15  O   UNL     1     100.711 124.093 149.420  0.00  0.00    +0.000 OA
ATOM     16  C   UNL     1     102.532 124.130 147.744  0.00  0.00    +0.000 A 
ATOM     17  C   UNL     1     102.505 123.531 148.310  0.00  0.00    +0.000 A 
ATOM     18  C   UNL     1     101.953 124.717 147.737  0.00  0.00    +0.000 A 
ATOM     19  C   UNL     1     101.898 123.518 148.869  0.00  0.00    +0.000 A 
ATOM     20  C   UNL     1     101.346 124.705 148.295  0.00  0.00    +0.000 A 
ATOM     21  C   UNL     1     101.318 124.105 148.861  0.00  0.00    +0.000 A 
ENDBRANCH   7  16
BRANCH   8  22
ATOM     22  O   UNL     1     102.304 123.441 146.262  0.00  0.00    +0.000 OA
ATOM     23  C   UNL     1     102.265 122.868 145.670  0.00  0.00    +0.000 C 
ENDBRANCH   8  22
BRANCH  12  24
ATOM     24  O   UNL     1     106.570 125.258 146.619  0.00  0.00    +0.000 OA
BRANCH  24  25
ATOM     25  S   UNL     1     106.762 125.418 147.406  0.00  0.00    +0.000 S 
ATOM     26  O   UNL     1     106.953 125.578 148.192  0.00  0.00    +0.000 OA
ATOM     27  O   UNL     1     107.046 124.648 147.493  0.00  0.00    +0.000 OA
ATOM     28  O   UNL     1     106.478 126.188 147.319  0.00  0.00    +0.000 OA
ENDBRANCH  24  25
ENDBRANCH  12  24
TORSDOF 4
ENDMDL
MODEL 3
REMARK VINA RESULT:      -8.3     13.729     15.204
REMARK  Name = 44259875
REMARK  4 active torsions:
REMARK  status: ('A' for Active; 'I' for Inactive)
REMARK    1  A    between atoms: S_1  and  O_4
REMARK    2  A    between atoms: O_3  and  C_16
REMARK    3  A    between atoms: O_4  and  C_21
REMARK    4  A    between atoms: C_15  and  C_19
REMARK                            x       y       z     vdW  Elec       q    Type
REMARK                         _______ _______ _______ _____ _____    ______ ____
ROOT
ATOM      1  O   UNL     1     113.771 127.783 136.227  0.00  0.00    +0.000 OA
ATOM      2  O   UNL     1     111.161 126.559 136.038  0.00  0.00    +0.000 OA
ATOM      3  O   UNL     1     111.749 125.162 136.785  0.00  0.00    +0.000 OA
ATOM      4  O   UNL     1     111.395 127.892 135.540  0.00  0.00    +0.000 OA
ATOM      5  C   UNL     1     112.481 127.177 136.134  0.00  0.00    +0.000 A 
ATOM      6  C   UNL     1     113.273 127.141 136.363  0.00  0.00    +0.000 A 
ATOM      7  C   UNL     1     113.478 128.463 135.862  0.00  0.00    +0.000 A 
ATOM      8  C   UNL     1     112.686 128.499 135.633  0.00  0.00    +0.000 A 
ATOM      9  C   UNL     1     112.187 127.856 135.769  0.00  0.00    +0.000 A 
ATOM     10  C   UNL     1     111.951 126.514 136.270  0.00  0.00    +0.000 A 
ATOM     11  C   UNL     1     113.590 126.438 136.744  0.00  0.00    +0.000 A 
ATOM     12  C   UNL     1     113.075 125.766 136.889  0.00  0.00    +0.000 A 
ATOM     13  C   UNL     1     112.250 125.804 136.650  0.00  0.00    +0.000 A 
ENDROOT
BRANCH   7  16
ATOM     14  O   UNL     1     114.627 130.931 136.731  0.00  0.00    +0.000 OA
ATOM     15  O   UNL     1     115.472 131.036 135.317  0.00  0.00    +0.000 OA
ATOM     16  C   UNL     1     113.976 129.106 135.725  0.00  0.00    +0.000 A 
ATOM     17  C   UNL     1     114.053 129.696 136.296  0.00  0.00    +0.000 A 
ATOM     18  C   UNL     1     114.398 129.158 135.019  0.00  0.00    +0.000 A 
ATOM     19  C   UNL     1     114.551 130.340 136.160  0.00  0.00    +0.000 A 
ATOM     20  C   UNL     1     114.897 129.801 134.882  0.00  0.00    +0.000 A 
ATOM     21  C   UNL     1     114.973 130.392 135.453  0.00  0.00    +0.000 A 
ENDBRANCH   7  16
BRANCH   8  22
ATOM     22  O   UNL     1     112.393 129.178 135.268  0.00  0.00    +0.000 OA
ATOM     23  C   UNL     1     111.614 129.197 134.996  0.00  0.00    +0.000 C 
ENDBRANCH   8  22
BRANCH  12  24
ATOM     24  O   UNL     1     113.371 125.088 137.254  0.00  0.00    +0.000 OA
BRANCH  24  25
ATOM     25  S   UNL     1     114.186 124.975 137.316  0.00  0.00    +0.000 S 
ATOM     26  O   UNL     1     115.001 124.862 137.379  0.00  0.00    +0.000 OA
ATOM     27  O   UNL     1     114.195 124.625 136.569  0.00  0.00    +0.000 OA
ATOM     28  O   UNL     1     114.177 125.325 138.063  0.00  0.00    +0.000 OA
ENDBRANCH  24  25
ENDBRANCH  12  24
TORSDOF 4
ENDMDL
MODEL 4
REMARK VINA RESULT:      -8.2      1.562      1.964
REMARK  Name = 44259875
REMARK  4 active torsions:
REMARK  status: ('A' for Active; 'I' for Inactive)
REMARK    1  A    between atoms: S_1  and  O_4
REMARK    2  A    between atoms: O_3  and  C_16
REMARK    3  A    between atoms: O_4  and  C_21
REMARK    4  A    between atoms: C_15  and  C_19
REMARK                            x       y       z     vdW  Elec       q    Type
REMARK                         _______ _______ _______ _____ _____    ______ ____
ROOT
ATOM      1  O   UNL     1     103.931 124.832 146.894  0.00  0.00    +0.000 OA
ATOM      2  O   UNL     1     102.718 123.907 149.347  0.00  0.00    +0.000 OA
ATOM      3  O   UNL     1     101.370 123.359 148.488  0.00  0.00    +0.000 OA
ATOM      4  O   UNL     1     104.012 124.544 149.351  0.00  0.00    +0.000 OA
ATOM      5  C   UNL     1     103.330 124.374 148.107  0.00  0.00    +0.000 A 
ATOM      6  C   UNL     1     103.303 124.471 147.288  0.00  0.00    +0.000 A 
ATOM      7  C   UNL     1     104.587 125.098 147.319  0.00  0.00    +0.000 A 
ATOM      8  C   UNL     1     104.614 125.002 148.138  0.00  0.00    +0.000 A 
ATOM      9  C   UNL     1     103.985 124.640 148.532  0.00  0.00    +0.000 A 
ATOM     10  C   UNL     1     102.682 123.999 148.529  0.00  0.00    +0.000 A 
ATOM     11  C   UNL     1     102.626 124.198 146.833  0.00  0.00    +0.000 A 
ATOM     12  C   UNL     1     101.969 123.820 147.238  0.00  0.00    +0.000 A 
ATOM     13  C   UNL     1     101.997 123.720 148.092  0.00  0.00    +0.000 A 
ENDROOT
BRANCH   7  16
ATOM     14  O   UNL     1     107.057 124.902 145.896  0.00  0.00    +0.000 OA
ATOM     15  O   UNL     1     107.101 126.545 145.745  0.00  0.00    +0.000 OA
ATOM     16  C   UNL     1     105.215 125.460 146.926  0.00  0.00    +0.000 A 
ATOM     17  C   UNL     1     105.821 125.000 146.608  0.00  0.00    +0.000 A 
ATOM     18  C   UNL     1     105.236 126.280 146.851  0.00  0.00    +0.000 A 
ATOM     19  C   UNL     1     106.450 125.361 146.214  0.00  0.00    +0.000 A 
ATOM     20  C   UNL     1     105.865 126.643 146.457  0.00  0.00    +0.000 A 
ATOM     21  C   UNL     1     106.471 126.183 146.139  0.00  0.00    +0.000 A 
ENDBRANCH   7  16
BRANCH   8  22
ATOM     22  O   UNL     1     105.268 125.268 148.564  0.00  0.00    +0.000 OA
ATOM     23  C   UNL     1     105.404 124.990 149.329  0.00  0.00    +0.000 C 
ENDBRANCH   8  22
BRANCH  12  24
ATOM     24  O   UNL     1     101.315 123.555 146.810  0.00  0.00    +0.000 OA
BRANCH  24  25
ATOM     25  S   UNL     1     101.358 123.491 145.989  0.00  0.00    +0.000 S 
ATOM     26  O   UNL     1     101.401 123.427 145.167  0.00  0.00    +0.000 OA
ATOM     27  O   UNL     1     101.025 124.242 145.913  0.00  0.00    +0.000 OA
ATOM     28  O   UNL     1     101.691 122.740 146.065  0.00  0.00    +0.000 OA
ENDBRANCH  24  25
ENDBRANCH  12  24
TORSDOF 4
ENDMDL
MODEL 5
REMARK VINA RESULT:      -8.1     10.605     12.410
REMARK  Name = 44259875
REMARK  4 active torsions:
REMARK  status: ('A' for Active; 'I' for Inactive)
REMARK    1  A    between atoms: S_1  and  O_4
REMARK    2  A    between atoms: O_3  and  C_16
REMARK    3  A    between atoms: O_4  and  C_21
REMARK    4  A    between atoms: C_15  and  C_19
REMARK                            x       y       z     vdW  Elec       q    Type
REMARK                         _______ _______ _______ _____ _____    ______ ____
ROOT
ATOM      1  O   UNL     1     111.908 125.822 138.249  0.00  0.00    +0.000 OA
ATOM      2  O   UNL     1     109.099 126.333 137.811  0.00  0.00    +0.000 OA
ATOM      3  O   UNL     1     108.895 126.685 139.451  0.00  0.00    +0.000 OA
ATOM      4  O   UNL     1     109.963 125.946 136.723  0.00  0.00    +0.000 OA
ATOM      5  C   UNL     1     110.519 126.075 138.033  0.00  0.00    +0.000 A 
ATOM      6  C   UNL     1     111.167 126.033 138.542  0.00  0.00    +0.000 A 
ATOM      7  C   UNL     1     112.002 125.651 137.447  0.00  0.00    +0.000 A 
ATOM      8  C   UNL     1     111.353 125.693 136.938  0.00  0.00    +0.000 A 
ATOM      9  C   UNL     1     110.611 125.905 137.231  0.00  0.00    +0.000 A 
ATOM     10  C   UNL     1     109.740 126.295 138.326  0.00  0.00    +0.000 A 
ATOM     11  C   UNL     1     111.082 126.209 139.379  0.00  0.00    +0.000 A 
ATOM     12  C   UNL     1     110.313 126.430 139.690  0.00  0.00    +0.000 A 
ATOM     13  C   UNL     1     109.637 126.473 139.160  0.00  0.00    +0.000 A 
ENDROOT
BRANCH   7  16
ATOM     14  O   UNL     1     114.528 126.394 136.338  0.00  0.00    +0.000 OA
ATOM     15  O   UNL     1     114.967 124.804 136.273  0.00  0.00    +0.000 OA
ATOM     16  C   UNL     1     112.742 125.439 137.153  0.00  0.00    +0.000 A 
ATOM     17  C   UNL     1     113.265 126.022 136.893  0.00  0.00    +0.000 A 
ATOM     18  C   UNL     1     112.962 124.645 137.121  0.00  0.00    +0.000 A 
ATOM     19  C   UNL     1     114.006 125.811 136.599  0.00  0.00    +0.000 A 
ATOM     20  C   UNL     1     113.703 124.433 136.827  0.00  0.00    +0.000 A 
ATOM     21  C   UNL     1     114.225 125.016 136.567  0.00  0.00    +0.000 A 
ENDBRANCH   7  16
BRANCH   8  22
ATOM     22  O   UNL     1     111.446 125.522 136.136  0.00  0.00    +0.000 OA
ATOM     23  C   UNL     1     110.784 125.377 135.666  0.00  0.00    +0.000 C 
ENDBRANCH   8  22
BRANCH  12  24
ATOM     24  O   UNL     1     110.223 126.600 140.492  0.00  0.00    +0.000 OA
BRANCH  24  25
ATOM     25  S   UNL     1     110.848 126.469 141.015  0.00  0.00    +0.000 S 
ATOM     26  O   UNL     1     111.473 126.338 141.537  0.00  0.00    +0.000 OA
ATOM     27  O   UNL     1     111.111 127.242 140.894  0.00  0.00    +0.000 OA
ATOM     28  O   UNL     1     110.585 125.696 141.136  0.00  0.00    +0.000 OA
ENDBRANCH  24  25
ENDBRANCH  12  24
TORSDOF 4
ENDMDL
MODEL 6
REMARK VINA RESULT:      -8.1      1.597      2.910
REMARK  Name = 44259875
REMARK  4 active torsions:
REMARK  status: ('A' for Active; 'I' for Inactive)
REMARK    1  A    between atoms: S_1  and  O_4
REMARK    2  A    between atoms: O_3  and  C_16
REMARK    3  A    between atoms: O_4  and  C_21
REMARK    4  A    between atoms: C_15  and  C_19
REMARK                            x       y       z     vdW  Elec       q    Type
REMARK                         _______ _______ _______ _____ _____    ______ ____
ROOT
ATOM      1  O   UNL     1     103.709 124.318 147.428  0.00  0.00    +0.000 OA
ATOM      2  O   UNL     1     102.522 123.044 145.124  0.00  0.00    +0.000 OA
ATOM      3  O   UNL     1     101.073 122.839 145.968  0.00  0.00    +0.000 OA
ATOM      4  O   UNL     1     103.884 123.518 145.093  0.00  0.00    +0.000 OA
ATOM      5  C   UNL     1     103.121 123.688 146.289  0.00  0.00    +0.000 A 
ATOM      6  C   UNL     1     103.063 123.955 147.068  0.00  0.00    +0.000 A 
ATOM      7  C   UNL     1     104.414 124.415 147.011  0.00  0.00    +0.000 A 
ATOM      8  C   UNL     1     104.473 124.148 146.233  0.00  0.00    +0.000 A 
ATOM      9  C   UNL     1     103.826 123.784 145.871  0.00  0.00    +0.000 A 
ATOM     10  C   UNL     1     102.454 123.307 145.902  0.00  0.00    +0.000 A 
ATOM     11  C   UNL     1     102.334 123.860 147.513  0.00  0.00    +0.000 A 
ATOM     12  C   UNL     1     101.657 123.482 147.143  0.00  0.00    +0.000 A 
ATOM     13  C   UNL     1     101.718 123.203 146.331  0.00  0.00    +0.000 A 
ENDROOT
BRANCH   7  16
ATOM     14  O   UNL     1     106.779 124.241 148.606  0.00  0.00    +0.000 OA
ATOM     15  O   UNL     1     107.002 125.870 148.454  0.00  0.00    +0.000 OA
ATOM     16  C   UNL     1     105.061 124.779 147.372  0.00  0.00    +0.000 A 
ATOM     17  C   UNL     1     105.596 124.328 147.809  0.00  0.00    +0.000 A 
ATOM     18  C   UNL     1     105.172 125.592 147.296  0.00  0.00    +0.000 A 
ATOM     19  C   UNL     1     106.243 124.691 148.169  0.00  0.00    +0.000 A 
ATOM     20  C   UNL     1     105.819 125.956 147.656  0.00  0.00    +0.000 A 
ATOM     21  C   UNL     1     106.354 125.506 148.093  0.00  0.00    +0.000 A 
ENDBRANCH   7  16
BRANCH   8  22
ATOM     22  O   UNL     1     105.177 124.245 145.815  0.00  0.00    +0.000 OA
ATOM     23  C   UNL     1     105.176 124.211 144.990  0.00  0.00    +0.000 C 
ENDBRANCH   8  22
BRANCH  12  24
ATOM     24  O   UNL     1     100.953 123.386 147.563  0.00  0.00    +0.000 OA
BRANCH  24  25
ATOM     25  S   UNL     1     100.937 123.523 148.376  0.00  0.00    +0.000 S 
ATOM     26  O   UNL     1     100.920 123.660 149.190  0.00  0.00    +0.000 OA
ATOM     27  O   UNL     1     101.155 122.739 148.513  0.00  0.00    +0.000 OA
ATOM     28  O   UNL     1     100.719 124.307 148.240  0.00  0.00    +0.000 OA
ENDBRANCH  24  25
ENDBRANCH  12  24
TORSDOF 4
ENDMDL
MODEL 7
REMARK VINA RESULT:      -8.1      1.582      2.944
REMARK  Name = 44259875
REMARK  4 active torsions:
REMARK  status: ('A' for Active; 'I' for Inactive)
REMARK    1  A    between atoms: S_1  and  O_4
REMARK    2  A    between atoms: O_3  and  C_16
REMARK    3  A    between atoms: O_4  and  C_21
REMARK    4  A    between atoms: C_15  and  C_19
REMARK                            x       y       z     vdW  Elec       q    Type
REMARK                         _______ _______ _______ _____ _____    ______ ____
ROOT
ATOM      1  O   UNL     1     104.029 125.132 147.286  0.00  0.00    +0.000 OA
ATOM      2  O   UNL     1     105.043 123.542 145.098  0.00  0.00    +0.000 OA
ATOM      3  O   UNL     1     103.561 122.739 144.978  0.00  0.00    +0.000 OA
ATOM      4  O   UNL     1     105.869 124.533 145.742  0.00  0.00    +0.000 OA
ATOM      5  C   UNL     1     104.529 124.345 146.204  0.00  0.00    +0.000 A 
ATOM      6  C   UNL     1     103.916 124.545 146.718  0.00  0.00    +0.000 A 
ATOM      7  C   UNL     1     104.755 125.521 147.339  0.00  0.00    +0.000 A 
ATOM      8  C   UNL     1     105.368 125.321 146.825  0.00  0.00    +0.000 A 
ATOM      9  C   UNL     1     105.255 124.733 146.256  0.00  0.00    +0.000 A 
ATOM     10  C   UNL     1     104.425 123.734 145.607  0.00  0.00    +0.000 A 
ATOM     11  C   UNL     1     103.155 124.147 146.673  0.00  0.00    +0.000 A 
ATOM     12  C   UNL     1     103.032 123.534 146.083  0.00  0.00    +0.000 A 
ATOM     13  C   UNL     1     103.671 123.326 145.547  0.00  0.00    +0.000 A 
ENDROOT
BRANCH   7  16
ATOM     14  O   UNL     1     104.626 128.267 148.116  0.00  0.00    +0.000 OA
ATOM     15  O   UNL     1     105.207 127.872 149.610  0.00  0.00    +0.000 OA
ATOM     16  C   UNL     1     104.868 126.108 147.907  0.00  0.00    +0.000 A 
ATOM     17  C   UNL     1     104.690 126.894 147.728  0.00  0.00    +0.000 A 
ATOM     18  C   UNL     1     105.158 125.911 148.653  0.00  0.00    +0.000 A 
ATOM     19  C   UNL     1     104.803 127.482 148.295  0.00  0.00    +0.000 A 
ATOM     20  C   UNL     1     105.271 126.498 149.221  0.00  0.00    +0.000 A 
ATOM     21  C   UNL     1     105.094 127.284 149.042  0.00  0.00    +0.000 A 
ENDBRANCH   7  16
BRANCH   8  22
ATOM     22  O   UNL     1     106.094 125.709 146.878  0.00  0.00    +0.000 OA
ATOM     23  C   UNL     1     106.774 125.358 146.568  0.00  0.00    +0.000 C 
ENDBRANCH   8  22
BRANCH  12  24
ATOM     24  O   UNL     1     102.305 123.148 146.032  0.00  0.00    +0.000 OA
BRANCH  24  25
ATOM     25  S   UNL     1     101.670 123.400 146.495  0.00  0.00    +0.000 S 
ATOM     26  O   UNL     1     101.036 123.652 146.958  0.00  0.00    +0.000 OA
ATOM     27  O   UNL     1     101.438 123.917 145.896  0.00  0.00    +0.000 OA
ATOM     28  O   UNL     1     101.902 122.883 147.095  0.00  0.00    +0.000 OA
ENDBRANCH  24  25
ENDBRANCH  12  24
TORSDOF 4
ENDMDL
MODEL 8
REMARK VINA RESULT:      -8.0     13.699     14.538
REMARK  Name = 44259875
REMARK  4 active torsions:
REMARK  status: ('A' for Active; 'I' for Inactive)
REMARK    1  A    between atoms: S_1  and  O_4
REMARK    2  A    between atoms: O_3  and  C_16
REMARK    3  A    between atoms: O_4  and  C_21
REMARK    4  A    between atoms: C_15  and  C_19
REMARK                            x       y       z     vdW  Elec       q    Type
REMARK                         _______ _______ _______ _____ _____    ______ ____
ROOT
ATOM      1  O   UNL     1     112.180 126.642 136.263  0.00  0.00    +0.000 OA
ATOM      2  O   UNL     1     111.356 123.883 136.028  0.00  0.00    +0.000 OA
ATOM      3  O   UNL     1     112.741 123.387 136.860  0.00  0.00    +0.000 OA
ATOM      4  O   UNL     1     110.554 124.948 135.479  0.00  0.00    +0.000 OA
ATOM      5  C   UNL     1     111.773 125.277 136.147  0.00  0.00    +0.000 A 
ATOM      6  C   UNL     1     112.315 125.842 136.409  0.00  0.00    +0.000 A 
ATOM      7  C   UNL     1     111.502 126.879 135.856  0.00  0.00    +0.000 A 
ATOM      8  C   UNL     1     110.960 126.314 135.595  0.00  0.00    +0.000 A 
ATOM      9  C   UNL     1     111.096 125.513 135.741  0.00  0.00    +0.000 A 
ATOM     10  C   UNL     1     111.903 124.440 136.293  0.00  0.00    +0.000 A 
ATOM     11  C   UNL     1     113.025 125.608 136.834  0.00  0.00    +0.000 A 
ATOM     12  C   UNL     1     113.172 124.776 136.988  0.00  0.00    +0.000 A 
ATOM     13  C   UNL     1     112.607 124.188 136.716  0.00  0.00    +0.000 A 
ENDROOT
BRANCH   7  16
ATOM     14  O   UNL     1     110.429 129.396 136.680  0.00  0.00    +0.000 OA
ATOM     15  O   UNL     1     110.957 130.081 135.274  0.00  0.00    +0.000 OA
ATOM     16  C   UNL     1     111.366 127.679 135.711  0.00  0.00    +0.000 A 
ATOM     17  C   UNL     1     110.965 128.137 136.268  0.00  0.00    +0.000 A 
ATOM     18  C   UNL     1     111.630 128.021 135.009  0.00  0.00    +0.000 A 
ATOM     19  C   UNL     1     110.829 128.937 136.123  0.00  0.00    +0.000 A 
ATOM     20  C   UNL     1     111.494 128.822 134.863  0.00  0.00    +0.000 A 
ATOM     21  C   UNL     1     111.094 129.280 135.420  0.00  0.00    +0.000 A 
ENDBRANCH   7  16
BRANCH   8  22
ATOM     22  O   UNL     1     110.282 126.550 135.188  0.00  0.00    +0.000 OA
ATOM     23  C   UNL     1     109.836 125.994 134.772  0.00  0.00    +0.000 C 
ENDBRANCH   8  22
BRANCH  12  24
ATOM     24  O   UNL     1     113.851 124.543 137.395  0.00  0.00    +0.000 OA
BRANCH  24  25
ATOM     25  S   UNL     1     114.472 125.076 137.501  0.00  0.00    +0.000 S 
ATOM     26  O   UNL     1     115.093 125.608 137.607  0.00  0.00    +0.000 OA
ATOM     27  O   UNL     1     114.802 124.833 136.785  0.00  0.00    +0.000 OA
ATOM     28  O   UNL     1     114.142 125.318 138.217  0.00  0.00    +0.000 OA
ENDBRANCH  24  25
ENDBRANCH  12  24
TORSDOF 4
ENDMDL
MODEL 9
REMARK VINA RESULT:      -8.0     13.971     14.723
REMARK  Name = 44259875
REMARK  4 active torsions:
REMARK  status: ('A' for Active; 'I' for Inactive)
REMARK    1  A    between atoms: S_1  and  O_4
REMARK    2  A    between atoms: O_3  and  C_16
REMARK    3  A    between atoms: O_4  and  C_21
REMARK    4  A    between atoms: C_15  and  C_19
REMARK                            x       y       z     vdW  Elec       q    Type
REMARK                         _______ _______ _______ _____ _____    ______ ____
ROOT
ATOM      1  O   UNL     1     113.390 127.797 136.957  0.00  0.00    +0.000 OA
ATOM      2  O   UNL     1     111.023 128.952 135.772  0.00  0.00    +0.000 OA
ATOM      3  O   UNL     1     111.539 130.498 136.218  0.00  0.00    +0.000 OA
ATOM      4  O   UNL     1     111.248 127.528 135.747  0.00  0.00    +0.000 OA
ATOM      5  C   UNL     1     112.220 128.369 136.371  0.00  0.00    +0.000 A 
ATOM      6  C   UNL     1     112.934 128.459 136.774  0.00  0.00    +0.000 A 
ATOM      7  C   UNL     1     113.133 127.044 136.736  0.00  0.00    +0.000 A 
ATOM      8  C   UNL     1     112.419 126.955 136.333  0.00  0.00    +0.000 A 
ATOM      9  C   UNL     1     111.962 127.618 136.150  0.00  0.00    +0.000 A 
ATOM     10  C   UNL     1     111.735 129.052 136.175  0.00  0.00    +0.000 A 
ATOM     11  C   UNL     1     113.213 129.237 137.009  0.00  0.00    +0.000 A 
ATOM     12  C   UNL     1     112.742 129.931 136.822  0.00  0.00    +0.000 A 
ATOM     13  C   UNL     1     111.998 129.837 136.401  0.00  0.00    +0.000 A 
ENDROOT
BRANCH   7  16
ATOM     14  O   UNL     1     115.195 125.192 136.040  0.00  0.00    +0.000 OA
ATOM     15  O   UNL     1     114.959 124.394 137.466  0.00  0.00    +0.000 OA
ATOM     16  C   UNL     1     113.589 126.382 136.919  0.00  0.00    +0.000 A 
ATOM     17  C   UNL     1     114.164 126.118 136.389  0.00  0.00    +0.000 A 
ATOM     18  C   UNL     1     113.472 125.984 137.631  0.00  0.00    +0.000 A 
ATOM     19  C   UNL     1     114.620 125.456 136.570  0.00  0.00    +0.000 A 
ATOM     20  C   UNL     1     113.928 125.321 137.814  0.00  0.00    +0.000 A 
ATOM     21  C   UNL     1     114.502 125.057 137.284  0.00  0.00    +0.000 A 
ENDBRANCH   7  16
BRANCH   8  22
ATOM     22  O   UNL     1     112.161 126.203 136.112  0.00  0.00    +0.000 OA
ATOM     23  C   UNL     1     111.384 126.091 135.859  0.00  0.00    +0.000 C 
ENDBRANCH   8  22
BRANCH  12  24
ATOM     24  O   UNL     1     113.002 130.682 137.043  0.00  0.00    +0.000 OA
BRANCH  24  25
ATOM     25  S   UNL     1     113.641 130.761 137.559  0.00  0.00    +0.000 S 
ATOM     26  O   UNL     1     114.280 130.841 138.075  0.00  0.00    +0.000 OA
ATOM     27  O   UNL     1     114.154 130.814 136.915  0.00  0.00    +0.000 OA
ATOM     28  O   UNL     1     113.128 130.708 138.203  0.00  0.00    +0.000 OA
ENDBRANCH  24  25
ENDBRANCH  12  24
TORSDOF 4
ENDMDL
MODEL 10
REMARK VINA RESULT:      -8.0     12.497     13.909
REMARK  Name = 44259875
REMARK  4 active torsions:
REMARK  status: ('A' for Active; 'I' for Inactive)
REMARK    1  A    between atoms: S_1  and  O_4
REMARK    2  A    between atoms: O_3  and  C_16
REMARK    3  A    between atoms: O_4  and  C_21
REMARK    4  A    between atoms: C_15  and  C_19
REMARK                            x       y       z     vdW  Elec       q    Type
REMARK                         _______ _______ _______ _____ _____    ______ ____
ROOT
ATOM      1  O   UNL     1     110.972 127.102 136.405  0.00  0.00    +0.000 OA
ATOM      2  O   UNL     1     112.441 129.538 135.906  0.00  0.00    +0.000 OA
ATOM      3  O   UNL     1     110.993 130.394 135.750  0.00  0.00    +0.000 OA
ATOM      4  O   UNL     1     113.127 128.292 136.146  0.00  0.00    +0.000 OA
ATOM      5  C   UNL     1     111.698 128.307 136.158  0.00  0.00    +0.000 A 
ATOM      6  C   UNL     1     110.979 127.910 136.244  0.00  0.00    +0.000 A 
ATOM      7  C   UNL     1     111.683 126.689 136.479  0.00  0.00    +0.000 A 
ATOM      8  C   UNL     1     112.401 127.086 136.393  0.00  0.00    +0.000 A 
ATOM      9  C   UNL     1     112.408 127.895 136.232  0.00  0.00    +0.000 A 
ATOM     10  C   UNL     1     111.719 129.151 135.990  0.00  0.00    +0.000 A 
ATOM     11  C   UNL     1     110.232 128.329 136.168  0.00  0.00    +0.000 A 
ATOM     12  C   UNL     1     110.234 129.172 136.001  0.00  0.00    +0.000 A 
ATOM     13  C   UNL     1     110.983 129.585 135.911  0.00  0.00    +0.000 A 
ENDROOT
BRANCH   7  16
ATOM     14  O   UNL     1     111.473 124.541 138.352  0.00  0.00    +0.000 OA
ATOM     15  O   UNL     1     111.653 123.452 137.123  0.00  0.00    +0.000 OA
ATOM     16  C   UNL     1     111.675 125.880 136.640  0.00  0.00    +0.000 A 
ATOM     17  C   UNL     1     111.578 125.615 137.415  0.00  0.00    +0.000 A 
ATOM     18  C   UNL     1     111.765 125.337 136.027  0.00  0.00    +0.000 A 
ATOM     19  C   UNL     1     111.571 124.806 137.577  0.00  0.00    +0.000 A 
ATOM     20  C   UNL     1     111.758 124.528 136.187  0.00  0.00    +0.000 A 
ATOM     21  C   UNL     1     111.660 124.262 136.962  0.00  0.00    +0.000 A 
ENDBRANCH   7  16
BRANCH   8  22
ATOM     22  O   UNL     1     113.112 126.674 136.468  0.00  0.00    +0.000 OA
ATOM     23  C   UNL     1     113.827 127.085 136.487  0.00  0.00    +0.000 C 
ENDBRANCH   8  22
BRANCH  12  24
ATOM     24  O   UNL     1     109.522 129.582 135.927  0.00  0.00    +0.000 OA
BRANCH  24  25
ATOM     25  S   UNL     1     108.809 129.168 135.897  0.00  0.00    +0.000 S 
ATOM     26  O   UNL     1     108.096 128.754 135.867  0.00  0.00    +0.000 OA
ATOM     27  O   UNL     1     108.883 129.098 135.078  0.00  0.00    +0.000 OA
ATOM     28  O   UNL     1     108.734 129.237 136.716  0.00  0.00    +0.000 OA
ENDBRANCH  24  25
ENDBRANCH  12  24
TORSDOF 4
ENDMDL
