MODEL 1
REMARK VINA RESULT:     -10.3      0.000      0.000
REMARK  Name = 131750832
REMARK  5 active torsions:
REMARK  status: ('A' for Active; 'I' for Inactive)
REMARK    1  A    between atoms: C_15  and  C_24
REMARK    2  A    between atoms: C_16  and  C_25
REMARK    3  A    between atoms: C_21  and  C_30
REMARK    4  A    between atoms: C_23  and  C_31
REMARK    5  A    between atoms: C_33  and  C_35
REMARK                            x       y       z     vdW  Elec       q    Type
REMARK                         _______ _______ _______ _____ _____    ______ ____
ROOT
ATOM      1  O   UNL     1     113.338 127.344 138.438  0.00  0.00    +0.000 OA
ATOM      2  O   UNL     1     113.028 130.132 139.094  0.00  0.00    +0.000 OA
ATOM      3  O   UNL     1     113.879 128.300 141.116  0.00  0.00    +0.000 OA
ATOM      4  O   UNL     1     114.046 126.897 140.827  0.00  0.00    +0.000 OA
ATOM      5  C   UNL     1     113.186 128.746 138.782  0.00  0.00    +0.000 A 
ATOM      6  C   UNL     1     113.453 129.216 140.104  0.00  0.00    +0.000 A 
ATOM      7  C   UNL     1     113.222 129.365 139.327  0.00  0.00    +0.000 A 
ATOM      8  C   UNL     1     113.380 127.980 139.015  0.00  0.00    +0.000 A 
ATOM      9  C   UNL     1     113.648 128.449 140.338  0.00  0.00    +0.000 A 
ATOM     10  C   UNL     1     113.611 127.831 139.793  0.00  0.00    +0.000 A 
ATOM     11  C   UNL     1     113.816 127.036 140.047  0.00  0.00    +0.000 A 
ATOM     12  C   UNL     1     113.540 126.543 138.674  0.00  0.00    +0.000 A 
ATOM     13  C   UNL     1     113.780 126.388 139.484  0.00  0.00    +0.000 A 
ENDROOT
BRANCH   6  18
ATOM     14  O   UNL     1     112.840 129.996 141.133  0.00  0.00    +0.000 OA
ATOM     15  O   UNL     1     114.822 130.128 140.229  0.00  0.00    +0.000 OA
ATOM     16  O   UNL     1     114.894 131.364 141.320  0.00  0.00    +0.000 OA
ATOM     17  O   UNL     1     113.597 131.687 142.286  0.00  0.00    +0.000 OA
ATOM     18  C   UNL     1     113.489 129.834 140.650  0.00  0.00    +0.000 C 
ATOM     19  C   UNL     1     114.174 130.290 140.712  0.00  0.00    +0.000 C 
ATOM     20  C   UNL     1     114.210 130.908 141.258  0.00  0.00    +0.000 C 
ATOM     21  C   UNL     1     113.561 131.070 141.741  0.00  0.00    +0.000 C 
ATOM     22  C   UNL     1     112.877 130.614 141.679  0.00  0.00    +0.000 C 
BRANCH  22  24
ATOM     23  O   UNL     1     111.463 130.725 141.854  0.00  0.00    +0.000 OA
ATOM     24  C   UNL     1     112.228 130.775 142.161  0.00  0.00    +0.000 C 
ENDBRANCH  22  24
ENDBRANCH   6  18
BRANCH   5  28
ATOM     25  O   UNL     1     113.459 129.011 137.362  0.00  0.00    +0.000 OA
ATOM     26  O   UNL     1     111.497 128.875 138.189  0.00  0.00    +0.000 OA
ATOM     27  O   UNL     1     111.551 129.206 136.426  0.00  0.00    +0.000 OA
ATOM     28  C   UNL     1     112.955 128.895 138.004  0.00  0.00    +0.000 C 
ATOM     29  C   UNL     1     112.178 128.954 137.732  0.00  0.00    +0.000 C 
ATOM     30  C   UNL     1     112.203 129.107 136.921  0.00  0.00    +0.000 C 
ATOM     31  C   UNL     1     112.995 129.142 136.692  0.00  0.00    +0.000 C 
BRANCH  31  33
ATOM     32  O   UNL     1     114.076 129.190 135.759  0.00  0.00    +0.000 OA
ATOM     33  C   UNL     1     113.274 129.283 135.929  0.00  0.00    +0.000 C 
ENDBRANCH  31  33
ENDBRANCH   5  28
BRANCH  12  35
ATOM     34  O   UNL     1     113.392 124.077 136.486  0.00  0.00    +0.000 OA
ATOM     35  C   UNL     1     113.503 125.926 138.127  0.00  0.00    +0.000 A 
ATOM     36  C   UNL     1     112.783 125.554 137.973  0.00  0.00    +0.000 A 
ATOM     37  C   UNL     1     114.185 125.682 137.734  0.00  0.00    +0.000 A 
ATOM     38  C   UNL     1     112.746 124.938 137.426  0.00  0.00    +0.000 A 
ATOM     39  C   UNL     1     114.149 125.065 137.187  0.00  0.00    +0.000 A 
ATOM     40  C   UNL     1     113.429 124.693 137.033  0.00  0.00    +0.000 A 
ENDBRANCH  12  35
TORSDOF 5
ENDMDL
MODEL 2
REMARK VINA RESULT:     -10.1      3.363      5.221
REMARK  Name = 131750832
REMARK  5 active torsions:
REMARK  status: ('A' for Active; 'I' for Inactive)
REMARK    1  A    between atoms: C_15  and  C_24
REMARK    2  A    between atoms: C_16  and  C_25
REMARK    3  A    between atoms: C_21  and  C_30
REMARK    4  A    between atoms: C_23  and  C_31
REMARK    5  A    between atoms: C_33  and  C_35
REMARK                            x       y       z     vdW  Elec       q    Type
REMARK                         _______ _______ _______ _____ _____    ______ ____
ROOT
ATOM      1  O   UNL     1     110.859 126.851 136.884  0.00  0.00    +0.000 OA
ATOM      2  O   UNL     1     109.271 129.052 137.850  0.00  0.00    +0.000 OA
ATOM      3  O   UNL     1     110.164 129.049 135.135  0.00  0.00    +0.000 OA
ATOM      4  O   UNL     1     110.960 127.966 134.613  0.00  0.00    +0.000 OA
ATOM      5  C   UNL     1     110.059 127.966 137.358  0.00  0.00    +0.000 A 
ATOM      6  C   UNL     1     109.717 129.051 136.493  0.00  0.00    +0.000 A 
ATOM      7  C   UNL     1     109.682 128.690 137.234  0.00  0.00    +0.000 A 
ATOM      8  C   UNL     1     110.470 127.604 136.742  0.00  0.00    +0.000 A 
ATOM      9  C   UNL     1     110.129 128.688 135.876  0.00  0.00    +0.000 A 
ATOM     10  C   UNL     1     110.505 127.965 136.001  0.00  0.00    +0.000 A 
ATOM     11  C   UNL     1     110.931 127.597 135.351  0.00  0.00    +0.000 A 
ATOM     12  C   UNL     1     111.289 126.468 136.246  0.00  0.00    +0.000 A 
ATOM     13  C   UNL     1     111.325 126.844 135.475  0.00  0.00    +0.000 A 
ENDROOT
BRANCH   6  18
ATOM     14  O   UNL     1     109.752 130.479 136.490  0.00  0.00    +0.000 OA
ATOM     15  O   UNL     1     108.143 129.088 135.998  0.00  0.00    +0.000 OA
ATOM     16  O   UNL     1     107.391 130.535 135.748  0.00  0.00    +0.000 OA
ATOM     17  O   UNL     1     108.213 131.944 135.992  0.00  0.00    +0.000 OA
ATOM     18  C   UNL     1     109.340 129.774 136.367  0.00  0.00    +0.000 C 
ATOM     19  C   UNL     1     108.554 129.793 136.120  0.00  0.00    +0.000 C 
ATOM     20  C   UNL     1     108.178 130.517 135.995  0.00  0.00    +0.000 C 
ATOM     21  C   UNL     1     108.589 131.221 136.117  0.00  0.00    +0.000 C 
ATOM     22  C   UNL     1     109.375 131.203 136.365  0.00  0.00    +0.000 C 
BRANCH  22  24
ATOM     23  O   UNL     1     110.530 131.893 136.845  0.00  0.00    +0.000 OA
ATOM     24  C   UNL     1     109.787 131.907 136.487  0.00  0.00    +0.000 C 
ENDBRANCH  22  24
ENDBRANCH   6  18
BRANCH   5  28
ATOM     25  O   UNL     1     109.486 127.026 138.331  0.00  0.00    +0.000 OA
ATOM     26  O   UNL     1     111.142 128.306 138.748  0.00  0.00    +0.000 OA
ATOM     27  O   UNL     1     110.640 127.253 140.113  0.00  0.00    +0.000 OA
ATOM     28  C   UNL     1     110.024 127.606 138.099  0.00  0.00    +0.000 C 
ATOM     29  C   UNL     1     110.523 127.762 138.738  0.00  0.00    +0.000 C 
ATOM     30  C   UNL     1     110.292 127.278 139.366  0.00  0.00    +0.000 C 
ATOM     31  C   UNL     1     109.651 126.823 139.114  0.00  0.00    +0.000 C 
BRANCH  31  33
ATOM     32  O   UNL     1     108.515 125.979 139.311  0.00  0.00    +0.000 OA
ATOM     33  C   UNL     1     109.246 126.264 139.565  0.00  0.00    +0.000 C 
ENDBRANCH  31  33
ENDBRANCH   5  28
BRANCH  12  35
ATOM     34  O   UNL     1     112.793 123.575 136.757  0.00  0.00    +0.000 OA
ATOM     35  C   UNL     1     111.665 125.745 136.374  0.00  0.00    +0.000 A 
ATOM     36  C   UNL     1     111.257 125.040 136.248  0.00  0.00    +0.000 A 
ATOM     37  C   UNL     1     112.450 125.727 136.628  0.00  0.00    +0.000 A 
ATOM     38  C   UNL     1     111.633 124.317 136.375  0.00  0.00    +0.000 A 
ATOM     39  C   UNL     1     112.826 125.004 136.755  0.00  0.00    +0.000 A 
ATOM     40  C   UNL     1     112.417 124.299 136.629  0.00  0.00    +0.000 A 
ENDBRANCH  12  35
TORSDOF 5
ENDMDL
MODEL 3
REMARK VINA RESULT:     -10.0      1.112      5.075
REMARK  Name = 131750832
REMARK  5 active torsions:
REMARK  status: ('A' for Active; 'I' for Inactive)
REMARK    1  A    between atoms: C_15  and  C_24
REMARK    2  A    between atoms: C_16  and  C_25
REMARK    3  A    between atoms: C_21  and  C_30
REMARK    4  A    between atoms: C_23  and  C_31
REMARK    5  A    between atoms: C_33  and  C_35
REMARK                            x       y       z     vdW  Elec       q    Type
REMARK                         _______ _______ _______ _____ _____    ______ ____
ROOT
ATOM      1  O   UNL     1     113.383 128.862 139.440  0.00  0.00    +0.000 OA
ATOM      2  O   UNL     1     112.293 127.416 137.199  0.00  0.00    +0.000 OA
ATOM      3  O   UNL     1     113.620 125.981 139.284  0.00  0.00    +0.000 OA
ATOM      4  O   UNL     1     114.179 126.668 140.423  0.00  0.00    +0.000 OA
ATOM      5  C   UNL     1     112.839 128.121 138.316  0.00  0.00    +0.000 A 
ATOM      6  C   UNL     1     112.956 126.699 138.241  0.00  0.00    +0.000 A 
ATOM      7  C   UNL     1     112.696 127.412 137.919  0.00  0.00    +0.000 A 
ATOM      8  C   UNL     1     113.241 128.117 139.036  0.00  0.00    +0.000 A 
ATOM      9  C   UNL     1     113.360 126.694 138.962  0.00  0.00    +0.000 A 
ATOM     10  C   UNL     1     113.502 127.404 139.358  0.00  0.00    +0.000 A 
ATOM     11  C   UNL     1     113.923 127.386 140.108  0.00  0.00    +0.000 A 
ATOM     12  C   UNL     1     113.802 128.864 140.190  0.00  0.00    +0.000 A 
ATOM     13  C   UNL     1     114.074 128.121 140.526  0.00  0.00    +0.000 A 
ENDROOT
BRANCH   6  18
ATOM     14  O   UNL     1     113.374 125.695 137.314  0.00  0.00    +0.000 OA
ATOM     15  O   UNL     1     111.555 125.870 138.507  0.00  0.00    +0.000 OA
ATOM     16  O   UNL     1     111.272 124.451 137.713  0.00  0.00    +0.000 OA
ATOM     17  O   UNL     1     112.390 123.863 136.653  0.00  0.00    +0.000 OA
ATOM     18  C   UNL     1     112.814 125.990 137.844  0.00  0.00    +0.000 C 
ATOM     19  C   UNL     1     112.114 125.575 137.978  0.00  0.00    +0.000 C 
ATOM     20  C   UNL     1     111.973 124.866 137.580  0.00  0.00    +0.000 C 
ATOM     21  C   UNL     1     112.532 124.571 137.050  0.00  0.00    +0.000 C 
ATOM     22  C   UNL     1     113.232 124.986 136.917  0.00  0.00    +0.000 C 
BRANCH  22  24
ATOM     23  O   UNL     1     114.507 125.090 136.281  0.00  0.00    +0.000 OA
ATOM     24  C   UNL     1     113.792 124.692 136.387  0.00  0.00    +0.000 C 
ENDBRANCH  22  24
ENDBRANCH   6  18
BRANCH   5  28
ATOM     25  O   UNL     1     111.879 129.227 138.187  0.00  0.00    +0.000 OA
ATOM     26  O   UNL     1     113.693 129.090 137.070  0.00  0.00    +0.000 OA
ATOM     27  O   UNL     1     112.701 130.544 136.721  0.00  0.00    +0.000 OA
ATOM     28  C   UNL     1     112.578 128.834 137.994  0.00  0.00    +0.000 C 
ATOM     29  C   UNL     1     112.971 129.279 137.421  0.00  0.00    +0.000 C 
ATOM     30  C   UNL     1     112.515 129.948 137.260  0.00  0.00    +0.000 C 
ATOM     31  C   UNL     1     111.840 129.916 137.734  0.00  0.00    +0.000 C 
BRANCH  31  33
ATOM     32  O   UNL     1     110.659 130.441 138.344  0.00  0.00    +0.000 OA
ATOM     33  C   UNL     1     111.232 130.473 137.751  0.00  0.00    +0.000 C 
ENDBRANCH  31  33
ENDBRANCH   5  28
BRANCH  12  35
ATOM     34  O   UNL     1     114.367 131.706 141.770  0.00  0.00    +0.000 OA
ATOM     35  C   UNL     1     113.943 129.574 140.585  0.00  0.00    +0.000 A 
ATOM     36  C   UNL     1     113.397 129.857 141.135  0.00  0.00    +0.000 A 
ATOM     37  C   UNL     1     114.631 130.002 140.431  0.00  0.00    +0.000 A 
ATOM     38  C   UNL     1     113.538 130.567 141.530  0.00  0.00    +0.000 A 
ATOM     39  C   UNL     1     114.773 130.713 140.826  0.00  0.00    +0.000 A 
ATOM     40  C   UNL     1     114.226 130.995 141.375  0.00  0.00    +0.000 A 
ENDBRANCH  12  35
TORSDOF 5
ENDMDL
MODEL 4
REMARK VINA RESULT:      -9.9      2.945      6.082
REMARK  Name = 131750832
REMARK  5 active torsions:
REMARK  status: ('A' for Active; 'I' for Inactive)
REMARK    1  A    between atoms: C_15  and  C_24
REMARK    2  A    between atoms: C_16  and  C_25
REMARK    3  A    between atoms: C_21  and  C_30
REMARK    4  A    between atoms: C_23  and  C_31
REMARK    5  A    between atoms: C_33  and  C_35
REMARK                            x       y       z     vdW  Elec       q    Type
REMARK                         _______ _______ _______ _____ _____    ______ ____
ROOT
ATOM      1  O   UNL     1     109.996 129.530 136.213  0.00  0.00    +0.000 OA
ATOM      2  O   UNL     1     111.924 127.722 137.360  0.00  0.00    +0.000 OA
ATOM      3  O   UNL     1     109.341 126.742 136.627  0.00  0.00    +0.000 OA
ATOM      4  O   UNL     1     108.348 127.615 136.051  0.00  0.00    +0.000 OA
ATOM      5  C   UNL     1     110.958 128.608 136.790  0.00  0.00    +0.000 A 
ATOM      6  C   UNL     1     110.633 127.232 136.994  0.00  0.00    +0.000 A 
ATOM      7  C   UNL     1     111.172 127.854 137.048  0.00  0.00    +0.000 A 
ATOM      8  C   UNL     1     110.207 128.740 136.478  0.00  0.00    +0.000 A 
ATOM      9  C   UNL     1     109.880 127.364 136.682  0.00  0.00    +0.000 A 
ATOM     10  C   UNL     1     109.668 128.118 136.424  0.00  0.00    +0.000 A 
ATOM     11  C   UNL     1     108.881 128.243 136.101  0.00  0.00    +0.000 A 
ATOM     12  C   UNL     1     109.215 129.674 135.887  0.00  0.00    +0.000 A 
ATOM     13  C   UNL     1     108.653 129.026 135.831  0.00  0.00    +0.000 A 
ENDROOT
BRANCH   6  18
ATOM     14  O   UNL     1     111.179 125.940 136.721  0.00  0.00    +0.000 OA
ATOM     15  O   UNL     1     110.392 126.798 138.567  0.00  0.00    +0.000 OA
ATOM     16  O   UNL     1     110.817 125.289 139.081  0.00  0.00    +0.000 OA
ATOM     17  O   UNL     1     111.483 124.214 138.022  0.00  0.00    +0.000 OA
ATOM     18  C   UNL     1     110.845 126.477 137.251  0.00  0.00    +0.000 C 
ATOM     19  C   UNL     1     110.725 126.260 138.038  0.00  0.00    +0.000 C 
ATOM     20  C   UNL     1     110.938 125.506 138.295  0.00  0.00    +0.000 C 
ATOM     21  C   UNL     1     111.271 124.968 137.765  0.00  0.00    +0.000 C 
ATOM     22  C   UNL     1     111.391 125.185 136.979  0.00  0.00    +0.000 C 
BRANCH  22  24
ATOM     23  O   UNL     1     111.390 124.546 135.700  0.00  0.00    +0.000 OA
ATOM     24  C   UNL     1     111.724 124.648 136.449  0.00  0.00    +0.000 C 
ENDBRANCH  22  24
ENDBRANCH   6  18
BRANCH   5  28
ATOM     25  O   UNL     1     111.535 129.788 137.450  0.00  0.00    +0.000 OA
ATOM     26  O   UNL     1     112.256 128.985 135.609  0.00  0.00    +0.000 OA
ATOM     27  O   UNL     1     113.140 130.432 136.198  0.00  0.00    +0.000 OA
ATOM     28  C   UNL     1     111.498 129.230 136.844  0.00  0.00    +0.000 C 
ATOM     29  C   UNL     1     112.095 129.403 136.301  0.00  0.00    +0.000 C 
ATOM     30  C   UNL     1     112.501 130.068 136.572  0.00  0.00    +0.000 C 
ATOM     31  C   UNL     1     112.155 130.306 137.282  0.00  0.00    +0.000 C 
BRANCH  31  33
ATOM     32  O   UNL     1     111.877 131.252 138.316  0.00  0.00    +0.000 OA
ATOM     33  C   UNL     1     112.388 130.949 137.743  0.00  0.00    +0.000 C 
ENDBRANCH  31  33
ENDBRANCH   5  28
BRANCH  12  35
ATOM     34  O   UNL     1     108.373 132.695 134.859  0.00  0.00    +0.000 OA
ATOM     35  C   UNL     1     109.004 130.429 135.630  0.00  0.00    +0.000 A 
ATOM     36  C   UNL     1     109.203 130.677 134.869  0.00  0.00    +0.000 A 
ATOM     37  C   UNL     1     108.594 130.937 136.134  0.00  0.00    +0.000 A 
ATOM     38  C   UNL     1     108.993 131.432 134.612  0.00  0.00    +0.000 A 
ATOM     39  C   UNL     1     108.383 131.693 135.878  0.00  0.00    +0.000 A 
ATOM     40  C   UNL     1     108.583 131.940 135.116  0.00  0.00    +0.000 A 
ENDBRANCH  12  35
TORSDOF 5
ENDMDL
MODEL 5
REMARK VINA RESULT:      -9.9      8.331     10.459
REMARK  Name = 131750832
REMARK  5 active torsions:
REMARK  status: ('A' for Active; 'I' for Inactive)
REMARK    1  A    between atoms: C_15  and  C_24
REMARK    2  A    between atoms: C_16  and  C_25
REMARK    3  A    between atoms: C_21  and  C_30
REMARK    4  A    between atoms: C_23  and  C_31
REMARK    5  A    between atoms: C_33  and  C_35
REMARK                            x       y       z     vdW  Elec       q    Type
REMARK                         _______ _______ _______ _____ _____    ______ ____
ROOT
ATOM      1  O   UNL     1     106.196 127.345 144.724  0.00  0.00    +0.000 OA
ATOM      2  O   UNL     1     106.754 127.119 147.542  0.00  0.00    +0.000 OA
ATOM      3  O   UNL     1     106.519 124.749 145.962  0.00  0.00    +0.000 OA
ATOM      4  O   UNL     1     106.241 124.820 144.549  0.00  0.00    +0.000 OA
ATOM      5  C   UNL     1     106.478 127.217 146.143  0.00  0.00    +0.000 A 
ATOM      6  C   UNL     1     106.637 125.935 146.752  0.00  0.00    +0.000 A 
ATOM      7  C   UNL     1     106.623 126.757 146.813  0.00  0.00    +0.000 A 
ATOM      8  C   UNL     1     106.346 126.855 145.414  0.00  0.00    +0.000 A 
ATOM      9  C   UNL     1     106.505 125.572 146.022  0.00  0.00    +0.000 A 
ATOM     10  C   UNL     1     106.360 126.032 145.354  0.00  0.00    +0.000 A 
ATOM     11  C   UNL     1     106.225 125.643 144.599  0.00  0.00    +0.000 A 
ATOM     12  C   UNL     1     106.059 126.974 143.962  0.00  0.00    +0.000 A 
ATOM     13  C   UNL     1     106.074 126.117 143.899  0.00  0.00    +0.000 A 
ENDROOT
BRANCH   6  18
ATOM     14  O   UNL     1     106.150 125.200 147.878  0.00  0.00    +0.000 OA
ATOM     15  O   UNL     1     108.186 125.559 147.177  0.00  0.00    +0.000 OA
ATOM     16  O   UNL     1     108.475 124.638 148.515  0.00  0.00    +0.000 OA
ATOM     17  O   UNL     1     107.214 124.092 149.427  0.00  0.00    +0.000 OA
ATOM     18  C   UNL     1     106.781 125.474 147.421  0.00  0.00    +0.000 C 
ATOM     19  C   UNL     1     107.556 125.286 147.633  0.00  0.00    +0.000 C 
ATOM     20  C   UNL     1     107.700 124.825 148.303  0.00  0.00    +0.000 C 
ATOM     21  C   UNL     1     107.070 124.552 148.759  0.00  0.00    +0.000 C 
ATOM     22  C   UNL     1     106.295 124.740 148.546  0.00  0.00    +0.000 C 
BRANCH  22  24
ATOM     23  O   UNL     1     104.908 124.779 148.889  0.00  0.00    +0.000 OA
ATOM     24  C   UNL     1     105.664 124.467 149.003  0.00  0.00    +0.000 C 
ENDBRANCH  22  24
ENDBRANCH   6  18
BRANCH   5  28
ATOM     25  O   UNL     1     107.088 128.549 146.027  0.00  0.00    +0.000 OA
ATOM     26  O   UNL     1     105.084 128.212 146.681  0.00  0.00    +0.000 OA
ATOM     27  O   UNL     1     105.581 129.936 146.630  0.00  0.00    +0.000 OA
ATOM     28  C   UNL     1     106.464 128.040 146.203  0.00  0.00    +0.000 C 
ATOM     29  C   UNL     1     105.823 128.497 146.451  0.00  0.00    +0.000 C 
ATOM     30  C   UNL     1     106.051 129.290 146.427  0.00  0.00    +0.000 C 
ATOM     31  C   UNL     1     106.833 129.322 146.165  0.00  0.00    +0.000 C 
BRANCH  31  33
ATOM     32  O   UNL     1     107.999 129.971 145.654  0.00  0.00    +0.000 OA
ATOM     33  C   UNL     1     107.281 130.006 146.060  0.00  0.00    +0.000 C 
ENDBRANCH  31  33
ENDBRANCH   5  28
BRANCH  12  35
ATOM     34  O   UNL     1     105.481 128.825 141.291  0.00  0.00    +0.000 OA
ATOM     35  C   UNL     1     105.914 127.436 143.294  0.00  0.00    +0.000 A 
ATOM     36  C   UNL     1     105.146 127.680 143.119  0.00  0.00    +0.000 A 
ATOM     37  C   UNL     1     106.538 127.655 142.801  0.00  0.00    +0.000 A 
ATOM     38  C   UNL     1     105.002 128.143 142.452  0.00  0.00    +0.000 A 
ATOM     39  C   UNL     1     106.394 128.118 142.133  0.00  0.00    +0.000 A 
ATOM     40  C   UNL     1     105.626 128.362 141.959  0.00  0.00    +0.000 A 
ENDBRANCH  12  35
TORSDOF 5
ENDMDL
MODEL 6
REMARK VINA RESULT:      -9.6      2.764      4.049
REMARK  Name = 131750832
REMARK  5 active torsions:
REMARK  status: ('A' for Active; 'I' for Inactive)
REMARK    1  A    between atoms: C_15  and  C_24
REMARK    2  A    between atoms: C_16  and  C_25
REMARK    3  A    between atoms: C_21  and  C_30
REMARK    4  A    between atoms: C_23  and  C_31
REMARK    5  A    between atoms: C_33  and  C_35
REMARK                            x       y       z     vdW  Elec       q    Type
REMARK                         _______ _______ _______ _____ _____    ______ ____
ROOT
ATOM      1  O   UNL     1     112.550 127.071 137.348  0.00  0.00    +0.000 OA
ATOM      2  O   UNL     1     110.473 128.982 137.928  0.00  0.00    +0.000 OA
ATOM      3  O   UNL     1     112.554 129.682 136.098  0.00  0.00    +0.000 OA
ATOM      4  O   UNL     1     113.611 128.754 135.781  0.00  0.00    +0.000 OA
ATOM      5  C   UNL     1     111.509 128.043 137.631  0.00  0.00    +0.000 A 
ATOM      6  C   UNL     1     111.513 129.332 137.013  0.00  0.00    +0.000 A 
ATOM      7  C   UNL     1     111.164 128.786 137.524  0.00  0.00    +0.000 A 
ATOM      8  C   UNL     1     112.201 127.847 137.228  0.00  0.00    +0.000 A 
ATOM      9  C   UNL     1     112.205 129.136 136.609  0.00  0.00    +0.000 A 
ATOM     10  C   UNL     1     112.549 128.394 136.717  0.00  0.00    +0.000 A 
ATOM     11  C   UNL     1     113.270 128.201 136.290  0.00  0.00    +0.000 A 
ATOM     12  C   UNL     1     113.270 126.861 136.930  0.00  0.00    +0.000 A 
ATOM     13  C   UNL     1     113.633 127.430 136.398  0.00  0.00    +0.000 A 
ENDROOT
BRANCH   6  18
ATOM     14  O   UNL     1     110.607 130.186 136.311  0.00  0.00    +0.000 OA
ATOM     15  O   UNL     1     111.947 130.592 137.986  0.00  0.00    +0.000 OA
ATOM     16  O   UNL     1     111.259 132.076 137.770  0.00  0.00    +0.000 OA
ATOM     17  O   UNL     1     110.138 132.300 136.582  0.00  0.00    +0.000 OA
ATOM     18  C   UNL     1     111.169 130.074 136.906  0.00  0.00    +0.000 C 
ATOM     19  C   UNL     1     111.386 130.704 137.392  0.00  0.00    +0.000 C 
ATOM     20  C   UNL     1     111.042 131.446 137.284  0.00  0.00    +0.000 C 
ATOM     21  C   UNL     1     110.481 131.558 136.690  0.00  0.00    +0.000 C 
ATOM     22  C   UNL     1     110.264 130.928 136.204  0.00  0.00    +0.000 C 
BRANCH  22  24
ATOM     23  O   UNL     1     109.615 130.474 135.014  0.00  0.00    +0.000 OA
ATOM     24  C   UNL     1     109.703 131.039 135.609  0.00  0.00    +0.000 C 
ENDBRANCH  22  24
ENDBRANCH   6  18
BRANCH   5  28
ATOM     25  O   UNL     1     111.382 127.355 138.924  0.00  0.00    +0.000 OA
ATOM     26  O   UNL     1     110.137 126.955 137.237  0.00  0.00    +0.000 OA
ATOM     27  O   UNL     1     109.770 125.974 138.694  0.00  0.00    +0.000 OA
ATOM     28  C   UNL     1     111.161 127.497 138.142  0.00  0.00    +0.000 C 
ATOM     29  C   UNL     1     110.530 126.997 137.960  0.00  0.00    +0.000 C 
ATOM     30  C   UNL     1     110.361 126.546 138.631  0.00  0.00    +0.000 C 
ATOM     31  C   UNL     1     110.888 126.767 139.226  0.00  0.00    +0.000 C 
BRANCH  31  33
ATOM     32  O   UNL     1     111.637 126.395 140.384  0.00  0.00    +0.000 OA
ATOM     33  C   UNL     1     110.915 126.456 139.989  0.00  0.00    +0.000 C 
ENDBRANCH  31  33
ENDBRANCH   5  28
BRANCH  12  35
ATOM     34  O   UNL     1     114.638 123.890 137.366  0.00  0.00    +0.000 OA
ATOM     35  C   UNL     1     113.612 126.118 137.039  0.00  0.00    +0.000 A 
ATOM     36  C   UNL     1     113.402 125.491 136.547  0.00  0.00    +0.000 A 
ATOM     37  C   UNL     1     114.164 126.003 137.641  0.00  0.00    +0.000 A 
ATOM     38  C   UNL     1     113.744 124.748 136.656  0.00  0.00    +0.000 A 
ATOM     39  C   UNL     1     114.507 125.260 137.750  0.00  0.00    +0.000 A 
ATOM     40  C   UNL     1     114.296 124.632 137.257  0.00  0.00    +0.000 A 
ENDBRANCH  12  35
TORSDOF 5
ENDMDL
