MODEL 1
REMARK VINA RESULT:      -8.3      0.000      0.000
REMARK  Name = 5386959
REMARK  5 active torsions:
REMARK  status: ('A' for Active; 'I' for Inactive)
REMARK    1  A    between atoms: O_2  and  C_14
REMARK    2  A    between atoms: O_3  and  C_15
REMARK    3  A    between atoms: O_4  and  C_18
REMARK    4  A    between atoms: O_8  and  C_22
REMARK    5  A    between atoms: C_12  and  C_17
REMARK                            x       y       z     vdW  Elec       q    Type
REMARK                         _______ _______ _______ _____ _____    ______ ____
ROOT
ATOM      1  O   UNL     1     104.711 124.268 146.813  0.00  0.00    +0.000 OA
ATOM      2  O   UNL     1     101.988 125.035 147.427  0.00  0.00    +0.000 OA
ATOM      3  O   UNL     1     102.489 122.750 145.784  0.00  0.00    +0.000 OA
ATOM      4  O   UNL     1     103.074 125.821 147.962  0.00  0.00    +0.000 OA
ATOM      5  C   UNL     1     103.332 124.654 147.122  0.00  0.00    +0.000 A 
ATOM      6  C   UNL     1     103.863 124.147 146.747  0.00  0.00    +0.000 A 
ATOM      7  C   UNL     1     105.010 124.928 147.277  0.00  0.00    +0.000 A 
ATOM      8  C   UNL     1     103.612 125.318 147.590  0.00  0.00    +0.000 A 
ATOM      9  C   UNL     1     104.457 125.456 147.667  0.00  0.00    +0.000 A 
ATOM     10  C   UNL     1     103.582 123.512 146.301  0.00  0.00    +0.000 A 
ATOM     11  C   UNL     1     102.519 124.527 147.052  0.00  0.00    +0.000 A 
ATOM     12  C   UNL     1     102.239 123.892 146.606  0.00  0.00    +0.000 A 
ATOM     13  C   UNL     1     102.770 123.385 146.230  0.00  0.00    +0.000 A 
ENDROOT
BRANCH   7  15
ATOM     14  O   UNL     1     108.260 125.426 147.554  0.00  0.00    +0.000 OA
ATOM     15  C   UNL     1     105.823 125.053 147.346  0.00  0.00    +0.000 A 
ATOM     16  C   UNL     1     106.250 124.669 147.938  0.00  0.00    +0.000 A 
ATOM     17  C   UNL     1     106.208 125.561 146.822  0.00  0.00    +0.000 A 
ATOM     18  C   UNL     1     107.062 124.794 148.008  0.00  0.00    +0.000 A 
ATOM     19  C   UNL     1     107.021 125.685 146.892  0.00  0.00    +0.000 A 
ATOM     20  C   UNL     1     107.448 125.302 147.485  0.00  0.00    +0.000 A 
BRANCH  18  21
ATOM     21  O   UNL     1     107.489 124.410 148.600  0.00  0.00    +0.000 OA
ATOM     22  C   UNL     1     107.151 124.295 149.345  0.00  0.00    +0.000 C 
ENDBRANCH  18  21
ENDBRANCH   7  15
BRANCH   9  23
ATOM     23  O   UNL     1     104.734 126.092 148.114  0.00  0.00    +0.000 OA
ATOM     24  C   UNL     1     104.209 126.539 148.568  0.00  0.00    +0.000 C 
ENDBRANCH   9  23
BRANCH  10  25
ATOM     25  O   UNL     1     104.113 123.005 145.926  0.00  0.00    +0.000 OA
ATOM     26  C   UNL     1     104.067 122.888 145.111  0.00  0.00    +0.000 C 
ENDBRANCH  10  25
BRANCH  12  27
ATOM     27  O   UNL     1     101.426 123.765 146.535  0.00  0.00    +0.000 OA
ATOM     28  C   UNL     1     101.040 123.264 147.064  0.00  0.00    +0.000 C 
ENDBRANCH  12  27
TORSDOF 5
ENDMDL
MODEL 2
REMARK VINA RESULT:      -8.2      1.131      4.651
REMARK  Name = 5386959
REMARK  5 active torsions:
REMARK  status: ('A' for Active; 'I' for Inactive)
REMARK    1  A    between atoms: O_2  and  C_14
REMARK    2  A    between atoms: O_3  and  C_15
REMARK    3  A    between atoms: O_4  and  C_18
REMARK    4  A    between atoms: O_8  and  C_22
REMARK    5  A    between atoms: C_12  and  C_17
REMARK                            x       y       z     vdW  Elec       q    Type
REMARK                         _______ _______ _______ _____ _____    ______ ____
ROOT
ATOM      1  O   UNL     1     104.838 124.223 147.251  0.00  0.00    +0.000 OA
ATOM      2  O   UNL     1     107.252 125.449 146.228  0.00  0.00    +0.000 OA
ATOM      3  O   UNL     1     106.959 125.006 149.036  0.00  0.00    +0.000 OA
ATOM      4  O   UNL     1     106.212 125.071 145.301  0.00  0.00    +0.000 OA
ATOM      5  C   UNL     1     106.060 124.844 146.735  0.00  0.00    +0.000 A 
ATOM      6  C   UNL     1     105.615 124.568 147.372  0.00  0.00    +0.000 A 
ATOM      7  C   UNL     1     104.520 124.164 146.454  0.00  0.00    +0.000 A 
ATOM      8  C   UNL     1     105.760 124.793 145.932  0.00  0.00    +0.000 A 
ATOM      9  C   UNL     1     104.984 124.451 145.790  0.00  0.00    +0.000 A 
ATOM     10  C   UNL     1     105.915 124.622 148.139  0.00  0.00    +0.000 A 
ATOM     11  C   UNL     1     106.806 125.173 146.865  0.00  0.00    +0.000 A 
ATOM     12  C   UNL     1     107.105 125.227 147.632  0.00  0.00    +0.000 A 
ATOM     13  C   UNL     1     106.659 124.952 148.269  0.00  0.00    +0.000 A 
ENDROOT
BRANCH   7  15
ATOM     14  O   UNL     1     101.538 122.845 145.947  0.00  0.00    +0.000 OA
ATOM     15  C   UNL     1     103.775 123.834 146.327  0.00  0.00    +0.000 A 
ATOM     16  C   UNL     1     103.096 124.264 146.514  0.00  0.00    +0.000 A 
ATOM     17  C   UNL     1     103.708 123.074 146.013  0.00  0.00    +0.000 A 
ATOM     18  C   UNL     1     102.351 123.934 146.388  0.00  0.00    +0.000 A 
ATOM     19  C   UNL     1     102.962 122.744 145.886  0.00  0.00    +0.000 A 
ATOM     20  C   UNL     1     102.283 123.174 146.074  0.00  0.00    +0.000 A 
BRANCH  18  21
ATOM     21  O   UNL     1     101.672 124.364 146.575  0.00  0.00    +0.000 OA
ATOM     22  C   UNL     1     101.596 124.714 147.319  0.00  0.00    +0.000 C 
ENDBRANCH  18  21
ENDBRANCH   7  15
BRANCH   9  23
ATOM     23  O   UNL     1     104.688 124.398 145.022  0.00  0.00    +0.000 OA
ATOM     24  C   UNL     1     105.199 124.456 144.377  0.00  0.00    +0.000 C 
ENDBRANCH   9  23
BRANCH  10  25
ATOM     25  O   UNL     1     105.469 124.347 148.776  0.00  0.00    +0.000 OA
ATOM     26  C   UNL     1     105.249 124.863 149.381  0.00  0.00    +0.000 C 
ENDBRANCH  10  25
BRANCH  12  27
ATOM     27  O   UNL     1     107.851 125.557 147.761  0.00  0.00    +0.000 OA
ATOM     28  C   UNL     1     108.510 125.067 147.836  0.00  0.00    +0.000 C 
ENDBRANCH  12  27
TORSDOF 5
ENDMDL
MODEL 3
REMARK VINA RESULT:      -8.0      1.099      2.186
REMARK  Name = 5386959
REMARK  5 active torsions:
REMARK  status: ('A' for Active; 'I' for Inactive)
REMARK    1  A    between atoms: O_2  and  C_14
REMARK    2  A    between atoms: O_3  and  C_15
REMARK    3  A    between atoms: O_4  and  C_18
REMARK    4  A    between atoms: O_8  and  C_22
REMARK    5  A    between atoms: C_12  and  C_17
REMARK                            x       y       z     vdW  Elec       q    Type
REMARK                         _______ _______ _______ _____ _____    ______ ____
ROOT
ATOM      1  O   UNL     1     104.638 124.905 146.962  0.00  0.00    +0.000 OA
ATOM      2  O   UNL     1     103.243 123.033 145.251  0.00  0.00    +0.000 OA
ATOM      3  O   UNL     1     102.097 123.803 147.753  0.00  0.00    +0.000 OA
ATOM      4  O   UNL     1     104.514 123.563 144.819  0.00  0.00    +0.000 OA
ATOM      5  C   UNL     1     103.930 123.958 146.098  0.00  0.00    +0.000 A 
ATOM      6  C   UNL     1     103.968 124.394 146.797  0.00  0.00    +0.000 A 
ATOM      7  C   UNL     1     105.278 124.963 146.391  0.00  0.00    +0.000 A 
ATOM      8  C   UNL     1     104.560 124.003 145.515  0.00  0.00    +0.000 A 
ATOM      9  C   UNL     1     105.239 124.509 145.663  0.00  0.00    +0.000 A 
ATOM     10  C   UNL     1     103.357 124.342 147.349  0.00  0.00    +0.000 A 
ATOM     11  C   UNL     1     103.281 123.469 145.950  0.00  0.00    +0.000 A 
ATOM     12  C   UNL     1     102.670 123.418 146.503  0.00  0.00    +0.000 A 
ATOM     13  C   UNL     1     102.708 123.855 147.202  0.00  0.00    +0.000 A 
ENDROOT
BRANCH   7  15
ATOM     14  O   UNL     1     107.869 126.917 146.990  0.00  0.00    +0.000 OA
ATOM     15  C   UNL     1     105.926 125.452 146.540  0.00  0.00    +0.000 A 
ATOM     16  C   UNL     1     106.597 125.146 146.909  0.00  0.00    +0.000 A 
ATOM     17  C   UNL     1     105.902 126.247 146.321  0.00  0.00    +0.000 A 
ATOM     18  C   UNL     1     107.244 125.633 147.059  0.00  0.00    +0.000 A 
ATOM     19  C   UNL     1     106.551 126.735 146.471  0.00  0.00    +0.000 A 
ATOM     20  C   UNL     1     107.222 126.429 146.840  0.00  0.00    +0.000 A 
BRANCH  18  21
ATOM     21  O   UNL     1     107.916 125.327 147.428  0.00  0.00    +0.000 OA
ATOM     22  C   UNL     1     107.847 124.933 148.150  0.00  0.00    +0.000 C 
ENDBRANCH  18  21
ENDBRANCH   7  15
BRANCH   9  23
ATOM     23  O   UNL     1     105.848 124.558 145.108  0.00  0.00    +0.000 OA
ATOM     24  C   UNL     1     105.682 124.480 144.304  0.00  0.00    +0.000 C 
ENDBRANCH   9  23
BRANCH  10  25
ATOM     25  O   UNL     1     103.394 124.779 148.048  0.00  0.00    +0.000 OA
ATOM     26  C   UNL     1     103.384 124.393 148.777  0.00  0.00    +0.000 C 
ENDBRANCH  10  25
BRANCH  12  27
ATOM     27  O   UNL     1     102.021 122.930 146.355  0.00  0.00    +0.000 OA
ATOM     28  C   UNL     1     101.347 123.240 145.995  0.00  0.00    +0.000 C 
ENDBRANCH  12  27
TORSDOF 5
ENDMDL
MODEL 4
REMARK VINA RESULT:      -7.8      2.269      3.490
REMARK  Name = 5386959
REMARK  5 active torsions:
REMARK  status: ('A' for Active; 'I' for Inactive)
REMARK    1  A    between atoms: O_2  and  C_14
REMARK    2  A    between atoms: O_3  and  C_15
REMARK    3  A    between atoms: O_4  and  C_18
REMARK    4  A    between atoms: O_8  and  C_22
REMARK    5  A    between atoms: C_12  and  C_17
REMARK                            x       y       z     vdW  Elec       q    Type
REMARK                         _______ _______ _______ _____ _____    ______ ____
ROOT
ATOM      1  O   UNL     1     106.267 124.916 145.981  0.00  0.00    +0.000 OA
ATOM      2  O   UNL     1     106.298 126.871 143.847  0.00  0.00    +0.000 OA
ATOM      3  O   UNL     1     105.150 124.292 143.400  0.00  0.00    +0.000 OA
ATOM      4  O   UNL     1     106.868 127.222 145.126  0.00  0.00    +0.000 OA
ATOM      5  C   UNL     1     106.282 125.904 144.900  0.00  0.00    +0.000 A 
ATOM      6  C   UNL     1     106.085 125.152 145.176  0.00  0.00    +0.000 A 
ATOM      7  C   UNL     1     106.660 125.472 146.507  0.00  0.00    +0.000 A 
ATOM      8  C   UNL     1     106.674 126.472 145.410  0.00  0.00    +0.000 A 
ATOM      9  C   UNL     1     106.865 126.255 146.220  0.00  0.00    +0.000 A 
ATOM     10  C   UNL     1     105.707 124.615 144.675  0.00  0.00    +0.000 A 
ATOM     11  C   UNL     1     106.101 126.119 144.123  0.00  0.00    +0.000 A 
ATOM     12  C   UNL     1     105.724 125.581 143.624  0.00  0.00    +0.000 A 
ATOM     13  C   UNL     1     105.527 124.829 143.900  0.00  0.00    +0.000 A 
ENDROOT
BRANCH   7  15
ATOM     14  O   UNL     1     107.374 124.602 149.609  0.00  0.00    +0.000 OA
ATOM     15  C   UNL     1     106.839 125.254 147.283  0.00  0.00    +0.000 A 
ATOM     16  C   UNL     1     106.247 125.255 147.858  0.00  0.00    +0.000 A 
ATOM     17  C   UNL     1     107.609 125.036 147.483  0.00  0.00    +0.000 A 
ATOM     18  C   UNL     1     106.426 125.038 148.633  0.00  0.00    +0.000 A 
ATOM     19  C   UNL     1     107.787 124.819 148.259  0.00  0.00    +0.000 A 
ATOM     20  C   UNL     1     107.196 124.819 148.834  0.00  0.00    +0.000 A 
BRANCH  18  21
ATOM     21  O   UNL     1     105.835 125.038 149.208  0.00  0.00    +0.000 OA
ATOM     22  C   UNL     1     105.042 125.095 148.986  0.00  0.00    +0.000 C 
ENDBRANCH  18  21
ENDBRANCH   7  15
BRANCH   9  23
ATOM     23  O   UNL     1     107.242 126.795 146.717  0.00  0.00    +0.000 OA
ATOM     24  C   UNL     1     107.181 127.604 146.570  0.00  0.00    +0.000 C 
ENDBRANCH   9  23
BRANCH  10  25
ATOM     25  O   UNL     1     105.511 123.863 144.952  0.00  0.00    +0.000 OA
ATOM     26  C   UNL     1     104.720 123.630 144.989  0.00  0.00    +0.000 C 
ENDBRANCH  10  25
BRANCH  12  27
ATOM     27  O   UNL     1     105.544 125.796 142.847  0.00  0.00    +0.000 OA
ATOM     28  C   UNL     1     106.066 125.609 142.237  0.00  0.00    +0.000 C 
ENDBRANCH  12  27
TORSDOF 5
ENDMDL
MODEL 5
REMARK VINA RESULT:      -7.8     12.921     14.269
REMARK  Name = 5386959
REMARK  5 active torsions:
REMARK  status: ('A' for Active; 'I' for Inactive)
REMARK    1  A    between atoms: O_2  and  C_14
REMARK    2  A    between atoms: O_3  and  C_15
REMARK    3  A    between atoms: O_4  and  C_18
REMARK    4  A    between atoms: O_8  and  C_22
REMARK    5  A    between atoms: C_12  and  C_17
REMARK                            x       y       z     vdW  Elec       q    Type
REMARK                         _______ _______ _______ _____ _____    ______ ____
ROOT
ATOM      1  O   UNL     1     113.410 126.861 136.577  0.00  0.00    +0.000 OA
ATOM      2  O   UNL     1     111.195 125.088 136.003  0.00  0.00    +0.000 OA
ATOM      3  O   UNL     1     113.674 124.014 136.934  0.00  0.00    +0.000 OA
ATOM      4  O   UNL     1     111.022 126.508 135.811  0.00  0.00    +0.000 OA
ATOM      5  C   UNL     1     112.290 125.962 136.287  0.00  0.00    +0.000 A 
ATOM      6  C   UNL     1     113.068 126.074 136.537  0.00  0.00    +0.000 A 
ATOM      7  C   UNL     1     112.934 127.541 136.354  0.00  0.00    +0.000 A 
ATOM      8  C   UNL     1     111.800 126.629 136.060  0.00  0.00    +0.000 A 
ATOM      9  C   UNL     1     112.124 127.425 136.093  0.00  0.00    +0.000 A 
ATOM     10  C   UNL     1     113.530 125.424 136.753  0.00  0.00    +0.000 A 
ATOM     11  C   UNL     1     111.973 125.200 136.253  0.00  0.00    +0.000 A 
ATOM     12  C   UNL     1     112.435 124.552 136.469  0.00  0.00    +0.000 A 
ATOM     13  C   UNL     1     113.213 124.664 136.719  0.00  0.00    +0.000 A 
ENDROOT
BRANCH   7  15
ATOM     14  O   UNL     1     114.211 130.580 136.493  0.00  0.00    +0.000 OA
ATOM     15  C   UNL     1     113.253 128.301 136.389  0.00  0.00    +0.000 A 
ATOM     16  C   UNL     1     113.650 128.612 135.736  0.00  0.00    +0.000 A 
ATOM     17  C   UNL     1     113.175 128.750 137.077  0.00  0.00    +0.000 A 
ATOM     18  C   UNL     1     113.969 129.371 135.771  0.00  0.00    +0.000 A 
ATOM     19  C   UNL     1     113.495 129.510 137.111  0.00  0.00    +0.000 A 
ATOM     20  C   UNL     1     113.892 129.821 136.459  0.00  0.00    +0.000 A 
BRANCH  18  21
ATOM     21  O   UNL     1     114.366 129.683 135.118  0.00  0.00    +0.000 OA
ATOM     22  C   UNL     1     114.856 129.199 134.663  0.00  0.00    +0.000 C 
ENDBRANCH  18  21
ENDBRANCH   7  15
BRANCH   9  23
ATOM     23  O   UNL     1     111.659 128.072 135.877  0.00  0.00    +0.000 OA
ATOM     24  C   UNL     1     111.006 127.965 135.384  0.00  0.00    +0.000 C 
ENDBRANCH   9  23
BRANCH  10  25
ATOM     25  O   UNL     1     114.308 125.536 137.003  0.00  0.00    +0.000 OA
ATOM     26  C   UNL     1     114.930 125.202 136.577  0.00  0.00    +0.000 C 
ENDBRANCH  10  25
BRANCH  12  27
ATOM     27  O   UNL     1     112.118 123.790 136.434  0.00  0.00    +0.000 OA
ATOM     28  C   UNL     1     111.838 123.429 137.121  0.00  0.00    +0.000 C 
ENDBRANCH  12  27
TORSDOF 5
ENDMDL
MODEL 6
REMARK VINA RESULT:      -7.8     12.638     13.884
REMARK  Name = 5386959
REMARK  5 active torsions:
REMARK  status: ('A' for Active; 'I' for Inactive)
REMARK    1  A    between atoms: O_2  and  C_14
REMARK    2  A    between atoms: O_3  and  C_15
REMARK    3  A    between atoms: O_4  and  C_18
REMARK    4  A    between atoms: O_8  and  C_22
REMARK    5  A    between atoms: C_12  and  C_17
REMARK                            x       y       z     vdW  Elec       q    Type
REMARK                         _______ _______ _______ _____ _____    ______ ____
ROOT
ATOM      1  O   UNL     1     112.584 127.245 136.117  0.00  0.00    +0.000 OA
ATOM      2  O   UNL     1     109.885 127.146 135.075  0.00  0.00    +0.000 OA
ATOM      3  O   UNL     1     111.394 129.566 134.894  0.00  0.00    +0.000 OA
ATOM      4  O   UNL     1     110.446 125.961 135.681  0.00  0.00    +0.000 OA
ATOM      5  C   UNL     1     111.219 127.197 135.589  0.00  0.00    +0.000 A 
ATOM      6  C   UNL     1     111.914 127.617 135.730  0.00  0.00    +0.000 A 
ATOM      7  C   UNL     1     112.529 126.422 136.361  0.00  0.00    +0.000 A 
ATOM      8  C   UNL     1     111.145 126.374 135.826  0.00  0.00    +0.000 A 
ATOM      9  C   UNL     1     111.805 125.984 136.214  0.00  0.00    +0.000 A 
ATOM     10  C   UNL     1     111.972 128.407 135.498  0.00  0.00    +0.000 A 
ATOM     11  C   UNL     1     110.581 127.566 135.216  0.00  0.00    +0.000 A 
ATOM     12  C   UNL     1     110.641 128.356 134.985  0.00  0.00    +0.000 A 
ATOM     13  C   UNL     1     111.336 128.776 135.126  0.00  0.00    +0.000 A 
ENDROOT
BRANCH   7  15
ATOM     14  O   UNL     1     115.082 124.956 137.852  0.00  0.00    +0.000 OA
ATOM     15  C   UNL     1     113.168 126.055 136.734  0.00  0.00    +0.000 A 
ATOM     16  C   UNL     1     113.258 126.115 137.551  0.00  0.00    +0.000 A 
ATOM     17  C   UNL     1     113.716 125.629 136.288  0.00  0.00    +0.000 A 
ATOM     18  C   UNL     1     113.895 125.749 137.924  0.00  0.00    +0.000 A 
ATOM     19  C   UNL     1     114.354 125.263 136.661  0.00  0.00    +0.000 A 
ATOM     20  C   UNL     1     114.444 125.322 137.479  0.00  0.00    +0.000 A 
BRANCH  18  21
ATOM     21  O   UNL     1     113.985 125.808 138.742  0.00  0.00    +0.000 OA
ATOM     22  C   UNL     1     113.665 126.452 139.147  0.00  0.00    +0.000 C 
ENDBRANCH  18  21
ENDBRANCH   7  15
BRANCH   9  23
ATOM     23  O   UNL     1     111.743 125.194 136.445  0.00  0.00    +0.000 OA
ATOM     24  C   UNL     1     111.261 124.676 136.019  0.00  0.00    +0.000 C 
ENDBRANCH   9  23
BRANCH  10  25
ATOM     25  O   UNL     1     112.668 128.828 135.639  0.00  0.00    +0.000 OA
ATOM     26  C   UNL     1     113.085 129.160 135.010  0.00  0.00    +0.000 C 
ENDBRANCH  10  25
BRANCH  12  27
ATOM     27  O   UNL     1     110.003 128.725 134.612  0.00  0.00    +0.000 OA
ATOM     28  C   UNL     1     109.470 129.173 135.055  0.00  0.00    +0.000 C 
ENDBRANCH  12  27
TORSDOF 5
ENDMDL
MODEL 7
REMARK VINA RESULT:      -7.7      8.006      8.941
REMARK  Name = 5386959
REMARK  5 active torsions:
REMARK  status: ('A' for Active; 'I' for Inactive)
REMARK    1  A    between atoms: O_2  and  C_14
REMARK    2  A    between atoms: O_3  and  C_15
REMARK    3  A    between atoms: O_4  and  C_18
REMARK    4  A    between atoms: O_8  and  C_22
REMARK    5  A    between atoms: C_12  and  C_17
REMARK                            x       y       z     vdW  Elec       q    Type
REMARK                         _______ _______ _______ _____ _____    ______ ____
ROOT
ATOM      1  O   UNL     1     102.690 130.655 141.515  0.00  0.00    +0.000 OA
ATOM      2  O   UNL     1     104.281 128.942 143.222  0.00  0.00    +0.000 OA
ATOM      3  O   UNL     1     103.896 128.253 140.475  0.00  0.00    +0.000 OA
ATOM      4  O   UNL     1     103.694 130.136 143.781  0.00  0.00    +0.000 OA
ATOM      5  C   UNL     1     103.496 129.786 142.377  0.00  0.00    +0.000 A 
ATOM      6  C   UNL     1     103.170 129.953 141.638  0.00  0.00    +0.000 A 
ATOM      7  C   UNL     1     102.547 131.191 142.172  0.00  0.00    +0.000 A 
ATOM      8  C   UNL     1     103.364 130.310 143.045  0.00  0.00    +0.000 A 
ATOM      9  C   UNL     1     102.886 131.018 142.941  0.00  0.00    +0.000 A 
ATOM     10  C   UNL     1     103.304 129.441 141.004  0.00  0.00    +0.000 A 
ATOM     11  C   UNL     1     103.955 129.109 142.483  0.00  0.00    +0.000 A 
ATOM     12  C   UNL     1     104.088 128.598 141.848  0.00  0.00    +0.000 A 
ATOM     13  C   UNL     1     103.762 128.765 141.109  0.00  0.00    +0.000 A 
ENDROOT
BRANCH   7  15
ATOM     14  O   UNL     1     100.710 133.897 141.738  0.00  0.00    +0.000 OA
ATOM     15  C   UNL     1     102.088 131.867 142.063  0.00  0.00    +0.000 A 
ATOM     16  C   UNL     1     102.437 132.564 141.793  0.00  0.00    +0.000 A 
ATOM     17  C   UNL     1     101.279 131.847 142.225  0.00  0.00    +0.000 A 
ATOM     18  C   UNL     1     101.978 133.240 141.685  0.00  0.00    +0.000 A 
ATOM     19  C   UNL     1     100.820 132.524 142.116  0.00  0.00    +0.000 A 
ATOM     20  C   UNL     1     101.169 133.221 141.846  0.00  0.00    +0.000 A 
BRANCH  18  21
ATOM     21  O   UNL     1     102.327 133.937 141.415  0.00  0.00    +0.000 OA
ATOM     22  C   UNL     1     102.979 133.904 140.910  0.00  0.00    +0.000 C 
ENDBRANCH  18  21
ENDBRANCH   7  15
BRANCH   9  23
ATOM     23  O   UNL     1     102.755 131.526 143.578  0.00  0.00    +0.000 OA
ATOM     24  C   UNL     1     103.112 131.377 144.307  0.00  0.00    +0.000 C 
ENDBRANCH   9  23
BRANCH  10  25
ATOM     25  O   UNL     1     102.978 129.608 140.264  0.00  0.00    +0.000 OA
ATOM     26  C   UNL     1     102.459 129.072 139.912  0.00  0.00    +0.000 C 
ENDBRANCH  10  25
BRANCH  12  27
ATOM     27  O   UNL     1     104.548 127.921 141.954  0.00  0.00    +0.000 OA
ATOM     28  C   UNL     1     105.366 127.960 141.861  0.00  0.00    +0.000 C 
ENDBRANCH  12  27
TORSDOF 5
ENDMDL
MODEL 8
REMARK VINA RESULT:      -7.6     10.173     12.392
REMARK  Name = 5386959
REMARK  5 active torsions:
REMARK  status: ('A' for Active; 'I' for Inactive)
REMARK    1  A    between atoms: O_2  and  C_14
REMARK    2  A    between atoms: O_3  and  C_15
REMARK    3  A    between atoms: O_4  and  C_18
REMARK    4  A    between atoms: O_8  and  C_22
REMARK    5  A    between atoms: C_12  and  C_17
REMARK                            x       y       z     vdW  Elec       q    Type
REMARK                         _______ _______ _______ _____ _____    ______ ____
ROOT
ATOM      1  O   UNL     1     113.391 126.545 139.131  0.00  0.00    +0.000 OA
ATOM      2  O   UNL     1     110.828 126.239 140.441  0.00  0.00    +0.000 OA
ATOM      3  O   UNL     1     112.915 127.710 141.723  0.00  0.00    +0.000 OA
ATOM      4  O   UNL     1     111.026 125.640 139.143  0.00  0.00    +0.000 OA
ATOM      5  C   UNL     1     112.094 126.391 139.796  0.00  0.00    +0.000 A 
ATOM      6  C   UNL     1     112.864 126.688 139.795  0.00  0.00    +0.000 A 
ATOM      7  C   UNL     1     113.111 126.088 138.459  0.00  0.00    +0.000 A 
ATOM      8  C   UNL     1     111.797 125.932 139.134  0.00  0.00    +0.000 A 
ATOM      9  C   UNL     1     112.310 125.779 138.460  0.00  0.00    +0.000 A 
ATOM     10  C   UNL     1     113.138 127.127 140.437  0.00  0.00    +0.000 A 
ATOM     11  C   UNL     1     111.598 126.535 140.440  0.00  0.00    +0.000 A 
ATOM     12  C   UNL     1     111.872 126.974 141.081  0.00  0.00    +0.000 A 
ATOM     13  C   UNL     1     112.642 127.271 141.080  0.00  0.00    +0.000 A 
ENDROOT
BRANCH   7  15
ATOM     14  O   UNL     1     115.104 125.521 135.890  0.00  0.00    +0.000 OA
ATOM     15  C   UNL     1     113.609 125.946 137.817  0.00  0.00    +0.000 A 
ATOM     16  C   UNL     1     113.670 126.503 137.211  0.00  0.00    +0.000 A 
ATOM     17  C   UNL     1     114.047 125.247 137.781  0.00  0.00    +0.000 A 
ATOM     18  C   UNL     1     114.168 126.361 136.569  0.00  0.00    +0.000 A 
ATOM     19  C   UNL     1     114.546 125.106 137.138  0.00  0.00    +0.000 A 
ATOM     20  C   UNL     1     114.606 125.663 136.532  0.00  0.00    +0.000 A 
BRANCH  18  21
ATOM     21  O   UNL     1     114.228 126.918 135.963  0.00  0.00    +0.000 OA
ATOM     22  C   UNL     1     113.923 127.678 136.068  0.00  0.00    +0.000 C 
ENDBRANCH  18  21
ENDBRANCH   7  15
BRANCH   9  23
ATOM     23  O   UNL     1     112.032 125.339 137.819  0.00  0.00    +0.000 OA
ATOM     24  C   UNL     1     111.225 125.189 137.739  0.00  0.00    +0.000 C 
ENDBRANCH   9  23
BRANCH  10  25
ATOM     25  O   UNL     1     113.908 127.424 140.436  0.00  0.00    +0.000 OA
ATOM     26  C   UNL     1     114.453 127.160 140.996  0.00  0.00    +0.000 C 
ENDBRANCH  10  25
BRANCH  12  27
ATOM     27  O   UNL     1     111.375 127.118 141.725  0.00  0.00    +0.000 OA
ATOM     28  C   UNL     1     110.933 127.813 141.757  0.00  0.00    +0.000 C 
ENDBRANCH  12  27
TORSDOF 5
ENDMDL
MODEL 9
REMARK VINA RESULT:      -7.6     10.568     12.228
REMARK  Name = 5386959
REMARK  5 active torsions:
REMARK  status: ('A' for Active; 'I' for Inactive)
REMARK    1  A    between atoms: O_2  and  C_14
REMARK    2  A    between atoms: O_3  and  C_15
REMARK    3  A    between atoms: O_4  and  C_18
REMARK    4  A    between atoms: O_8  and  C_22
REMARK    5  A    between atoms: C_12  and  C_17
REMARK                            x       y       z     vdW  Elec       q    Type
REMARK                         _______ _______ _______ _____ _____    ______ ____
ROOT
ATOM      1  O   UNL     1     112.100 125.892 137.983  0.00  0.00    +0.000 OA
ATOM      2  O   UNL     1     111.063 127.180 135.608  0.00  0.00    +0.000 OA
ATOM      3  O   UNL     1     111.141 124.327 135.762  0.00  0.00    +0.000 OA
ATOM      4  O   UNL     1     111.534 127.999 136.699  0.00  0.00    +0.000 OA
ATOM      5  C   UNL     1     111.575 126.542 136.780  0.00  0.00    +0.000 A 
ATOM      6  C   UNL     1     111.758 125.853 137.196  0.00  0.00    +0.000 A 
ATOM      7  C   UNL     1     112.253 126.658 138.342  0.00  0.00    +0.000 A 
ATOM      8  C   UNL     1     111.721 127.316 137.122  0.00  0.00    +0.000 A 
ATOM      9  C   UNL     1     112.062 127.375 137.909  0.00  0.00    +0.000 A 
ATOM     10  C   UNL     1     111.613 125.115 136.857  0.00  0.00    +0.000 A 
ATOM     11  C   UNL     1     111.247 126.492 136.024  0.00  0.00    +0.000 A 
ATOM     12  C   UNL     1     111.102 125.754 135.685  0.00  0.00    +0.000 A 
ATOM     13  C   UNL     1     111.286 125.065 136.102  0.00  0.00    +0.000 A 
ENDROOT
BRANCH   7  15
ATOM     14  O   UNL     1     113.564 126.845 141.365  0.00  0.00    +0.000 OA
ATOM     15  C   UNL     1     112.581 126.705 139.098  0.00  0.00    +0.000 A 
ATOM     16  C   UNL     1     112.107 126.582 139.762  0.00  0.00    +0.000 A 
ATOM     17  C   UNL     1     113.383 126.875 139.189  0.00  0.00    +0.000 A 
ATOM     18  C   UNL     1     112.434 126.629 140.516  0.00  0.00    +0.000 A 
ATOM     19  C   UNL     1     113.711 126.922 139.946  0.00  0.00    +0.000 A 
ATOM     20  C   UNL     1     113.236 126.799 140.610  0.00  0.00    +0.000 A 
BRANCH  18  21
ATOM     21  O   UNL     1     111.960 126.505 141.180  0.00  0.00    +0.000 OA
ATOM     22  C   UNL     1     111.167 126.734 141.170  0.00  0.00    +0.000 C 
ENDBRANCH  18  21
ENDBRANCH   7  15
BRANCH   9  23
ATOM     23  O   UNL     1     112.205 128.115 138.245  0.00  0.00    +0.000 OA
ATOM     24  C   UNL     1     111.820 128.783 137.953  0.00  0.00    +0.000 C 
ENDBRANCH   9  23
BRANCH  10  25
ATOM     25  O   UNL     1     111.797 124.427 137.273  0.00  0.00    +0.000 OA
ATOM     26  C   UNL     1     112.304 123.867 136.942  0.00  0.00    +0.000 C 
ENDBRANCH  10  25
BRANCH  12  27
ATOM     27  O   UNL     1     110.774 125.704 134.929  0.00  0.00    +0.000 OA
ATOM     28  C   UNL     1     109.955 125.692 134.836  0.00  0.00    +0.000 C 
ENDBRANCH  12  27
TORSDOF 5
ENDMDL
MODEL 10
REMARK VINA RESULT:      -7.5      7.581      8.699
REMARK  Name = 5386959
REMARK  5 active torsions:
REMARK  status: ('A' for Active; 'I' for Inactive)
REMARK    1  A    between atoms: O_2  and  C_14
REMARK    2  A    between atoms: O_3  and  C_15
REMARK    3  A    between atoms: O_4  and  C_18
REMARK    4  A    between atoms: O_8  and  C_22
REMARK    5  A    between atoms: C_12  and  C_17
REMARK                            x       y       z     vdW  Elec       q    Type
REMARK                         _______ _______ _______ _____ _____    ______ ____
ROOT
ATOM      1  O   UNL     1     103.514 130.175 142.303  0.00  0.00    +0.000 OA
ATOM      2  O   UNL     1     104.299 127.712 141.000  0.00  0.00    +0.000 OA
ATOM      3  O   UNL     1     105.405 128.392 143.546  0.00  0.00    +0.000 OA
ATOM      4  O   UNL     1     103.349 128.579 140.345  0.00  0.00    +0.000 OA
ATOM      5  C   UNL     1     103.913 128.928 141.646  0.00  0.00    +0.000 A 
ATOM      6  C   UNL     1     103.968 129.446 142.285  0.00  0.00    +0.000 A 
ATOM      7  C   UNL     1     102.994 130.367 141.646  0.00  0.00    +0.000 A 
ATOM      8  C   UNL     1     103.399 129.102 140.980  0.00  0.00    +0.000 A 
ATOM      9  C   UNL     1     102.936 129.827 140.980  0.00  0.00    +0.000 A 
ATOM     10  C   UNL     1     104.466 129.267 142.919  0.00  0.00    +0.000 A 
ATOM     11  C   UNL     1     104.355 128.231 141.640  0.00  0.00    +0.000 A 
ATOM     12  C   UNL     1     104.852 128.053 142.273  0.00  0.00    +0.000 A 
ATOM     13  C   UNL     1     104.907 128.571 142.913  0.00  0.00    +0.000 A 
ENDROOT
BRANCH   7  15
ATOM     14  O   UNL     1     101.233 133.157 141.680  0.00  0.00    +0.000 OA
ATOM     15  C   UNL     1     102.553 131.064 141.655  0.00  0.00    +0.000 A 
ATOM     16  C   UNL     1     102.879 131.761 141.358  0.00  0.00    +0.000 A 
ATOM     17  C   UNL     1     101.786 131.064 141.959  0.00  0.00    +0.000 A 
ATOM     18  C   UNL     1     102.439 132.458 141.367  0.00  0.00    +0.000 A 
ATOM     19  C   UNL     1     101.346 131.762 141.968  0.00  0.00    +0.000 A 
ATOM     20  C   UNL     1     101.672 132.460 141.671  0.00  0.00    +0.000 A 
BRANCH  18  21
ATOM     21  O   UNL     1     102.766 133.156 141.071  0.00  0.00    +0.000 OA
ATOM     22  C   UNL     1     103.565 133.322 141.190  0.00  0.00    +0.000 C 
ENDBRANCH  18  21
ENDBRANCH   7  15
BRANCH   9  23
ATOM     23  O   UNL     1     102.439 130.002 140.345  0.00  0.00    +0.000 OA
ATOM     24  C   UNL     1     102.258 129.420 139.789  0.00  0.00    +0.000 C 
ENDBRANCH   9  23
BRANCH  10  25
ATOM     25  O   UNL     1     104.521 129.785 143.558  0.00  0.00    +0.000 OA
ATOM     26  C   UNL     1     104.370 129.515 144.323  0.00  0.00    +0.000 C 
ENDBRANCH  10  25
BRANCH  12  27
ATOM     27  O   UNL     1     105.294 127.355 142.267  0.00  0.00    +0.000 OA
ATOM     28  C   UNL     1     106.073 127.364 141.998  0.00  0.00    +0.000 C 
ENDBRANCH  12  27
TORSDOF 5
ENDMDL
