MODEL 1
REMARK VINA RESULT:      -9.4      0.000      0.000
REMARK  Name = 42607822
REMARK  4 active torsions:
REMARK  status: ('A' for Active; 'I' for Inactive)
REMARK    1  A    between atoms: O_2  and  C_15
REMARK    2  A    between atoms: O_2  and  C_17
REMARK    3  A    between atoms: C_14  and  C_16
REMARK    4  A    between atoms: C_18  and  C_19
REMARK                            x       y       z     vdW  Elec       q    Type
REMARK                         _______ _______ _______ _____ _____    ______ ____
ROOT
ATOM      1  O   UNL     1     108.844 126.782 135.000  0.00  0.00    +0.000 OA
ATOM      2  C   UNL     1     109.771 126.540 136.060  0.00  0.00    +0.000 A 
ATOM      3  C   UNL     1     110.826 125.591 135.884  0.00  0.00    +0.000 A 
ATOM      4  C   UNL     1     110.432 126.142 136.354  0.00  0.00    +0.000 A 
ATOM      5  C   UNL     1     109.505 126.385 135.294  0.00  0.00    +0.000 A 
ATOM      6  C   UNL     1     110.559 125.436 135.119  0.00  0.00    +0.000 A 
ATOM      7  C   UNL     1     109.899 125.833 134.824  0.00  0.00    +0.000 A 
ENDROOT
BRANCH   3  11
ATOM      8  O   UNL     1     112.226 125.561 136.170  0.00  0.00    +0.000 OA
ATOM      9  O   UNL     1     111.991 123.274 137.085  0.00  0.00    +0.000 OA
ATOM     10  O   UNL     1     115.081 125.520 136.745  0.00  0.00    +0.000 OA
ATOM     11  C   UNL     1     111.486 125.194 136.180  0.00  0.00    +0.000 C 
ATOM     12  C   UNL     1     111.408 124.432 136.484  0.00  0.00    +0.000 C 
ATOM     13  C   UNL     1     112.068 124.037 136.780  0.00  0.00    +0.000 C 
ATOM     14  C   UNL     1     112.808 124.404 136.770  0.00  0.00    +0.000 A 
ATOM     15  C   UNL     1     112.886 125.166 136.465  0.00  0.00    +0.000 A 
ATOM     16  C   UNL     1     113.489 123.981 137.081  0.00  0.00    +0.000 A 
ATOM     17  C   UNL     1     113.650 125.558 136.450  0.00  0.00    +0.000 A 
ATOM     18  C   UNL     1     114.343 125.151 136.756  0.00  0.00    +0.000 A 
ATOM     19  C   UNL     1     114.261 124.357 137.074  0.00  0.00    +0.000 A 
ENDBRANCH   3  11
BRANCH   2  20
ATOM     20  O   UNL     1     109.378 127.090 136.530  0.00  0.00    +0.000 OA
BRANCH  20  29
ATOM     21  O   UNL     1     110.267 128.200 136.386  0.00  0.00    +0.000 OA
ATOM     22  O   UNL     1     110.091 128.655 138.813  0.00  0.00    +0.000 OA
ATOM     23  O   UNL     1     111.039 129.611 137.860  0.00  0.00    +0.000 OA
ATOM     24  O   UNL     1     109.261 127.394 138.147  0.00  0.00    +0.000 OA
ATOM     25  C   UNL     1     110.150 128.503 138.004  0.00  0.00    +0.000 C 
ATOM     26  C   UNL     1     110.624 128.981 137.528  0.00  0.00    +0.000 C 
ATOM     27  C   UNL     1     109.734 127.872 137.672  0.00  0.00    +0.000 C 
ATOM     28  C   UNL     1     110.682 128.830 136.719  0.00  0.00    +0.000 C 
ATOM     29  C   UNL     1     109.793 127.721 136.863  0.00  0.00    +0.000 C 
BRANCH  28  31
ATOM     30  O   UNL     1     110.879 129.559 135.506  0.00  0.00    +0.000 OA
ATOM     31  C   UNL     1     111.156 129.308 136.243  0.00  0.00    +0.000 C 
ENDBRANCH  28  31
ENDBRANCH  20  29
ENDBRANCH   2  20
TORSDOF 4
ENDMDL
MODEL 2
REMARK VINA RESULT:      -9.2      9.609     11.755
REMARK  Name = 42607822
REMARK  4 active torsions:
REMARK  status: ('A' for Active; 'I' for Inactive)
REMARK    1  A    between atoms: O_2  and  C_15
REMARK    2  A    between atoms: O_2  and  C_17
REMARK    3  A    between atoms: C_14  and  C_16
REMARK    4  A    between atoms: C_18  and  C_19
REMARK                            x       y       z     vdW  Elec       q    Type
REMARK                         _______ _______ _______ _____ _____    ______ ____
ROOT
ATOM      1  O   UNL     1     100.710 134.204 142.321  0.00  0.00    +0.000 OA
ATOM      2  C   UNL     1     101.771 133.457 141.722  0.00  0.00    +0.000 A 
ATOM      3  C   UNL     1     101.805 132.034 141.853  0.00  0.00    +0.000 A 
ATOM      4  C   UNL     1     102.136 132.734 141.567  0.00  0.00    +0.000 A 
ATOM      5  C   UNL     1     101.074 133.481 142.165  0.00  0.00    +0.000 A 
ATOM      6  C   UNL     1     101.109 132.058 142.295  0.00  0.00    +0.000 A 
ATOM      7  C   UNL     1     100.743 132.781 142.451  0.00  0.00    +0.000 A 
ENDROOT
BRANCH   3  11
ATOM      8  O   UNL     1     102.062 130.944 140.964  0.00  0.00    +0.000 OA
ATOM      9  O   UNL     1     103.482 129.876 142.687  0.00  0.00    +0.000 OA
ATOM     10  O   UNL     1     102.574 128.733 139.140  0.00  0.00    +0.000 OA
ATOM     11  C   UNL     1     102.170 131.311 141.696  0.00  0.00    +0.000 C 
ATOM     12  C   UNL     1     102.643 130.955 142.270  0.00  0.00    +0.000 C 
ATOM     13  C   UNL     1     103.008 130.233 142.113  0.00  0.00    +0.000 C 
ATOM     14  C   UNL     1     102.900 129.866 141.381  0.00  0.00    +0.000 A 
ATOM     15  C   UNL     1     102.427 130.222 140.807  0.00  0.00    +0.000 A 
ATOM     16  C   UNL     1     103.286 129.113 141.230  0.00  0.00    +0.000 A 
ATOM     17  C   UNL     1     102.307 129.850 140.042  0.00  0.00    +0.000 A 
ATOM     18  C   UNL     1     102.684 129.097 139.872  0.00  0.00    +0.000 A 
ATOM     19  C   UNL     1     103.177 128.726 140.470  0.00  0.00    +0.000 A 
ENDBRANCH   3  11
BRANCH   2  20
ATOM     20  O   UNL     1     102.102 134.156 141.437  0.00  0.00    +0.000 OA
BRANCH  20  29
ATOM     21  O   UNL     1     103.159 134.306 142.386  0.00  0.00    +0.000 OA
ATOM     22  O   UNL     1     104.700 134.966 140.566  0.00  0.00    +0.000 OA
ATOM     23  O   UNL     1     105.243 134.896 142.122  0.00  0.00    +0.000 OA
ATOM     24  O   UNL     1     103.129 134.595 140.223  0.00  0.00    +0.000 OA
ATOM     25  C   UNL     1     104.187 134.746 141.173  0.00  0.00    +0.000 C 
ATOM     26  C   UNL     1     104.458 134.711 141.950  0.00  0.00    +0.000 C 
ATOM     27  C   UNL     1     103.401 134.561 141.000  0.00  0.00    +0.000 C 
ATOM     28  C   UNL     1     103.944 134.491 142.557  0.00  0.00    +0.000 C 
ATOM     29  C   UNL     1     102.887 134.341 141.607  0.00  0.00    +0.000 C 
BRANCH  28  31
ATOM     30  O   UNL     1     103.740 134.736 143.950  0.00  0.00    +0.000 OA
ATOM     31  C   UNL     1     104.215 134.457 143.335  0.00  0.00    +0.000 C 
ENDBRANCH  28  31
ENDBRANCH  20  29
ENDBRANCH   2  20
TORSDOF 4
ENDMDL
MODEL 3
REMARK VINA RESULT:      -9.1      1.318      2.718
REMARK  Name = 42607822
REMARK  4 active torsions:
REMARK  status: ('A' for Active; 'I' for Inactive)
REMARK    1  A    between atoms: O_2  and  C_15
REMARK    2  A    between atoms: O_2  and  C_17
REMARK    3  A    between atoms: C_14  and  C_16
REMARK    4  A    between atoms: C_18  and  C_19
REMARK                            x       y       z     vdW  Elec       q    Type
REMARK                         _______ _______ _______ _____ _____    ______ ____
ROOT
ATOM      1  O   UNL     1     113.008 130.010 136.026  0.00  0.00    +0.000 OA
ATOM      2  C   UNL     1     112.520 128.833 136.674  0.00  0.00    +0.000 A 
ATOM      3  C   UNL     1     113.195 127.586 136.493  0.00  0.00    +0.000 A 
ATOM      4  C   UNL     1     112.583 128.025 136.830  0.00  0.00    +0.000 A 
ATOM      5  C   UNL     1     113.070 129.202 136.182  0.00  0.00    +0.000 A 
ATOM      6  C   UNL     1     113.744 127.955 136.001  0.00  0.00    +0.000 A 
ATOM      7  C   UNL     1     113.683 128.763 135.845  0.00  0.00    +0.000 A 
ENDROOT
BRANCH   3  11
ATOM      8  O   UNL     1     112.670 126.261 136.383  0.00  0.00    +0.000 OA
ATOM      9  O   UNL     1     114.610 125.388 137.648  0.00  0.00    +0.000 OA
ATOM     10  O   UNL     1     111.584 123.569 136.150  0.00  0.00    +0.000 OA
ATOM     11  C   UNL     1     113.256 126.778 136.649  0.00  0.00    +0.000 C 
ATOM     12  C   UNL     1     113.902 126.487 137.071  0.00  0.00    +0.000 C 
ATOM     13  C   UNL     1     113.963 125.680 137.226  0.00  0.00    +0.000 C 
ATOM     14  C   UNL     1     113.377 125.163 136.960  0.00  0.00    +0.000 A 
ATOM     15  C   UNL     1     112.730 125.454 136.539  0.00  0.00    +0.000 A 
ATOM     16  C   UNL     1     113.452 124.323 137.129  0.00  0.00    +0.000 A 
ATOM     17  C   UNL     1     112.114 124.926 136.257  0.00  0.00    +0.000 A 
ATOM     18  C   UNL     1     112.171 124.083 136.416  0.00  0.00    +0.000 A 
ATOM     19  C   UNL     1     112.845 123.780 136.855  0.00  0.00    +0.000 A 
ENDBRANCH   3  11
BRANCH   2  20
ATOM     20  O   UNL     1     111.909 129.272 137.010  0.00  0.00    +0.000 OA
BRANCH  20  29
ATOM     21  O   UNL     1     110.847 128.904 136.128  0.00  0.00    +0.000 OA
ATOM     22  O   UNL     1     109.327 128.646 138.064  0.00  0.00    +0.000 OA
ATOM     23  O   UNL     1     108.772 128.365 136.537  0.00  0.00    +0.000 OA
ATOM     24  O   UNL     1     110.896 129.100 138.301  0.00  0.00    +0.000 OA
ATOM     25  C   UNL     1     109.834 128.732 137.419  0.00  0.00    +0.000 C 
ATOM     26  C   UNL     1     109.556 128.591 136.655  0.00  0.00    +0.000 C 
ATOM     27  C   UNL     1     110.618 128.959 137.538  0.00  0.00    +0.000 C 
ATOM     28  C   UNL     1     110.062 128.677 136.010  0.00  0.00    +0.000 C 
ATOM     29  C   UNL     1     111.124 129.045 136.892  0.00  0.00    +0.000 C 
BRANCH  28  31
ATOM     30  O   UNL     1     109.950 129.075 134.642  0.00  0.00    +0.000 OA
ATOM     31  C   UNL     1     109.785 128.537 135.246  0.00  0.00    +0.000 C 
ENDBRANCH  28  31
ENDBRANCH  20  29
ENDBRANCH   2  20
TORSDOF 4
ENDMDL
MODEL 4
REMARK VINA RESULT:      -9.1      2.021      4.129
REMARK  Name = 42607822
REMARK  4 active torsions:
REMARK  status: ('A' for Active; 'I' for Inactive)
REMARK    1  A    between atoms: O_2  and  C_15
REMARK    2  A    between atoms: O_2  and  C_17
REMARK    3  A    between atoms: C_14  and  C_16
REMARK    4  A    between atoms: C_18  and  C_19
REMARK                            x       y       z     vdW  Elec       q    Type
REMARK                         _______ _______ _______ _____ _____    ______ ____
ROOT
ATOM      1  O   UNL     1     112.621 124.602 136.556  0.00  0.00    +0.000 OA
ATOM      2  C   UNL     1     112.178 125.958 136.479  0.00  0.00    +0.000 A 
ATOM      3  C   UNL     1     113.122 127.025 136.599  0.00  0.00    +0.000 A 
ATOM      4  C   UNL     1     112.346 126.766 136.494  0.00  0.00    +0.000 A 
ATOM      5  C   UNL     1     112.788 125.409 136.570  0.00  0.00    +0.000 A 
ATOM      6  C   UNL     1     113.731 126.476 136.690  0.00  0.00    +0.000 A 
ATOM      7  C   UNL     1     113.565 125.668 136.676  0.00  0.00    +0.000 A 
ENDROOT
BRANCH   3  11
ATOM      8  O   UNL     1     113.152 128.270 137.301  0.00  0.00    +0.000 OA
ATOM      9  O   UNL     1     114.059 129.384 135.285  0.00  0.00    +0.000 OA
ATOM     10  O   UNL     1     113.205 130.798 138.746  0.00  0.00    +0.000 OA
ATOM     11  C   UNL     1     113.288 127.833 136.613  0.00  0.00    +0.000 C 
ATOM     12  C   UNL     1     113.590 128.204 135.942  0.00  0.00    +0.000 C 
ATOM     13  C   UNL     1     113.756 129.012 135.957  0.00  0.00    +0.000 C 
ATOM     14  C   UNL     1     113.620 129.449 136.644  0.00  0.00    +0.000 A 
ATOM     15  C   UNL     1     113.318 129.077 137.315  0.00  0.00    +0.000 A 
ATOM     16  C   UNL     1     113.797 130.290 136.647  0.00  0.00    +0.000 A 
ATOM     17  C   UNL     1     113.172 129.521 138.036  0.00  0.00    +0.000 A 
ATOM     18  C   UNL     1     113.343 130.364 138.058  0.00  0.00    +0.000 A 
ATOM     19  C   UNL     1     113.657 130.750 137.358  0.00  0.00    +0.000 A 
ENDBRANCH   3  11
BRANCH   2  20
ATOM     20  O   UNL     1     111.403 125.699 136.374  0.00  0.00    +0.000 OA
BRANCH  20  29
ATOM     21  O   UNL     1     110.912 125.854 137.707  0.00  0.00    +0.000 OA
ATOM     22  O   UNL     1     108.836 126.871 136.824  0.00  0.00    +0.000 OA
ATOM     23  O   UNL     1     109.037 126.687 138.451  0.00  0.00    +0.000 OA
ATOM     24  O   UNL     1     110.019 126.378 135.785  0.00  0.00    +0.000 OA
ATOM     25  C   UNL     1     109.528 126.532 137.118  0.00  0.00    +0.000 C 
ATOM     26  C   UNL     1     109.628 126.440 137.931  0.00  0.00    +0.000 C 
ATOM     27  C   UNL     1     110.119 126.286 136.598  0.00  0.00    +0.000 C 
ATOM     28  C   UNL     1     110.320 126.101 138.226  0.00  0.00    +0.000 C 
ATOM     29  C   UNL     1     110.811 125.946 136.893  0.00  0.00    +0.000 C 
BRANCH  28  31
ATOM     30  O   UNL     1     110.712 125.297 139.340  0.00  0.00    +0.000 OA
ATOM     31  C   UNL     1     110.421 126.009 139.039  0.00  0.00    +0.000 C 
ENDBRANCH  28  31
ENDBRANCH  20  29
ENDBRANCH   2  20
TORSDOF 4
ENDMDL
MODEL 5
REMARK VINA RESULT:      -9.0      1.696      4.242
REMARK  Name = 42607822
REMARK  4 active torsions:
REMARK  status: ('A' for Active; 'I' for Inactive)
REMARK    1  A    between atoms: O_2  and  C_15
REMARK    2  A    between atoms: O_2  and  C_17
REMARK    3  A    between atoms: C_14  and  C_16
REMARK    4  A    between atoms: C_18  and  C_19
REMARK                            x       y       z     vdW  Elec       q    Type
REMARK                         _______ _______ _______ _____ _____    ______ ____
ROOT
ATOM      1  O   UNL     1     111.203 124.330 135.767  0.00  0.00    +0.000 OA
ATOM      2  C   UNL     1     110.806 125.493 136.496  0.00  0.00    +0.000 A 
ATOM      3  C   UNL     1     110.215 126.599 135.811  0.00  0.00    +0.000 A 
ATOM      4  C   UNL     1     110.477 126.250 136.511  0.00  0.00    +0.000 A 
ATOM      5  C   UNL     1     110.874 125.087 135.781  0.00  0.00    +0.000 A 
ATOM      6  C   UNL     1     110.283 126.193 135.097  0.00  0.00    +0.000 A 
ATOM      7  C   UNL     1     110.612 125.436 135.081  0.00  0.00    +0.000 A 
ENDROOT
BRANCH   3  11
ATOM      8  O   UNL     1     110.376 128.017 135.897  0.00  0.00    +0.000 OA
ATOM      9  O   UNL     1     107.923 128.305 135.732  0.00  0.00    +0.000 OA
ATOM     10  O   UNL     1     110.723 130.903 136.074  0.00  0.00    +0.000 OA
ATOM     11  C   UNL     1     109.886 127.356 135.826  0.00  0.00    +0.000 C 
ATOM     12  C   UNL     1     109.069 127.452 135.771  0.00  0.00    +0.000 C 
ATOM     13  C   UNL     1     108.741 128.208 135.787  0.00  0.00    +0.000 C 
ATOM     14  C   UNL     1     109.231 128.869 135.858  0.00  0.00    +0.000 A 
ATOM     15  C   UNL     1     110.047 128.773 135.913  0.00  0.00    +0.000 A 
ATOM     16  C   UNL     1     108.876 129.652 135.873  0.00  0.00    +0.000 A 
ATOM     17  C   UNL     1     110.567 129.453 135.987  0.00  0.00    +0.000 A 
ATOM     18  C   UNL     1     110.231 130.245 136.003  0.00  0.00    +0.000 A 
ATOM     19  C   UNL     1     109.380 130.344 135.946  0.00  0.00    +0.000 A 
ENDBRANCH   3  11
BRANCH   2  20
ATOM     20  O   UNL     1     111.068 125.144 137.195  0.00  0.00    +0.000 OA
BRANCH  20  29
ATOM     21  O   UNL     1     112.313 125.831 137.331  0.00  0.00    +0.000 OA
ATOM     22  O   UNL     1     111.906 126.092 139.758  0.00  0.00    +0.000 OA
ATOM     23  O   UNL     1     113.287 126.691 139.084  0.00  0.00    +0.000 OA
ATOM     24  O   UNL     1     110.796 125.318 138.813  0.00  0.00    +0.000 OA
ATOM     25  C   UNL     1     112.042 126.005 138.949  0.00  0.00    +0.000 C 
ATOM     26  C   UNL     1     112.732 126.304 138.613  0.00  0.00    +0.000 C 
ATOM     27  C   UNL     1     111.486 125.618 138.477  0.00  0.00    +0.000 C 
ATOM     28  C   UNL     1     112.868 126.217 137.804  0.00  0.00    +0.000 C 
ATOM     29  C   UNL     1     111.622 125.531 137.668  0.00  0.00    +0.000 C 
BRANCH  28  31
ATOM     30  O   UNL     1     114.013 126.042 136.966  0.00  0.00    +0.000 OA
ATOM     31  C   UNL     1     113.559 126.517 137.466  0.00  0.00    +0.000 C 
ENDBRANCH  28  31
ENDBRANCH  20  29
ENDBRANCH   2  20
TORSDOF 4
ENDMDL
MODEL 6
REMARK VINA RESULT:      -8.9     10.695     12.806
REMARK  Name = 42607822
REMARK  4 active torsions:
REMARK  status: ('A' for Active; 'I' for Inactive)
REMARK    1  A    between atoms: O_2  and  C_15
REMARK    2  A    between atoms: O_2  and  C_17
REMARK    3  A    between atoms: C_14  and  C_16
REMARK    4  A    between atoms: C_18  and  C_19
REMARK                            x       y       z     vdW  Elec       q    Type
REMARK                         _______ _______ _______ _____ _____    ______ ____
ROOT
ATOM      1  O   UNL     1     108.164 125.139 147.333  0.00  0.00    +0.000 OA
ATOM      2  C   UNL     1     106.761 125.086 147.066  0.00  0.00    +0.000 A 
ATOM      3  C   UNL     1     105.825 125.348 148.114  0.00  0.00    +0.000 A 
ATOM      4  C   UNL     1     105.982 125.155 147.327  0.00  0.00    +0.000 A 
ATOM      5  C   UNL     1     107.385 125.209 147.594  0.00  0.00    +0.000 A 
ATOM      6  C   UNL     1     106.448 125.470 148.640  0.00  0.00    +0.000 A 
ATOM      7  C   UNL     1     107.228 125.401 148.380  0.00  0.00    +0.000 A 
ENDROOT
BRANCH   3  11
ATOM      8  O   UNL     1     104.635 126.126 148.263  0.00  0.00    +0.000 OA
ATOM      9  O   UNL     1     103.524 124.213 149.373  0.00  0.00    +0.000 OA
ATOM     10  O   UNL     1     102.220 127.726 148.558  0.00  0.00    +0.000 OA
ATOM     11  C   UNL     1     105.045 125.417 148.374  0.00  0.00    +0.000 C 
ATOM     12  C   UNL     1     104.674 124.780 148.743  0.00  0.00    +0.000 C 
ATOM     13  C   UNL     1     103.895 124.850 149.003  0.00  0.00    +0.000 C 
ATOM     14  C   UNL     1     103.485 125.559 148.892  0.00  0.00    +0.000 A 
ATOM     15  C   UNL     1     103.856 126.196 148.522  0.00  0.00    +0.000 A 
ATOM     16  C   UNL     1     102.673 125.619 149.167  0.00  0.00    +0.000 A 
ATOM     17  C   UNL     1     103.440 126.938 148.401  0.00  0.00    +0.000 A 
ATOM     18  C   UNL     1     102.627 127.017 148.669  0.00  0.00    +0.000 A 
ATOM     19  C   UNL     1     102.241 126.353 149.055  0.00  0.00    +0.000 A 
ENDBRANCH   3  11
BRANCH   2  20
ATOM     20  O   UNL     1     106.918 124.894 146.281  0.00  0.00    +0.000 OA
BRANCH  20  29
ATOM     21  O   UNL     1     106.683 126.153 145.648  0.00  0.00    +0.000 OA
ATOM     22  O   UNL     1     105.348 125.024 143.896  0.00  0.00    +0.000 OA
ATOM     23  O   UNL     1     105.559 126.659 143.847  0.00  0.00    +0.000 OA
ATOM     24  O   UNL     1     106.027 124.141 145.113  0.00  0.00    +0.000 OA
ATOM     25  C   UNL     1     105.793 125.401 144.480  0.00  0.00    +0.000 C 
ATOM     26  C   UNL     1     105.898 126.218 144.455  0.00  0.00    +0.000 C 
ATOM     27  C   UNL     1     106.133 124.958 145.088  0.00  0.00    +0.000 C 
ATOM     28  C   UNL     1     106.344 126.594 145.039  0.00  0.00    +0.000 C 
ATOM     29  C   UNL     1     106.578 125.335 145.672  0.00  0.00    +0.000 C 
BRANCH  28  31
ATOM     30  O   UNL     1     107.193 127.736 145.168  0.00  0.00    +0.000 OA
ATOM     31  C   UNL     1     106.449 127.412 145.015  0.00  0.00    +0.000 C 
ENDBRANCH  28  31
ENDBRANCH  20  29
ENDBRANCH   2  20
TORSDOF 4
ENDMDL
MODEL 7
REMARK VINA RESULT:      -8.9     10.024     12.031
REMARK  Name = 42607822
REMARK  4 active torsions:
REMARK  status: ('A' for Active; 'I' for Inactive)
REMARK    1  A    between atoms: O_2  and  C_15
REMARK    2  A    between atoms: O_2  and  C_17
REMARK    3  A    between atoms: C_14  and  C_16
REMARK    4  A    between atoms: C_18  and  C_19
REMARK                            x       y       z     vdW  Elec       q    Type
REMARK                         _______ _______ _______ _____ _____    ______ ____
ROOT
ATOM      1  O   UNL     1     107.614 125.528 146.689  0.00  0.00    +0.000 OA
ATOM      2  C   UNL     1     106.382 125.312 145.998  0.00  0.00    +0.000 A 
ATOM      3  C   UNL     1     105.281 124.700 146.675  0.00  0.00    +0.000 A 
ATOM      4  C   UNL     1     105.604 125.036 145.994  0.00  0.00    +0.000 A 
ATOM      5  C   UNL     1     106.836 125.252 146.685  0.00  0.00    +0.000 A 
ATOM      6  C   UNL     1     105.736 124.641 147.360  0.00  0.00    +0.000 A 
ATOM      7  C   UNL     1     106.513 124.916 147.366  0.00  0.00    +0.000 A 
ENDROOT
BRANCH   3  11
ATOM      8  O   UNL     1     103.922 124.822 147.100  0.00  0.00    +0.000 OA
ATOM      9  O   UNL     1     103.332 122.805 145.794  0.00  0.00    +0.000 OA
ATOM     10  O   UNL     1     101.157 125.087 147.977  0.00  0.00    +0.000 OA
ATOM     11  C   UNL     1     104.504 124.425 146.669  0.00  0.00    +0.000 C 
ATOM     12  C   UNL     1     104.307 123.753 146.234  0.00  0.00    +0.000 C 
ATOM     13  C   UNL     1     103.530 123.477 146.229  0.00  0.00    +0.000 C 
ATOM     14  C   UNL     1     102.948 123.875 146.660  0.00  0.00    +0.000 A 
ATOM     15  C   UNL     1     103.145 124.547 147.095  0.00  0.00    +0.000 A 
ATOM     16  C   UNL     1     102.141 123.579 146.646  0.00  0.00    +0.000 A 
ATOM     17  C   UNL     1     102.549 124.970 147.547  0.00  0.00    +0.000 A 
ATOM     18  C   UNL     1     101.736 124.688 147.546  0.00  0.00    +0.000 A 
ATOM     19  C   UNL     1     101.532 123.988 147.092  0.00  0.00    +0.000 A 
ENDBRANCH   3  11
BRANCH   2  20
ATOM     20  O   UNL     1     106.704 125.647 145.318  0.00  0.00    +0.000 OA
BRANCH  20  29
ATOM     21  O   UNL     1     106.066 126.925 145.343  0.00  0.00    +0.000 OA
ATOM     22  O   UNL     1     105.580 126.731 142.924  0.00  0.00    +0.000 OA
ATOM     23  O   UNL     1     105.105 128.073 143.755  0.00  0.00    +0.000 OA
ATOM     24  O   UNL     1     106.380 125.517 143.705  0.00  0.00    +0.000 OA
ATOM     25  C   UNL     1     105.742 126.795 143.730  0.00  0.00    +0.000 C 
ATOM     26  C   UNL     1     105.505 127.467 144.145  0.00  0.00    +0.000 C 
ATOM     27  C   UNL     1     106.142 126.188 144.120  0.00  0.00    +0.000 C 
ATOM     28  C   UNL     1     105.666 127.532 144.952  0.00  0.00    +0.000 C 
ATOM     29  C   UNL     1     106.304 126.253 144.927  0.00  0.00    +0.000 C 
BRANCH  28  31
ATOM     30  O   UNL     1     105.943 128.555 145.910  0.00  0.00    +0.000 OA
ATOM     31  C   UNL     1     105.429 128.203 145.368  0.00  0.00    +0.000 C 
ENDBRANCH  28  31
ENDBRANCH  20  29
ENDBRANCH   2  20
TORSDOF 4
ENDMDL
MODEL 8
REMARK VINA RESULT:      -8.9      2.002      3.623
REMARK  Name = 42607822
REMARK  4 active torsions:
REMARK  status: ('A' for Active; 'I' for Inactive)
REMARK    1  A    between atoms: O_2  and  C_15
REMARK    2  A    between atoms: O_2  and  C_17
REMARK    3  A    between atoms: C_14  and  C_16
REMARK    4  A    between atoms: C_18  and  C_19
REMARK                            x       y       z     vdW  Elec       q    Type
REMARK                         _______ _______ _______ _____ _____    ______ ____
ROOT
ATOM      1  O   UNL     1     112.899 128.809 140.497  0.00  0.00    +0.000 OA
ATOM      2  C   UNL     1     113.062 128.288 139.176  0.00  0.00    +0.000 A 
ATOM      3  C   UNL     1     113.255 126.885 138.981  0.00  0.00    +0.000 A 
ATOM      4  C   UNL     1     113.181 127.646 138.672  0.00  0.00    +0.000 A 
ATOM      5  C   UNL     1     113.018 128.168 139.992  0.00  0.00    +0.000 A 
ATOM      6  C   UNL     1     113.212 126.766 139.796  0.00  0.00    +0.000 A 
ATOM      7  C   UNL     1     113.093 127.407 140.302  0.00  0.00    +0.000 A 
ENDROOT
BRANCH   3  11
ATOM      8  O   UNL     1     112.729 125.884 138.108  0.00  0.00    +0.000 OA
ATOM      9  O   UNL     1     115.019 125.042 137.693  0.00  0.00    +0.000 OA
ATOM     10  O   UNL     1     111.637 123.851 136.331  0.00  0.00    +0.000 OA
ATOM     11  C   UNL     1     113.374 126.244 138.476  0.00  0.00    +0.000 C 
ATOM     12  C   UNL     1     114.137 125.964 138.337  0.00  0.00    +0.000 C 
ATOM     13  C   UNL     1     114.255 125.323 137.832  0.00  0.00    +0.000 C 
ATOM     14  C   UNL     1     113.610 124.963 137.464  0.00  0.00    +0.000 A 
ATOM     15  C   UNL     1     112.847 125.244 137.602  0.00  0.00    +0.000 A 
ATOM     16  C   UNL     1     113.746 124.296 136.939  0.00  0.00    +0.000 A 
ATOM     17  C   UNL     1     112.167 124.877 137.226  0.00  0.00    +0.000 A 
ATOM     18  C   UNL     1     112.284 124.209 136.697  0.00  0.00    +0.000 A 
ATOM     19  C   UNL     1     113.079 123.917 136.553  0.00  0.00    +0.000 A 
ENDBRANCH   3  11
BRANCH   2  20
ATOM     20  O   UNL     1     112.987 129.048 138.867  0.00  0.00    +0.000 OA
BRANCH  20  29
ATOM     21  O   UNL     1     111.636 128.978 138.407  0.00  0.00    +0.000 OA
ATOM     22  O   UNL     1     112.289 130.123 136.312  0.00  0.00    +0.000 OA
ATOM     23  O   UNL     1     110.721 129.671 136.551  0.00  0.00    +0.000 OA
ATOM     24  O   UNL     1     113.423 129.811 137.470  0.00  0.00    +0.000 OA
ATOM     25  C   UNL     1     112.071 129.741 137.010  0.00  0.00    +0.000 C 
ATOM     26  C   UNL     1     111.288 129.516 137.129  0.00  0.00    +0.000 C 
ATOM     27  C   UNL     1     112.639 129.586 137.589  0.00  0.00    +0.000 C 
ATOM     28  C   UNL     1     111.070 129.134 137.827  0.00  0.00    +0.000 C 
ATOM     29  C   UNL     1     112.421 129.204 138.287  0.00  0.00    +0.000 C 
BRANCH  28  31
ATOM     30  O   UNL     1     109.926 129.039 138.679  0.00  0.00    +0.000 OA
ATOM     31  C   UNL     1     110.285 128.908 137.947  0.00  0.00    +0.000 C 
ENDBRANCH  28  31
ENDBRANCH  20  29
ENDBRANCH   2  20
TORSDOF 4
ENDMDL
MODEL 9
REMARK VINA RESULT:      -8.9      1.864      3.994
REMARK  Name = 42607822
REMARK  4 active torsions:
REMARK  status: ('A' for Active; 'I' for Inactive)
REMARK    1  A    between atoms: O_2  and  C_15
REMARK    2  A    between atoms: O_2  and  C_17
REMARK    3  A    between atoms: C_14  and  C_16
REMARK    4  A    between atoms: C_18  and  C_19
REMARK                            x       y       z     vdW  Elec       q    Type
REMARK                         _______ _______ _______ _____ _____    ______ ____
ROOT
ATOM      1  O   UNL     1     109.800 126.388 134.612  0.00  0.00    +0.000 OA
ATOM      2  C   UNL     1     110.917 126.626 135.471  0.00  0.00    +0.000 A 
ATOM      3  C   UNL     1     111.553 127.906 135.477  0.00  0.00    +0.000 A 
ATOM      4  C   UNL     1     111.501 127.132 135.759  0.00  0.00    +0.000 A 
ATOM      5  C   UNL     1     110.384 126.894 134.900  0.00  0.00    +0.000 A 
ATOM      6  C   UNL     1     111.020 128.174 134.908  0.00  0.00    +0.000 A 
ATOM      7  C   UNL     1     110.435 127.668 134.619  0.00  0.00    +0.000 A 
ENDROOT
BRANCH   3  11
ATOM      8  O   UNL     1     111.966 128.926 136.389  0.00  0.00    +0.000 OA
ATOM      9  O   UNL     1     114.231 128.900 135.390  0.00  0.00    +0.000 OA
ATOM     10  O   UNL     1     112.791 131.005 138.255  0.00  0.00    +0.000 OA
ATOM     11  C   UNL     1     112.137 128.412 135.766  0.00  0.00    +0.000 C 
ATOM     12  C   UNL     1     112.892 128.403 135.434  0.00  0.00    +0.000 C 
ATOM     13  C   UNL     1     113.475 128.908 135.723  0.00  0.00    +0.000 C 
ATOM     14  C   UNL     1     113.304 129.423 136.346  0.00  0.00    +0.000 A 
ATOM     15  C   UNL     1     112.550 129.432 136.678  0.00  0.00    +0.000 A 
ATOM     16  C   UNL     1     113.922 129.945 136.638  0.00  0.00    +0.000 A 
ATOM     17  C   UNL     1     112.360 129.962 137.326  0.00  0.00    +0.000 A 
ATOM     18  C   UNL     1     112.964 130.492 137.633  0.00  0.00    +0.000 A 
ATOM     19  C   UNL     1     113.750 130.483 137.286  0.00  0.00    +0.000 A 
ENDBRANCH   3  11
BRANCH   2  20
ATOM     20  O   UNL     1     110.865 125.853 135.752  0.00  0.00    +0.000 OA
BRANCH  20  29
ATOM     21  O   UNL     1     110.309 126.127 137.040  0.00  0.00    +0.000 OA
ATOM     22  O   UNL     1     111.823 124.449 138.050  0.00  0.00    +0.000 OA
ATOM     23  O   UNL     1     110.763 125.282 139.000  0.00  0.00    +0.000 OA
ATOM     24  O   UNL     1     111.875 124.735 136.425  0.00  0.00    +0.000 OA
ATOM     25  C   UNL     1     111.319 125.009 137.713  0.00  0.00    +0.000 C 
ATOM     26  C   UNL     1     110.789 125.425 138.188  0.00  0.00    +0.000 C 
ATOM     27  C   UNL     1     111.345 125.151 136.901  0.00  0.00    +0.000 C 
ATOM     28  C   UNL     1     110.284 125.984 137.852  0.00  0.00    +0.000 C 
ATOM     29  C   UNL     1     110.840 125.710 136.564  0.00  0.00    +0.000 C 
BRANCH  28  31
ATOM     30  O   UNL     1     108.964 126.474 138.096  0.00  0.00    +0.000 OA
ATOM     31  C   UNL     1     109.754 126.400 138.326  0.00  0.00    +0.000 C 
ENDBRANCH  28  31
ENDBRANCH  20  29
ENDBRANCH   2  20
TORSDOF 4
ENDMDL
MODEL 10
REMARK VINA RESULT:      -8.9      1.232      2.283
REMARK  Name = 42607822
REMARK  4 active torsions:
REMARK  status: ('A' for Active; 'I' for Inactive)
REMARK    1  A    between atoms: O_2  and  C_15
REMARK    2  A    between atoms: O_2  and  C_17
REMARK    3  A    between atoms: C_14  and  C_16
REMARK    4  A    between atoms: C_18  and  C_19
REMARK                            x       y       z     vdW  Elec       q    Type
REMARK                         _______ _______ _______ _____ _____    ______ ____
ROOT
ATOM      1  O   UNL     1     109.294 127.947 139.078  0.00  0.00    +0.000 OA
ATOM      2  C   UNL     1     110.367 127.709 138.165  0.00  0.00    +0.000 A 
ATOM      3  C   UNL     1     110.886 126.387 138.002  0.00  0.00    +0.000 A 
ATOM      4  C   UNL     1     110.897 127.189 137.806  0.00  0.00    +0.000 A 
ATOM      5  C   UNL     1     109.825 127.427 138.720  0.00  0.00    +0.000 A 
ATOM      6  C   UNL     1     110.344 126.106 138.556  0.00  0.00    +0.000 A 
ATOM      7  C   UNL     1     109.813 126.626 138.915  0.00  0.00    +0.000 A 
ENDROOT
BRANCH   3  11
ATOM      8  O   UNL     1     112.215 125.883 137.853  0.00  0.00    +0.000 OA
ATOM      9  O   UNL     1     111.416 124.281 136.144  0.00  0.00    +0.000 OA
ATOM     10  O   UNL     1     114.930 124.869 137.565  0.00  0.00    +0.000 OA
ATOM     11  C   UNL     1     111.417 125.868 137.642  0.00  0.00    +0.000 C 
ATOM     12  C   UNL     1     111.151 125.334 137.073  0.00  0.00    +0.000 C 
ATOM     13  C   UNL     1     111.682 124.816 136.714  0.00  0.00    +0.000 C 
ATOM     14  C   UNL     1     112.480 124.831 136.925  0.00  0.00    +0.000 A 
ATOM     15  C   UNL     1     112.746 125.364 137.495  0.00  0.00    +0.000 A 
ATOM     16  C   UNL     1     113.024 124.285 136.544  0.00  0.00    +0.000 A 
ATOM     17  C   UNL     1     113.574 125.390 137.722  0.00  0.00    +0.000 A 
ATOM     18  C   UNL     1     114.133 124.851 137.352  0.00  0.00    +0.000 A 
ATOM     19  C   UNL     1     113.855 124.295 136.759  0.00  0.00    +0.000 A 
ENDBRANCH   3  11
BRANCH   2  20
ATOM     20  O   UNL     1     110.378 128.509 137.970  0.00  0.00    +0.000 OA
BRANCH  20  29
ATOM     21  O   UNL     1     109.623 128.470 136.757  0.00  0.00    +0.000 OA
ATOM     22  O   UNL     1     111.253 129.999 135.692  0.00  0.00    +0.000 OA
ATOM     23  O   UNL     1     109.955 129.450 134.836  0.00  0.00    +0.000 OA
ATOM     24  O   UNL     1     111.465 129.528 137.260  0.00  0.00    +0.000 OA
ATOM     25  C   UNL     1     110.710 129.489 136.047  0.00  0.00    +0.000 C 
ATOM     26  C   UNL     1     110.061 129.215 135.619  0.00  0.00    +0.000 C 
ATOM     27  C   UNL     1     110.816 129.254 136.831  0.00  0.00    +0.000 C 
ATOM     28  C   UNL     1     109.518 128.706 135.974  0.00  0.00    +0.000 C 
ATOM     29  C   UNL     1     110.273 128.745 137.186  0.00  0.00    +0.000 C 
BRANCH  28  31
ATOM     30  O   UNL     1     108.109 128.496 135.863  0.00  0.00    +0.000 OA
ATOM     31  C   UNL     1     108.868 128.432 135.545  0.00  0.00    +0.000 C 
ENDBRANCH  28  31
ENDBRANCH  20  29
ENDBRANCH   2  20
TORSDOF 4
ENDMDL
