MODEL 1
REMARK VINA RESULT:     -10.0      0.000      0.000
REMARK  Name = 42607895
REMARK  6 active torsions:
REMARK  status: ('A' for Active; 'I' for Inactive)
REMARK    1  A    between atoms: O_2  and  C_15
REMARK    2  A    between atoms: O_2  and  C_17
REMARK    3  A    between atoms: C_14  and  C_16
REMARK    4  A    between atoms: C_18  and  C_24
REMARK    5  A    between atoms: C_20  and  C_27
REMARK    6  A    between atoms: C_24  and  C_28
REMARK                            x       y       z     vdW  Elec       q    Type
REMARK                         _______ _______ _______ _____ _____    ______ ____
ROOT
ATOM      1  O   UNL     1     112.617 127.099 136.369  0.00  0.00    +0.000 OA
ATOM      2  O   UNL     1     112.740 129.923 135.743  0.00  0.00    +0.000 OA
ATOM      3  O   UNL     1     113.949 129.241 136.138  0.00  0.00    +0.000 OA
ATOM      4  C   UNL     1     111.058 128.533 135.732  0.00  0.00    +0.000 A 
ATOM      5  C   UNL     1     111.431 127.834 135.967  0.00  0.00    +0.000 A 
ATOM      6  C   UNL     1     112.240 127.833 136.126  0.00  0.00    +0.000 A 
ATOM      7  C   UNL     1     113.459 127.092 136.537  0.00  0.00    +0.000 C 
ATOM      8  C   UNL     1     112.676 128.529 136.052  0.00  0.00    +0.000 A 
ATOM      9  C   UNL     1     113.914 127.817 136.460  0.00  0.00    +0.000 C 
ATOM     10  C   UNL     1     111.495 129.228 135.658  0.00  0.00    +0.000 A 
ATOM     11  C   UNL     1     113.520 128.540 136.215  0.00  0.00    +0.000 C 
ATOM     12  C   UNL     1     112.304 129.227 135.818  0.00  0.00    +0.000 A 
ENDROOT
BRANCH   7  14
ATOM     13  O   UNL     1     114.941 124.296 137.472  0.00  0.00    +0.000 OA
ATOM     14  C   UNL     1     113.830 126.393 136.771  0.00  0.00    +0.000 A 
ATOM     15  C   UNL     1     113.796 126.152 137.559  0.00  0.00    +0.000 A 
ATOM     16  C   UNL     1     114.234 125.935 136.217  0.00  0.00    +0.000 A 
ATOM     17  C   UNL     1     114.166 125.452 137.793  0.00  0.00    +0.000 A 
ATOM     18  C   UNL     1     114.605 125.236 136.450  0.00  0.00    +0.000 A 
ATOM     19  C   UNL     1     114.571 124.995 137.238  0.00  0.00    +0.000 A 
ENDBRANCH   7  14
BRANCH   4  20
ATOM     20  O   UNL     1     110.248 128.534 135.573  0.00  0.00    +0.000 OA
BRANCH  20  29
ATOM     21  O   UNL     1     109.770 129.232 136.724  0.00  0.00    +0.000 OA
ATOM     22  O   UNL     1     108.292 130.597 135.283  0.00  0.00    +0.000 OA
ATOM     23  O   UNL     1     108.307 130.839 136.915  0.00  0.00    +0.000 OA
ATOM     24  O   UNL     1     109.263 129.444 134.612  0.00  0.00    +0.000 OA
ATOM     25  C   UNL     1     108.784 130.142 135.764  0.00  0.00    +0.000 C 
ATOM     26  C   UNL     1     108.792 130.263 136.580  0.00  0.00    +0.000 C 
ATOM     27  C   UNL     1     109.270 129.565 135.428  0.00  0.00    +0.000 C 
ATOM     28  C   UNL     1     109.285 129.808 137.060  0.00  0.00    +0.000 C 
ATOM     29  C   UNL     1     109.763 129.110 135.908  0.00  0.00    +0.000 C 
BRANCH  28  31
ATOM     30  O   UNL     1     109.267 129.284 138.389  0.00  0.00    +0.000 OA
ATOM     31  C   UNL     1     109.292 129.929 137.875  0.00  0.00    +0.000 C 
ENDBRANCH  28  31
ENDBRANCH  20  29
ENDBRANCH   4  20
BRANCH   5  32
ATOM     32  C   UNL     1     110.994 127.139 136.041  0.00  0.00    +0.000 C 
BRANCH  32  33
ATOM     33  C   UNL     1     110.848 126.670 135.378  0.00  0.00    +0.000 C 
ATOM     34  C   UNL     1     110.443 125.956 135.460  0.00  0.00    +0.000 C 
ATOM     35  C   UNL     1     110.297 125.487 134.797  0.00  0.00    +0.000 C 
ATOM     36  C   UNL     1     110.183 125.711 136.203  0.00  0.00    +0.000 C 
ENDBRANCH  32  33
ENDBRANCH   5  32
TORSDOF 6
ENDMDL
MODEL 2
REMARK VINA RESULT:      -9.5      2.068      3.599
REMARK  Name = 42607895
REMARK  6 active torsions:
REMARK  status: ('A' for Active; 'I' for Inactive)
REMARK    1  A    between atoms: O_2  and  C_15
REMARK    2  A    between atoms: O_2  and  C_17
REMARK    3  A    between atoms: C_14  and  C_16
REMARK    4  A    between atoms: C_18  and  C_24
REMARK    5  A    between atoms: C_20  and  C_27
REMARK    6  A    between atoms: C_24  and  C_28
REMARK                            x       y       z     vdW  Elec       q    Type
REMARK                         _______ _______ _______ _____ _____    ______ ____
ROOT
ATOM      1  O   UNL     1     110.438 128.162 135.995  0.00  0.00    +0.000 OA
ATOM      2  O   UNL     1     108.188 129.982 135.908  0.00  0.00    +0.000 OA
ATOM      3  O   UNL     1     107.951 128.568 135.741  0.00  0.00    +0.000 OA
ATOM      4  C   UNL     1     110.318 130.362 136.196  0.00  0.00    +0.000 A 
ATOM      5  C   UNL     1     110.620 129.594 136.157  0.00  0.00    +0.000 A 
ATOM      6  C   UNL     1     110.111 128.956 136.034  0.00  0.00    +0.000 A 
ATOM      7  C   UNL     1     109.913 127.495 135.868  0.00  0.00    +0.000 C 
ATOM      8  C   UNL     1     109.301 129.086 135.951  0.00  0.00    +0.000 A 
ATOM      9  C   UNL     1     109.069 127.629 135.781  0.00  0.00    +0.000 C 
ATOM     10  C   UNL     1     109.508 130.490 136.113  0.00  0.00    +0.000 A 
ATOM     11  C   UNL     1     108.761 128.430 135.824  0.00  0.00    +0.000 C 
ATOM     12  C   UNL     1     108.999 129.852 135.991  0.00  0.00    +0.000 A 
ENDROOT
BRANCH   7  14
ATOM     13  O   UNL     1     111.131 124.432 135.711  0.00  0.00    +0.000 OA
ATOM     14  C   UNL     1     110.218 126.729 135.829  0.00  0.00    +0.000 A 
ATOM     15  C   UNL     1     110.413 126.327 136.522  0.00  0.00    +0.000 A 
ATOM     16  C   UNL     1     110.327 126.365 135.096  0.00  0.00    +0.000 A 
ATOM     17  C   UNL     1     110.717 125.561 136.483  0.00  0.00    +0.000 A 
ATOM     18  C   UNL     1     110.631 125.600 135.057  0.00  0.00    +0.000 A 
ATOM     19  C   UNL     1     110.827 125.198 135.750  0.00  0.00    +0.000 A 
ENDBRANCH   7  14
BRANCH   4  20
ATOM     20  O   UNL     1     110.827 131.000 136.319  0.00  0.00    +0.000 OA
BRANCH  20  29
ATOM     21  O   UNL     1     110.503 131.348 137.666  0.00  0.00    +0.000 OA
ATOM     22  O   UNL     1     110.372 133.733 137.018  0.00  0.00    +0.000 OA
ATOM     23  O   UNL     1     110.092 133.286 138.581  0.00  0.00    +0.000 OA
ATOM     24  O   UNL     1     110.740 132.590 135.887  0.00  0.00    +0.000 OA
ATOM     25  C   UNL     1     110.416 132.938 137.234  0.00  0.00    +0.000 C 
ATOM     26  C   UNL     1     110.275 132.714 138.016  0.00  0.00    +0.000 C 
ATOM     27  C   UNL     1     110.600 132.366 136.668  0.00  0.00    +0.000 C 
ATOM     28  C   UNL     1     110.319 131.919 138.232  0.00  0.00    +0.000 C 
ATOM     29  C   UNL     1     110.643 131.571 136.884  0.00  0.00    +0.000 C 
BRANCH  28  31
ATOM     30  O   UNL     1     110.735 131.242 139.420  0.00  0.00    +0.000 OA
ATOM     31  C   UNL     1     110.178 131.696 139.013  0.00  0.00    +0.000 C 
ENDBRANCH  28  31
ENDBRANCH  20  29
ENDBRANCH   4  20
BRANCH   5  32
ATOM     32  C   UNL     1     111.431 129.466 136.240  0.00  0.00    +0.000 C 
BRANCH  32  33
ATOM     33  C   UNL     1     111.923 129.494 135.579  0.00  0.00    +0.000 C 
ATOM     34  C   UNL     1     112.728 129.331 135.657  0.00  0.00    +0.000 C 
ATOM     35  C   UNL     1     113.221 129.359 134.996  0.00  0.00    +0.000 C 
ATOM     36  C   UNL     1     113.041 129.140 136.396  0.00  0.00    +0.000 C 
ENDBRANCH  32  33
ENDBRANCH   5  32
TORSDOF 6
ENDMDL
MODEL 3
REMARK VINA RESULT:      -9.5      0.918      2.259
REMARK  Name = 42607895
REMARK  6 active torsions:
REMARK  status: ('A' for Active; 'I' for Inactive)
REMARK    1  A    between atoms: O_2  and  C_15
REMARK    2  A    between atoms: O_2  and  C_17
REMARK    3  A    between atoms: C_14  and  C_16
REMARK    4  A    between atoms: C_18  and  C_24
REMARK    5  A    between atoms: C_20  and  C_27
REMARK    6  A    between atoms: C_24  and  C_28
REMARK                            x       y       z     vdW  Elec       q    Type
REMARK                         _______ _______ _______ _____ _____    ______ ____
ROOT
ATOM      1  O   UNL     1     112.390 126.803 136.366  0.00  0.00    +0.000 OA
ATOM      2  O   UNL     1     109.660 126.490 135.454  0.00  0.00    +0.000 OA
ATOM      3  O   UNL     1     110.417 125.315 135.814  0.00  0.00    +0.000 OA
ATOM      4  C   UNL     1     110.877 128.282 135.720  0.00  0.00    +0.000 A 
ATOM      5  C   UNL     1     111.584 127.952 135.991  0.00  0.00    +0.000 A 
ATOM      6  C   UNL     1     111.649 127.135 136.083  0.00  0.00    +0.000 A 
ATOM      7  C   UNL     1     112.463 125.953 136.464  0.00  0.00    +0.000 C 
ATOM      8  C   UNL     1     111.007 126.648 135.904  0.00  0.00    +0.000 A 
ATOM      9  C   UNL     1     111.795 125.445 136.277  0.00  0.00    +0.000 C 
ATOM     10  C   UNL     1     110.237 127.794 135.541  0.00  0.00    +0.000 A 
ATOM     11  C   UNL     1     111.063 125.795 135.996  0.00  0.00    +0.000 C 
ATOM     12  C   UNL     1     110.302 126.977 135.633  0.00  0.00    +0.000 A 
ENDROOT
BRANCH   7  14
ATOM     13  O   UNL     1     115.292 124.644 137.547  0.00  0.00    +0.000 OA
ATOM     14  C   UNL     1     113.170 125.626 136.735  0.00  0.00    +0.000 A 
ATOM     15  C   UNL     1     113.340 125.622 137.542  0.00  0.00    +0.000 A 
ATOM     16  C   UNL     1     113.707 125.302 136.199  0.00  0.00    +0.000 A 
ATOM     17  C   UNL     1     114.048 125.295 137.813  0.00  0.00    +0.000 A 
ATOM     18  C   UNL     1     114.414 124.975 136.469  0.00  0.00    +0.000 A 
ATOM     19  C   UNL     1     114.584 124.971 137.276  0.00  0.00    +0.000 A 
ENDBRANCH   7  14
BRANCH   4  20
ATOM     20  O   UNL     1     110.813 129.099 135.628  0.00  0.00    +0.000 OA
BRANCH  20  29
ATOM     21  O   UNL     1     109.976 129.458 136.730  0.00  0.00    +0.000 OA
ATOM     22  O   UNL     1     108.530 130.767 135.206  0.00  0.00    +0.000 OA
ATOM     23  O   UNL     1     108.176 130.689 136.815  0.00  0.00    +0.000 OA
ATOM     24  O   UNL     1     109.849 129.972 134.612  0.00  0.00    +0.000 OA
ATOM     25  C   UNL     1     109.012 130.330 135.714  0.00  0.00    +0.000 C 
ATOM     26  C   UNL     1     108.835 130.291 136.519  0.00  0.00    +0.000 C 
ATOM     27  C   UNL     1     109.672 129.933 135.417  0.00  0.00    +0.000 C 
ATOM     28  C   UNL     1     109.317 129.855 137.027  0.00  0.00    +0.000 C 
ATOM     29  C   UNL     1     110.154 129.496 135.925  0.00  0.00    +0.000 C 
BRANCH  28  31
ATOM     30  O   UNL     1     109.747 129.832 138.389  0.00  0.00    +0.000 OA
ATOM     31  C   UNL     1     109.140 129.816 137.831  0.00  0.00    +0.000 C 
ENDBRANCH  28  31
ENDBRANCH  20  29
ENDBRANCH   4  20
BRANCH   5  32
ATOM     32  C   UNL     1     112.225 128.440 136.170  0.00  0.00    +0.000 C 
BRANCH  32  33
ATOM     33  C   UNL     1     112.761 128.650 135.580  0.00  0.00    +0.000 C 
ATOM     34  C   UNL     1     113.421 129.108 135.767  0.00  0.00    +0.000 C 
ATOM     35  C   UNL     1     113.958 129.318 135.177  0.00  0.00    +0.000 C 
ATOM     36  C   UNL     1     113.545 129.357 136.543  0.00  0.00    +0.000 C 
ENDBRANCH  32  33
ENDBRANCH   5  32
TORSDOF 6
ENDMDL
MODEL 4
REMARK VINA RESULT:      -9.5      3.193      5.481
REMARK  Name = 42607895
REMARK  6 active torsions:
REMARK  status: ('A' for Active; 'I' for Inactive)
REMARK    1  A    between atoms: O_2  and  C_15
REMARK    2  A    between atoms: O_2  and  C_17
REMARK    3  A    between atoms: C_14  and  C_16
REMARK    4  A    between atoms: C_18  and  C_24
REMARK    5  A    between atoms: C_20  and  C_27
REMARK    6  A    between atoms: C_24  and  C_28
REMARK                            x       y       z     vdW  Elec       q    Type
REMARK                         _______ _______ _______ _____ _____    ______ ____
ROOT
ATOM      1  O   UNL     1     113.477 128.593 139.605  0.00  0.00    +0.000 OA
ATOM      2  O   UNL     1     112.277 126.109 140.483  0.00  0.00    +0.000 OA
ATOM      3  O   UNL     1     112.828 127.007 141.470  0.00  0.00    +0.000 OA
ATOM      4  C   UNL     1     112.526 126.942 138.481  0.00  0.00    +0.000 A 
ATOM      5  C   UNL     1     112.908 127.653 138.655  0.00  0.00    +0.000 A 
ATOM      6  C   UNL     1     113.079 127.849 139.438  0.00  0.00    +0.000 A 
ATOM      7  C   UNL     1     113.658 128.802 140.418  0.00  0.00    +0.000 C 
ATOM      8  C   UNL     1     112.869 127.334 140.047  0.00  0.00    +0.000 A 
ATOM      9  C   UNL     1     113.439 128.266 141.053  0.00  0.00    +0.000 C 
ATOM     10  C   UNL     1     112.316 126.428 139.091  0.00  0.00    +0.000 A 
ATOM     11  C   UNL     1     113.042 127.527 140.866  0.00  0.00    +0.000 C 
ATOM     12  C   UNL     1     112.487 126.624 139.874  0.00  0.00    +0.000 A 
ENDROOT
BRANCH   7  14
ATOM     13  O   UNL     1     115.185 131.647 141.100  0.00  0.00    +0.000 OA
ATOM     14  C   UNL     1     114.039 129.513 140.589  0.00  0.00    +0.000 A 
ATOM     15  C   UNL     1     113.617 130.139 140.922  0.00  0.00    +0.000 A 
ATOM     16  C   UNL     1     114.844 129.599 140.426  0.00  0.00    +0.000 A 
ATOM     17  C   UNL     1     113.998 130.850 141.092  0.00  0.00    +0.000 A 
ATOM     18  C   UNL     1     115.226 130.310 140.596  0.00  0.00    +0.000 A 
ATOM     19  C   UNL     1     114.803 130.935 140.929  0.00  0.00    +0.000 A 
ENDBRANCH   7  14
BRANCH   4  20
ATOM     20  O   UNL     1     112.355 126.746 137.698  0.00  0.00    +0.000 OA
BRANCH  20  29
ATOM     21  O   UNL     1     113.271 125.668 137.497  0.00  0.00    +0.000 OA
ATOM     22  O   UNL     1     111.476 124.343 136.426  0.00  0.00    +0.000 OA
ATOM     23  O   UNL     1     112.990 123.707 136.582  0.00  0.00    +0.000 OA
ATOM     24  O   UNL     1     111.158 125.863 136.984  0.00  0.00    +0.000 OA
ATOM     25  C   UNL     1     112.074 124.785 136.783  0.00  0.00    +0.000 C 
ATOM     26  C   UNL     1     112.832 124.467 136.861  0.00  0.00    +0.000 C 
ATOM     27  C   UNL     1     111.915 125.545 137.062  0.00  0.00    +0.000 C 
ATOM     28  C   UNL     1     113.430 124.909 137.218  0.00  0.00    +0.000 C 
ATOM     29  C   UNL     1     112.514 125.987 137.419  0.00  0.00    +0.000 C 
BRANCH  28  31
ATOM     30  O   UNL     1     114.849 125.061 137.152  0.00  0.00    +0.000 OA
ATOM     31  C   UNL     1     114.187 124.591 137.296  0.00  0.00    +0.000 C 
ENDBRANCH  28  31
ENDBRANCH  20  29
ENDBRANCH   4  20
BRANCH   5  32
ATOM     32  C   UNL     1     113.118 128.168 138.045  0.00  0.00    +0.000 C 
BRANCH  32  33
ATOM     33  C   UNL     1     112.578 128.729 137.773  0.00  0.00    +0.000 C 
ATOM     34  C   UNL     1     112.796 129.256 137.177  0.00  0.00    +0.000 C 
ATOM     35  C   UNL     1     112.255 129.817 136.905  0.00  0.00    +0.000 C 
ATOM     36  C   UNL     1     113.553 129.222 136.852  0.00  0.00    +0.000 C 
ENDBRANCH  32  33
ENDBRANCH   5  32
TORSDOF 6
ENDMDL
MODEL 5
REMARK VINA RESULT:      -9.3      7.079     10.941
REMARK  Name = 42607895
REMARK  6 active torsions:
REMARK  status: ('A' for Active; 'I' for Inactive)
REMARK    1  A    between atoms: O_2  and  C_15
REMARK    2  A    between atoms: O_2  and  C_17
REMARK    3  A    between atoms: C_14  and  C_16
REMARK    4  A    between atoms: C_18  and  C_24
REMARK    5  A    between atoms: C_20  and  C_27
REMARK    6  A    between atoms: C_24  and  C_28
REMARK                            x       y       z     vdW  Elec       q    Type
REMARK                         _______ _______ _______ _____ _____    ______ ____
ROOT
ATOM      1  O   UNL     1     103.358 130.405 142.141  0.00  0.00    +0.000 OA
ATOM      2  O   UNL     1     103.989 127.956 140.733  0.00  0.00    +0.000 OA
ATOM      3  O   UNL     1     102.977 128.832 140.193  0.00  0.00    +0.000 OA
ATOM      4  C   UNL     1     104.804 128.790 142.578  0.00  0.00    +0.000 A 
ATOM      5  C   UNL     1     104.368 129.488 142.639  0.00  0.00    +0.000 A 
ATOM      6  C   UNL     1     103.806 129.675 142.065  0.00  0.00    +0.000 A 
ATOM      7  C   UNL     1     102.771 130.605 141.547  0.00  0.00    +0.000 C 
ATOM      8  C   UNL     1     103.680 129.164 141.430  0.00  0.00    +0.000 A 
ATOM      9  C   UNL     1     102.639 130.073 140.884  0.00  0.00    +0.000 C 
ATOM     10  C   UNL     1     104.678 128.280 141.942  0.00  0.00    +0.000 A 
ATOM     11  C   UNL     1     103.097 129.348 140.826  0.00  0.00    +0.000 C 
ATOM     12  C   UNL     1     104.115 128.467 141.368  0.00  0.00    +0.000 A 
ENDROOT
BRANCH   7  14
ATOM     13  O   UNL     1     101.032 133.397 141.804  0.00  0.00    +0.000 OA
ATOM     14  C   UNL     1     102.336 131.303 141.611  0.00  0.00    +0.000 A 
ATOM     15  C   UNL     1     102.665 132.018 141.362  0.00  0.00    +0.000 A 
ATOM     16  C   UNL     1     101.574 131.287 141.924  0.00  0.00    +0.000 A 
ATOM     17  C   UNL     1     102.230 132.716 141.426  0.00  0.00    +0.000 A 
ATOM     18  C   UNL     1     101.138 131.984 141.989  0.00  0.00    +0.000 A 
ATOM     19  C   UNL     1     101.467 132.699 141.740  0.00  0.00    +0.000 A 
ENDBRANCH   7  14
BRANCH   4  20
ATOM     20  O   UNL     1     105.367 128.603 143.151  0.00  0.00    +0.000 OA
BRANCH  20  29
ATOM     21  O   UNL     1     106.583 128.722 142.411  0.00  0.00    +0.000 OA
ATOM     22  O   UNL     1     107.331 126.531 143.285  0.00  0.00    +0.000 OA
ATOM     23  O   UNL     1     108.297 127.380 142.253  0.00  0.00    +0.000 OA
ATOM     24  O   UNL     1     105.865 127.142 143.734  0.00  0.00    +0.000 OA
ATOM     25  C   UNL     1     107.081 127.261 142.993  0.00  0.00    +0.000 C 
ATOM     26  C   UNL     1     107.564 127.686 142.477  0.00  0.00    +0.000 C 
ATOM     27  C   UNL     1     106.348 127.567 143.218  0.00  0.00    +0.000 C 
ATOM     28  C   UNL     1     107.315 128.417 142.186  0.00  0.00    +0.000 C 
ATOM     29  C   UNL     1     106.099 128.298 142.927  0.00  0.00    +0.000 C 
BRANCH  28  31
ATOM     30  O   UNL     1     107.478 129.183 140.990  0.00  0.00    +0.000 OA
ATOM     31  C   UNL     1     107.798 128.841 141.670  0.00  0.00    +0.000 C 
ENDBRANCH  28  31
ENDBRANCH  20  29
ENDBRANCH   4  20
BRANCH   5  32
ATOM     32  C   UNL     1     104.495 129.998 143.275  0.00  0.00    +0.000 C 
BRANCH  32  33
ATOM     33  C   UNL     1     104.095 129.878 143.987  0.00  0.00    +0.000 C 
ATOM     34  C   UNL     1     104.201 130.406 144.612  0.00  0.00    +0.000 C 
ATOM     35  C   UNL     1     103.801 130.286 145.324  0.00  0.00    +0.000 C 
ATOM     36  C   UNL     1     104.705 131.052 144.527  0.00  0.00    +0.000 C 
ENDBRANCH  32  33
ENDBRANCH   5  32
TORSDOF 6
ENDMDL
MODEL 6
REMARK VINA RESULT:      -9.2      0.990      5.052
REMARK  Name = 42607895
REMARK  6 active torsions:
REMARK  status: ('A' for Active; 'I' for Inactive)
REMARK    1  A    between atoms: O_2  and  C_15
REMARK    2  A    between atoms: O_2  and  C_17
REMARK    3  A    between atoms: C_14  and  C_16
REMARK    4  A    between atoms: C_18  and  C_24
REMARK    5  A    between atoms: C_20  and  C_27
REMARK    6  A    between atoms: C_24  and  C_28
REMARK                            x       y       z     vdW  Elec       q    Type
REMARK                         _______ _______ _______ _____ _____    ______ ____
ROOT
ATOM      1  O   UNL     1     111.171 128.664 135.805  0.00  0.00    +0.000 OA
ATOM      2  O   UNL     1     114.042 128.949 136.040  0.00  0.00    +0.000 OA
ATOM      3  O   UNL     1     113.240 130.124 135.795  0.00  0.00    +0.000 OA
ATOM      4  C   UNL     1     112.769 127.180 136.171  0.00  0.00    +0.000 A 
ATOM      5  C   UNL     1     112.024 127.515 136.051  0.00  0.00    +0.000 A 
ATOM      6  C   UNL     1     111.952 128.328 135.928  0.00  0.00    +0.000 A 
ATOM      7  C   UNL     1     111.089 129.509 135.677  0.00  0.00    +0.000 C 
ATOM      8  C   UNL     1     112.625 128.805 135.924  0.00  0.00    +0.000 A 
ATOM      9  C   UNL     1     111.789 130.008 135.672  0.00  0.00    +0.000 C 
ATOM     10  C   UNL     1     113.441 127.659 136.167  0.00  0.00    +0.000 A 
ATOM     11  C   UNL     1     112.563 129.653 135.797  0.00  0.00    +0.000 C 
ATOM     12  C   UNL     1     113.369 128.471 136.044  0.00  0.00    +0.000 A 
ENDROOT
BRANCH   7  14
ATOM     13  O   UNL     1     108.106 130.837 135.200  0.00  0.00    +0.000 OA
ATOM     14  C   UNL     1     110.343 129.841 135.558  0.00  0.00    +0.000 A 
ATOM     15  C   UNL     1     109.864 130.021 136.204  0.00  0.00    +0.000 A 
ATOM     16  C   UNL     1     110.077 129.994 134.792  0.00  0.00    +0.000 A 
ATOM     17  C   UNL     1     109.118 130.353 136.085  0.00  0.00    +0.000 A 
ATOM     18  C   UNL     1     109.332 130.326 134.672  0.00  0.00    +0.000 A 
ATOM     19  C   UNL     1     108.852 130.505 135.319  0.00  0.00    +0.000 A 
ENDBRANCH   7  14
BRANCH   4  20
ATOM     20  O   UNL     1     112.842 126.368 136.294  0.00  0.00    +0.000 OA
BRANCH  20  29
ATOM     21  O   UNL     1     113.288 126.350 137.651  0.00  0.00    +0.000 OA
ATOM     22  O   UNL     1     115.028 124.693 137.056  0.00  0.00    +0.000 OA
ATOM     23  O   UNL     1     114.895 125.227 138.611  0.00  0.00    +0.000 OA
ATOM     24  O   UNL     1     114.002 125.263 135.897  0.00  0.00    +0.000 OA
ATOM     25  C   UNL     1     114.448 125.245 137.255  0.00  0.00    +0.000 C 
ATOM     26  C   UNL     1     114.381 125.512 138.032  0.00  0.00    +0.000 C 
ATOM     27  C   UNL     1     113.935 125.531 136.675  0.00  0.00    +0.000 C 
ATOM     28  C   UNL     1     113.801 126.065 138.230  0.00  0.00    +0.000 C 
ATOM     29  C   UNL     1     113.355 126.083 136.873  0.00  0.00    +0.000 C 
BRANCH  28  31
ATOM     30  O   UNL     1     112.994 126.374 139.368  0.00  0.00    +0.000 OA
ATOM     31  C   UNL     1     113.735 126.331 139.007  0.00  0.00    +0.000 C 
ENDBRANCH  28  31
ENDBRANCH  20  29
ENDBRANCH   4  20
BRANCH   5  32
ATOM     32  C   UNL     1     111.352 127.037 136.055  0.00  0.00    +0.000 C 
BRANCH  32  33
ATOM     33  C   UNL     1     111.101 126.671 135.360  0.00  0.00    +0.000 C 
ATOM     34  C   UNL     1     110.410 126.220 135.357  0.00  0.00    +0.000 C 
ATOM     35  C   UNL     1     110.159 125.855 134.662  0.00  0.00    +0.000 C 
ATOM     36  C   UNL     1     109.971 126.135 136.049  0.00  0.00    +0.000 C 
ENDBRANCH  32  33
ENDBRANCH   5  32
TORSDOF 6
ENDMDL
MODEL 7
REMARK VINA RESULT:      -9.0      3.086      5.410
REMARK  Name = 42607895
REMARK  6 active torsions:
REMARK  status: ('A' for Active; 'I' for Inactive)
REMARK    1  A    between atoms: O_2  and  C_15
REMARK    2  A    between atoms: O_2  and  C_17
REMARK    3  A    between atoms: C_14  and  C_16
REMARK    4  A    between atoms: C_18  and  C_24
REMARK    5  A    between atoms: C_20  and  C_27
REMARK    6  A    between atoms: C_24  and  C_28
REMARK                            x       y       z     vdW  Elec       q    Type
REMARK                         _______ _______ _______ _____ _____    ______ ____
ROOT
ATOM      1  O   UNL     1     113.423 128.780 139.411  0.00  0.00    +0.000 OA
ATOM      2  O   UNL     1     112.671 128.429 136.637  0.00  0.00    +0.000 OA
ATOM      3  O   UNL     1     113.179 129.710 137.067  0.00  0.00    +0.000 OA
ATOM      4  C   UNL     1     112.614 127.037 138.317  0.00  0.00    +0.000 A 
ATOM      5  C   UNL     1     112.906 127.513 138.925  0.00  0.00    +0.000 A 
ATOM      6  C   UNL     1     113.120 128.295 138.770  0.00  0.00    +0.000 A 
ATOM      7  C   UNL     1     113.647 129.595 139.255  0.00  0.00    +0.000 C 
ATOM      8  C   UNL     1     113.041 128.600 138.007  0.00  0.00    +0.000 A 
ATOM      9  C   UNL     1     113.566 129.913 138.461  0.00  0.00    +0.000 C 
ATOM     10  C   UNL     1     112.536 127.342 137.555  0.00  0.00    +0.000 A 
ATOM     11  C   UNL     1     113.261 129.412 137.833  0.00  0.00    +0.000 C 
ATOM     12  C   UNL     1     112.750 128.124 137.400  0.00  0.00    +0.000 A 
ENDROOT
BRANCH   7  14
ATOM     13  O   UNL     1     114.816 131.490 141.690  0.00  0.00    +0.000 OA
ATOM     14  C   UNL     1     113.939 130.069 139.864  0.00  0.00    +0.000 A 
ATOM     15  C   UNL     1     113.424 130.379 140.429  0.00  0.00    +0.000 A 
ATOM     16  C   UNL     1     114.747 130.232 139.908  0.00  0.00    +0.000 A 
ATOM     17  C   UNL     1     113.716 130.853 141.038  0.00  0.00    +0.000 A 
ATOM     18  C   UNL     1     115.039 130.706 140.517  0.00  0.00    +0.000 A 
ATOM     19  C   UNL     1     114.524 131.016 141.081  0.00  0.00    +0.000 A 
ENDBRANCH   7  14
BRANCH   4  20
ATOM     20  O   UNL     1     112.400 126.255 138.473  0.00  0.00    +0.000 OA
BRANCH  20  29
ATOM     21  O   UNL     1     113.430 125.559 137.768  0.00  0.00    +0.000 OA
ATOM     22  O   UNL     1     111.737 124.039 136.794  0.00  0.00    +0.000 OA
ATOM     23  O   UNL     1     113.331 123.850 136.415  0.00  0.00    +0.000 OA
ATOM     24  O   UNL     1     111.271 125.242 137.823  0.00  0.00    +0.000 OA
ATOM     25  C   UNL     1     112.301 124.546 137.119  0.00  0.00    +0.000 C 
ATOM     26  C   UNL     1     113.099 124.451 136.929  0.00  0.00    +0.000 C 
ATOM     27  C   UNL     1     112.068 125.148 137.634  0.00  0.00    +0.000 C 
ATOM     28  C   UNL     1     113.663 124.958 137.254  0.00  0.00    +0.000 C 
ATOM     29  C   UNL     1     112.633 125.654 137.959  0.00  0.00    +0.000 C 
BRANCH  28  31
ATOM     30  O   UNL     1     115.036 124.939 137.650  0.00  0.00    +0.000 OA
ATOM     31  C   UNL     1     114.460 124.863 137.065  0.00  0.00    +0.000 C 
ENDBRANCH  28  31
ENDBRANCH  20  29
ENDBRANCH   4  20
BRANCH   5  32
ATOM     32  C   UNL     1     112.984 127.207 139.687  0.00  0.00    +0.000 C 
BRANCH  32  33
ATOM     33  C   UNL     1     112.334 127.191 140.194  0.00  0.00    +0.000 C 
ATOM     34  C   UNL     1     112.426 126.938 140.974  0.00  0.00    +0.000 C 
ATOM     35  C   UNL     1     111.776 126.922 141.482  0.00  0.00    +0.000 C 
ATOM     36  C   UNL     1     113.167 126.701 141.247  0.00  0.00    +0.000 C 
ENDBRANCH  32  33
ENDBRANCH   5  32
TORSDOF 6
ENDMDL
MODEL 8
REMARK VINA RESULT:      -9.0      1.918      5.377
REMARK  Name = 42607895
REMARK  6 active torsions:
REMARK  status: ('A' for Active; 'I' for Inactive)
REMARK    1  A    between atoms: O_2  and  C_15
REMARK    2  A    between atoms: O_2  and  C_17
REMARK    3  A    between atoms: C_14  and  C_16
REMARK    4  A    between atoms: C_18  and  C_24
REMARK    5  A    between atoms: C_20  and  C_27
REMARK    6  A    between atoms: C_24  and  C_28
REMARK                            x       y       z     vdW  Elec       q    Type
REMARK                         _______ _______ _______ _____ _____    ______ ____
ROOT
ATOM      1  O   UNL     1     111.799 129.520 137.059  0.00  0.00    +0.000 OA
ATOM      2  O   UNL     1     111.823 127.488 139.121  0.00  0.00    +0.000 OA
ATOM      3  O   UNL     1     111.145 128.736 139.377  0.00  0.00    +0.000 OA
ATOM      4  C   UNL     1     112.692 127.497 137.118  0.00  0.00    +0.000 A 
ATOM      5  C   UNL     1     112.467 128.247 136.854  0.00  0.00    +0.000 A 
ATOM      6  C   UNL     1     112.027 128.742 137.346  0.00  0.00    +0.000 A 
ATOM      7  C   UNL     1     111.342 130.041 137.567  0.00  0.00    +0.000 C 
ATOM      8  C   UNL     1     111.813 128.489 138.101  0.00  0.00    +0.000 A 
ATOM      9  C   UNL     1     111.118 129.778 138.354  0.00  0.00    +0.000 C 
ATOM     10  C   UNL     1     112.477 127.245 137.874  0.00  0.00    +0.000 A 
ATOM     11  C   UNL     1     111.356 128.996 138.622  0.00  0.00    +0.000 C 
ATOM     12  C   UNL     1     112.037 127.741 138.365  0.00  0.00    +0.000 A 
ENDROOT
BRANCH   7  14
ATOM     13  O   UNL     1     110.449 133.033 136.502  0.00  0.00    +0.000 OA
ATOM     14  C   UNL     1     111.119 130.789 137.300  0.00  0.00    +0.000 A 
ATOM     15  C   UNL     1     110.421 130.882 136.870  0.00  0.00    +0.000 A 
ATOM     16  C   UNL     1     111.593 131.444 137.464  0.00  0.00    +0.000 A 
ATOM     17  C   UNL     1     110.197 131.631 136.604  0.00  0.00    +0.000 A 
ATOM     18  C   UNL     1     111.370 132.192 137.198  0.00  0.00    +0.000 A 
ATOM     19  C   UNL     1     110.673 132.285 136.768  0.00  0.00    +0.000 A 
ENDBRANCH   7  14
BRANCH   4  20
ATOM     20  O   UNL     1     113.131 127.001 136.627  0.00  0.00    +0.000 OA
BRANCH  20  29
ATOM     21  O   UNL     1     112.183 125.965 136.363  0.00  0.00    +0.000 OA
ATOM     22  O   UNL     1     113.908 124.261 136.856  0.00  0.00    +0.000 OA
ATOM     23  O   UNL     1     112.386 123.793 136.428  0.00  0.00    +0.000 OA
ATOM     24  O   UNL     1     114.281 125.865 136.956  0.00  0.00    +0.000 OA
ATOM     25  C   UNL     1     113.333 124.829 136.692  0.00  0.00    +0.000 C 
ATOM     26  C   UNL     1     112.572 124.596 136.478  0.00  0.00    +0.000 C 
ATOM     27  C   UNL     1     113.520 125.632 136.742  0.00  0.00    +0.000 C 
ATOM     28  C   UNL     1     111.996 125.164 136.313  0.00  0.00    +0.000 C 
ATOM     29  C   UNL     1     112.945 126.200 136.577  0.00  0.00    +0.000 C 
BRANCH  28  31
ATOM     30  O   UNL     1     110.837 125.324 135.494  0.00  0.00    +0.000 OA
ATOM     31  C   UNL     1     111.236 124.930 136.099  0.00  0.00    +0.000 C 
ENDBRANCH  28  31
ENDBRANCH  20  29
ENDBRANCH   4  20
BRANCH   5  32
ATOM     32  C   UNL     1     112.682 128.499 136.099  0.00  0.00    +0.000 C 
BRANCH  32  33
ATOM     33  C   UNL     1     113.420 128.844 135.973  0.00  0.00    +0.000 C 
ATOM     34  C   UNL     1     113.613 129.145 135.230  0.00  0.00    +0.000 C 
ATOM     35  C   UNL     1     114.352 129.490 135.104  0.00  0.00    +0.000 C 
ATOM     36  C   UNL     1     113.069 129.101 134.612  0.00  0.00    +0.000 C 
ENDBRANCH  32  33
ENDBRANCH   5  32
TORSDOF 6
ENDMDL
MODEL 9
REMARK VINA RESULT:      -8.9      1.955      5.276
REMARK  Name = 42607895
REMARK  6 active torsions:
REMARK  status: ('A' for Active; 'I' for Inactive)
REMARK    1  A    between atoms: O_2  and  C_15
REMARK    2  A    between atoms: O_2  and  C_17
REMARK    3  A    between atoms: C_14  and  C_16
REMARK    4  A    between atoms: C_18  and  C_24
REMARK    5  A    between atoms: C_20  and  C_27
REMARK    6  A    between atoms: C_24  and  C_28
REMARK                            x       y       z     vdW  Elec       q    Type
REMARK                         _______ _______ _______ _____ _____    ______ ____
ROOT
ATOM      1  O   UNL     1     110.333 130.049 136.187  0.00  0.00    +0.000 OA
ATOM      2  O   UNL     1     108.363 127.942 135.937  0.00  0.00    +0.000 OA
ATOM      3  O   UNL     1     107.914 129.300 136.133  0.00  0.00    +0.000 OA
ATOM      4  C   UNL     1     110.544 127.869 135.883  0.00  0.00    +0.000 A 
ATOM      5  C   UNL     1     110.730 128.666 135.988  0.00  0.00    +0.000 A 
ATOM      6  C   UNL     1     110.127 129.222 136.077  0.00  0.00    +0.000 A 
ATOM      7  C   UNL     1     109.709 130.632 136.279  0.00  0.00    +0.000 C 
ATOM      8  C   UNL     1     109.338 128.980 136.060  0.00  0.00    +0.000 A 
ATOM      9  C   UNL     1     108.887 130.381 136.262  0.00  0.00    +0.000 C 
ATOM     10  C   UNL     1     109.755 127.628 135.865  0.00  0.00    +0.000 A 
ATOM     11  C   UNL     1     108.701 129.550 136.151  0.00  0.00    +0.000 C 
ATOM     12  C   UNL     1     109.152 128.184 135.954  0.00  0.00    +0.000 A 
ENDROOT
BRANCH   7  14
ATOM     13  O   UNL     1     110.463 133.817 136.701  0.00  0.00    +0.000 OA
ATOM     14  C   UNL     1     109.898 131.428 136.385  0.00  0.00    +0.000 A 
ATOM     15  C   UNL     1     110.243 131.681 137.091  0.00  0.00    +0.000 A 
ATOM     16  C   UNL     1     109.741 131.973 135.785  0.00  0.00    +0.000 A 
ATOM     17  C   UNL     1     110.431 132.477 137.197  0.00  0.00    +0.000 A 
ATOM     18  C   UNL     1     109.929 132.769 135.890  0.00  0.00    +0.000 A 
ATOM     19  C   UNL     1     110.274 133.021 136.596  0.00  0.00    +0.000 A 
ENDBRANCH   7  14
BRANCH   4  20
ATOM     20  O   UNL     1     111.147 127.313 135.794  0.00  0.00    +0.000 OA
BRANCH  20  29
ATOM     21  O   UNL     1     111.101 126.665 137.067  0.00  0.00    +0.000 OA
ATOM     22  O   UNL     1     111.198 124.459 135.947  0.00  0.00    +0.000 OA
ATOM     23  O   UNL     1     111.119 124.547 137.592  0.00  0.00    +0.000 OA
ATOM     24  O   UNL     1     111.212 125.843 135.047  0.00  0.00    +0.000 OA
ATOM     25  C   UNL     1     111.165 125.194 136.320  0.00  0.00    +0.000 C 
ATOM     26  C   UNL     1     111.126 125.239 137.143  0.00  0.00    +0.000 C 
ATOM     27  C   UNL     1     111.172 125.887 135.870  0.00  0.00    +0.000 C 
ATOM     28  C   UNL     1     111.094 125.974 137.516  0.00  0.00    +0.000 C 
ATOM     29  C   UNL     1     111.140 126.622 136.243  0.00  0.00    +0.000 C 
BRANCH  28  31
ATOM     30  O   UNL     1     111.528 126.555 138.747  0.00  0.00    +0.000 OA
ATOM     31  C   UNL     1     111.054 126.017 138.338  0.00  0.00    +0.000 C 
ENDBRANCH  28  31
ENDBRANCH  20  29
ENDBRANCH   4  20
BRANCH   5  32
ATOM     32  C   UNL     1     111.519 128.907 136.006  0.00  0.00    +0.000 C 
BRANCH  32  33
ATOM     33  C   UNL     1     111.924 129.044 135.300  0.00  0.00    +0.000 C 
ATOM     34  C   UNL     1     112.708 129.300 135.319  0.00  0.00    +0.000 C 
ATOM     35  C   UNL     1     113.113 129.438 134.614  0.00  0.00    +0.000 C 
ATOM     36  C   UNL     1     113.087 129.418 136.041  0.00  0.00    +0.000 C 
ENDBRANCH  32  33
ENDBRANCH   5  32
TORSDOF 6
ENDMDL
MODEL 10
REMARK VINA RESULT:      -8.9      1.871      2.553
REMARK  Name = 42607895
REMARK  6 active torsions:
REMARK  status: ('A' for Active; 'I' for Inactive)
REMARK    1  A    between atoms: O_2  and  C_15
REMARK    2  A    between atoms: O_2  and  C_17
REMARK    3  A    between atoms: C_14  and  C_16
REMARK    4  A    between atoms: C_18  and  C_24
REMARK    5  A    between atoms: C_20  and  C_27
REMARK    6  A    between atoms: C_24  and  C_28
REMARK                            x       y       z     vdW  Elec       q    Type
REMARK                         _______ _______ _______ _____ _____    ______ ____
ROOT
ATOM      1  O   UNL     1     113.004 127.275 137.171  0.00  0.00    +0.000 OA
ATOM      2  O   UNL     1     113.875 129.678 135.811  0.00  0.00    +0.000 OA
ATOM      3  O   UNL     1     114.467 128.413 135.445  0.00  0.00    +0.000 OA
ATOM      4  C   UNL     1     112.395 129.390 137.390  0.00  0.00    +0.000 A 
ATOM      5  C   UNL     1     112.442 128.573 137.500  0.00  0.00    +0.000 A 
ATOM      6  C   UNL     1     112.965 128.124 137.047  0.00  0.00    +0.000 A 
ATOM      7  C   UNL     1     113.547 126.803 136.702  0.00  0.00    +0.000 C 
ATOM      8  C   UNL     1     113.443 128.493 136.484  0.00  0.00    +0.000 A 
ATOM      9  C   UNL     1     114.045 127.186 136.115  0.00  0.00    +0.000 C 
ATOM     10  C   UNL     1     112.873 129.757 136.827  0.00  0.00    +0.000 A 
ATOM     11  C   UNL     1     113.992 128.037 136.006  0.00  0.00    +0.000 C 
ATOM     12  C   UNL     1     113.397 129.309 136.374  0.00  0.00    +0.000 A 
ENDROOT
BRANCH   7  14
ATOM     13  O   UNL     1     113.724 123.539 137.149  0.00  0.00    +0.000 OA
ATOM     14  C   UNL     1     113.591 125.987 136.813  0.00  0.00    +0.000 A 
ATOM     15  C   UNL     1     113.038 125.491 136.455  0.00  0.00    +0.000 A 
ATOM     16  C   UNL     1     114.188 125.666 137.284  0.00  0.00    +0.000 A 
ATOM     17  C   UNL     1     113.082 124.675 136.566  0.00  0.00    +0.000 A 
ATOM     18  C   UNL     1     114.233 124.851 137.396  0.00  0.00    +0.000 A 
ATOM     19  C   UNL     1     113.680 124.355 137.037  0.00  0.00    +0.000 A 
ENDBRANCH   7  14
BRANCH   4  20
ATOM     20  O   UNL     1     111.872 129.838 137.843  0.00  0.00    +0.000 OA
BRANCH  20  29
ATOM     21  O   UNL     1     110.947 130.249 136.834  0.00  0.00    +0.000 OA
ATOM     22  O   UNL     1     111.003 132.558 137.723  0.00  0.00    +0.000 OA
ATOM     23  O   UNL     1     110.061 132.199 136.418  0.00  0.00    +0.000 OA
ATOM     24  O   UNL     1     111.909 131.377 138.436  0.00  0.00    +0.000 OA
ATOM     25  C   UNL     1     110.984 131.788 137.427  0.00  0.00    +0.000 C 
ATOM     26  C   UNL     1     110.513 131.608 136.774  0.00  0.00    +0.000 C 
ATOM     27  C   UNL     1     111.438 131.197 137.784  0.00  0.00    +0.000 C 
ATOM     28  C   UNL     1     110.495 130.839 136.478  0.00  0.00    +0.000 C 
ATOM     29  C   UNL     1     111.419 130.428 137.487  0.00  0.00    +0.000 C 
BRANCH  28  31
ATOM     30  O   UNL     1     109.564 129.975 135.823  0.00  0.00    +0.000 OA
ATOM     31  C   UNL     1     110.024 130.660 135.825  0.00  0.00    +0.000 C 
ENDBRANCH  28  31
ENDBRANCH  20  29
ENDBRANCH   4  20
BRANCH   5  32
ATOM     32  C   UNL     1     111.964 128.205 138.063  0.00  0.00    +0.000 C 
BRANCH  32  33
ATOM     33  C   UNL     1     112.218 128.145 138.845  0.00  0.00    +0.000 C 
ATOM     34  C   UNL     1     111.752 127.752 139.401  0.00  0.00    +0.000 C 
ATOM     35  C   UNL     1     112.007 127.692 140.184  0.00  0.00    +0.000 C 
ATOM     36  C   UNL     1     111.033 127.418 139.175  0.00  0.00    +0.000 C 
ENDBRANCH  32  33
ENDBRANCH   5  32
TORSDOF 6
ENDMDL
