MODEL 1
REMARK VINA RESULT:      -9.7      0.000      0.000
REMARK  Name = 45782983
REMARK  5 active torsions:
REMARK  status: ('A' for Active; 'I' for Inactive)
REMARK    1  A    between atoms: O_2  and  C_17
REMARK    2  A    between atoms: O_2  and  C_20
REMARK    3  A    between atoms: O_11  and  C_32
REMARK    4  A    between atoms: C_18  and  C_19
REMARK    5  A    between atoms: C_21  and  C_25
REMARK                            x       y       z     vdW  Elec       q    Type
REMARK                         _______ _______ _______ _____ _____    ______ ____
ROOT
ATOM      1  O   UNL     1     105.622 124.449 147.808  0.00  0.00    +0.000 OA
ATOM      2  O   UNL     1     107.016 125.646 146.150  0.00  0.00    +0.000 OA
ATOM      3  O   UNL     1     108.166 125.568 147.017  0.00  0.00    +0.000 OA
ATOM      4  O   UNL     1     107.900 124.253 149.612  0.00  0.00    +0.000 OA
ATOM      5  C   UNL     1     105.758 125.093 146.539  0.00  0.00    +0.000 A 
ATOM      6  C   UNL     1     105.293 124.694 147.093  0.00  0.00    +0.000 A 
ATOM      7  C   UNL     1     106.551 125.247 146.703  0.00  0.00    +0.000 A 
ATOM      8  C   UNL     1     106.881 125.002 147.418  0.00  0.00    +0.000 A 
ATOM      9  C   UNL     1     106.416 124.603 147.970  0.00  0.00    +0.000 A 
ATOM     10  C   UNL     1     107.709 125.168 147.576  0.00  0.00    +0.000 A 
ATOM     11  C   UNL     1     106.747 124.342 148.719  0.00  0.00    +0.000 A 
ATOM     12  C   UNL     1     108.057 124.915 148.319  0.00  0.00    +0.000 A 
ATOM     13  C   UNL     1     107.573 124.499 148.895  0.00  0.00    +0.000 A 
ENDROOT
BRANCH   6  15
ATOM     14  O   UNL     1     102.116 124.082 146.440  0.00  0.00    +0.000 OA
ATOM     15  C   UNL     1     104.499 124.541 146.929  0.00  0.00    +0.000 A 
ATOM     16  C   UNL     1     103.908 124.973 147.311  0.00  0.00    +0.000 A 
ATOM     17  C   UNL     1     104.295 123.955 146.384  0.00  0.00    +0.000 A 
ATOM     18  C   UNL     1     103.115 124.820 147.148  0.00  0.00    +0.000 A 
ATOM     19  C   UNL     1     103.500 123.803 146.222  0.00  0.00    +0.000 A 
ATOM     20  C   UNL     1     102.911 124.235 146.603  0.00  0.00    +0.000 A 
BRANCH  18  21
ATOM     21  O   UNL     1     102.524 125.252 147.530  0.00  0.00    +0.000 OA
ATOM     22  C   UNL     1     102.665 125.574 148.276  0.00  0.00    +0.000 C 
ENDBRANCH  18  21
ENDBRANCH   6  15
BRANCH   5  23
ATOM     23  O   UNL     1     105.428 125.339 145.824  0.00  0.00    +0.000 OA
BRANCH  23  31
ATOM     24  O   UNL     1     105.354 126.715 146.199  0.00  0.00    +0.000 OA
ATOM     25  O   UNL     1     105.644 127.376 143.832  0.00  0.00    +0.000 OA
ATOM     26  O   UNL     1     105.622 125.779 144.245  0.00  0.00    +0.000 OA
ATOM     27  O   UNL     1     105.473 128.532 144.996  0.00  0.00    +0.000 OA
ATOM     28  C   UNL     1     105.547 127.156 144.621  0.00  0.00    +0.000 C 
ATOM     29  C   UNL     1     105.536 126.357 144.828  0.00  0.00    +0.000 C 
ATOM     30  C   UNL     1     105.461 127.734 145.203  0.00  0.00    +0.000 C 
ATOM     31  C   UNL     1     105.439 126.137 145.617  0.00  0.00    +0.000 C 
ATOM     32  C   UNL     1     105.365 127.513 145.992  0.00  0.00    +0.000 C 
BRANCH  32  35
ATOM     33  O   UNL     1     105.945 128.467 146.885  0.00  0.00    +0.000 OA
ATOM     34  O   UNL     1     104.527 128.294 146.846  0.00  0.00    +0.000 OA
ATOM     35  C   UNL     1     105.279 128.091 146.574  0.00  0.00    +0.000 C 
ENDBRANCH  32  35
ENDBRANCH  23  31
ENDBRANCH   5  23
TORSDOF 5
ENDMDL
MODEL 2
REMARK VINA RESULT:      -9.4      0.842      1.970
REMARK  Name = 45782983
REMARK  5 active torsions:
REMARK  status: ('A' for Active; 'I' for Inactive)
REMARK    1  A    between atoms: O_2  and  C_17
REMARK    2  A    between atoms: O_2  and  C_20
REMARK    3  A    between atoms: O_11  and  C_32
REMARK    4  A    between atoms: C_18  and  C_19
REMARK    5  A    between atoms: C_21  and  C_25
REMARK                            x       y       z     vdW  Elec       q    Type
REMARK                         _______ _______ _______ _____ _____    ______ ____
ROOT
ATOM      1  O   UNL     1     105.428 124.861 148.419  0.00  0.00    +0.000 OA
ATOM      2  O   UNL     1     106.766 126.238 146.856  0.00  0.00    +0.000 OA
ATOM      3  O   UNL     1     107.995 125.737 147.423  0.00  0.00    +0.000 OA
ATOM      4  O   UNL     1     107.867 123.808 149.612  0.00  0.00    +0.000 OA
ATOM      5  C   UNL     1     105.496 125.805 147.348  0.00  0.00    +0.000 A 
ATOM      6  C   UNL     1     105.050 125.346 147.869  0.00  0.00    +0.000 A 
ATOM      7  C   UNL     1     106.320 125.778 147.377  0.00  0.00    +0.000 A 
ATOM      8  C   UNL     1     106.698 125.293 147.927  0.00  0.00    +0.000 A 
ATOM      9  C   UNL     1     106.252 124.835 148.448  0.00  0.00    +0.000 A 
ATOM     10  C   UNL     1     107.557 125.275 147.948  0.00  0.00    +0.000 A 
ATOM     11  C   UNL     1     106.633 124.326 149.025  0.00  0.00    +0.000 A 
ATOM     12  C   UNL     1     107.956 124.772 148.518  0.00  0.00    +0.000 A 
ATOM     13  C   UNL     1     107.492 124.294 149.061  0.00  0.00    +0.000 A 
ENDROOT
BRANCH   6  15
ATOM     14  O   UNL     1     101.754 125.450 147.749  0.00  0.00    +0.000 OA
ATOM     15  C   UNL     1     104.226 125.372 147.839  0.00  0.00    +0.000 A 
ATOM     16  C   UNL     1     103.806 124.757 147.483  0.00  0.00    +0.000 A 
ATOM     17  C   UNL     1     103.822 126.013 148.165  0.00  0.00    +0.000 A 
ATOM     18  C   UNL     1     102.983 124.783 147.453  0.00  0.00    +0.000 A 
ATOM     19  C   UNL     1     102.997 126.039 148.134  0.00  0.00    +0.000 A 
ATOM     20  C   UNL     1     102.578 125.424 147.779  0.00  0.00    +0.000 A 
BRANCH  18  21
ATOM     21  O   UNL     1     102.563 124.168 147.097  0.00  0.00    +0.000 OA
ATOM     22  C   UNL     1     102.897 123.415 147.048  0.00  0.00    +0.000 C 
ENDBRANCH  18  21
ENDBRANCH   6  15
BRANCH   5  23
ATOM     23  O   UNL     1     105.118 126.290 146.798  0.00  0.00    +0.000 OA
BRANCH  23  31
ATOM     24  O   UNL     1     105.371 125.445 145.673  0.00  0.00    +0.000 OA
ATOM     25  O   UNL     1     105.543 127.437 144.215  0.00  0.00    +0.000 OA
ATOM     26  O   UNL     1     105.233 127.618 145.825  0.00  0.00    +0.000 OA
ATOM     27  O   UNL     1     105.739 125.929 143.578  0.00  0.00    +0.000 OA
ATOM     28  C   UNL     1     105.486 126.773 144.701  0.00  0.00    +0.000 C 
ATOM     29  C   UNL     1     105.331 126.864 145.507  0.00  0.00    +0.000 C 
ATOM     30  C   UNL     1     105.584 126.019 144.383  0.00  0.00    +0.000 C 
ATOM     31  C   UNL     1     105.273 126.199 145.993  0.00  0.00    +0.000 C 
ATOM     32  C   UNL     1     105.526 125.355 144.869  0.00  0.00    +0.000 C 
BRANCH  32  35
ATOM     33  O   UNL     1     104.968 124.175 144.286  0.00  0.00    +0.000 OA
ATOM     34  O   UNL     1     106.378 124.271 144.495  0.00  0.00    +0.000 OA
ATOM     35  C   UNL     1     105.624 124.601 144.550  0.00  0.00    +0.000 C 
ENDBRANCH  32  35
ENDBRANCH  23  31
ENDBRANCH   5  23
TORSDOF 5
ENDMDL
MODEL 3
REMARK VINA RESULT:      -9.2     10.155     12.371
REMARK  Name = 45782983
REMARK  5 active torsions:
REMARK  status: ('A' for Active; 'I' for Inactive)
REMARK    1  A    between atoms: O_2  and  C_17
REMARK    2  A    between atoms: O_2  and  C_20
REMARK    3  A    between atoms: O_11  and  C_32
REMARK    4  A    between atoms: C_18  and  C_19
REMARK    5  A    between atoms: C_21  and  C_25
REMARK                            x       y       z     vdW  Elec       q    Type
REMARK                         _______ _______ _______ _____ _____    ______ ____
ROOT
ATOM      1  O   UNL     1     113.501 126.790 136.825  0.00  0.00    +0.000 OA
ATOM      2  O   UNL     1     111.583 125.494 135.946  0.00  0.00    +0.000 OA
ATOM      3  O   UNL     1     112.225 124.251 136.297  0.00  0.00    +0.000 OA
ATOM      4  O   UNL     1     114.858 124.320 137.560  0.00  0.00    +0.000 OA
ATOM      5  C   UNL     1     112.212 126.751 136.207  0.00  0.00    +0.000 A 
ATOM      6  C   UNL     1     112.852 127.182 136.500  0.00  0.00    +0.000 A 
ATOM      7  C   UNL     1     112.223 125.926 136.239  0.00  0.00    +0.000 A 
ATOM      8  C   UNL     1     112.871 125.534 136.564  0.00  0.00    +0.000 A 
ATOM      9  C   UNL     1     113.510 125.965 136.857  0.00  0.00    +0.000 A 
ATOM     10  C   UNL     1     112.869 124.675 136.592  0.00  0.00    +0.000 A 
ATOM     11  C   UNL     1     114.192 125.569 137.197  0.00  0.00    +0.000 A 
ATOM     12  C   UNL     1     113.542 124.261 136.929  0.00  0.00    +0.000 A 
ATOM     13  C   UNL     1     114.208 124.710 137.234  0.00  0.00    +0.000 A 
ENDROOT
BRANCH   6  15
ATOM     14  O   UNL     1     112.811 130.480 136.372  0.00  0.00    +0.000 OA
ATOM     15  C   UNL     1     112.842 128.007 136.467  0.00  0.00    +0.000 A 
ATOM     16  C   UNL     1     112.711 128.445 137.155  0.00  0.00    +0.000 A 
ATOM     17  C   UNL     1     112.963 128.393 135.748  0.00  0.00    +0.000 A 
ATOM     18  C   UNL     1     112.701 129.269 137.122  0.00  0.00    +0.000 A 
ATOM     19  C   UNL     1     112.952 129.218 135.717  0.00  0.00    +0.000 A 
ATOM     20  C   UNL     1     112.821 129.655 136.403  0.00  0.00    +0.000 A 
BRANCH  18  21
ATOM     21  O   UNL     1     112.570 129.707 137.810  0.00  0.00    +0.000 OA
ATOM     22  C   UNL     1     112.810 129.409 138.541  0.00  0.00    +0.000 C 
ENDBRANCH  18  21
ENDBRANCH   6  15
BRANCH   5  23
ATOM     23  O   UNL     1     111.564 127.143 135.882  0.00  0.00    +0.000 OA
BRANCH  23  31
ATOM     24  O   UNL     1     110.716 126.965 137.018  0.00  0.00    +0.000 OA
ATOM     25  O   UNL     1     108.746 126.827 135.526  0.00  0.00    +0.000 OA
ATOM     26  O   UNL     1     110.250 127.050 134.887  0.00  0.00    +0.000 OA
ATOM     27  O   UNL     1     108.555 126.695 137.159  0.00  0.00    +0.000 OA
ATOM     28  C   UNL     1     109.402 126.873 136.024  0.00  0.00    +0.000 C 
ATOM     29  C   UNL     1     110.155 126.985 135.704  0.00  0.00    +0.000 C 
ATOM     30  C   UNL     1     109.307 126.807 136.840  0.00  0.00    +0.000 C 
ATOM     31  C   UNL     1     110.812 127.031 136.201  0.00  0.00    +0.000 C 
ATOM     32  C   UNL     1     109.964 126.854 137.337  0.00  0.00    +0.000 C 
BRANCH  32  35
ATOM     33  O   UNL     1     109.876 126.045 138.512  0.00  0.00    +0.000 OA
ATOM     34  O   UNL     1     109.764 127.466 138.612  0.00  0.00    +0.000 OA
ATOM     35  C   UNL     1     109.868 126.788 138.154  0.00  0.00    +0.000 C 
ENDBRANCH  32  35
ENDBRANCH  23  31
ENDBRANCH   5  23
TORSDOF 5
ENDMDL
MODEL 4
REMARK VINA RESULT:      -9.1      0.992      3.655
REMARK  Name = 45782983
REMARK  5 active torsions:
REMARK  status: ('A' for Active; 'I' for Inactive)
REMARK    1  A    between atoms: O_2  and  C_17
REMARK    2  A    between atoms: O_2  and  C_20
REMARK    3  A    between atoms: O_11  and  C_32
REMARK    4  A    between atoms: C_18  and  C_19
REMARK    5  A    between atoms: C_21  and  C_25
REMARK                            x       y       z     vdW  Elec       q    Type
REMARK                         _______ _______ _______ _____ _____    ______ ____
ROOT
ATOM      1  O   UNL     1     106.742 125.994 146.961  0.00  0.00    +0.000 OA
ATOM      2  O   UNL     1     105.008 124.933 148.374  0.00  0.00    +0.000 OA
ATOM      3  O   UNL     1     106.016 124.245 149.143  0.00  0.00    +0.000 OA
ATOM      4  O   UNL     1     108.831 124.636 148.470  0.00  0.00    +0.000 OA
ATOM      5  C   UNL     1     105.366 125.799 147.294  0.00  0.00    +0.000 A 
ATOM      6  C   UNL     1     105.945 126.152 146.823  0.00  0.00    +0.000 A 
ATOM      7  C   UNL     1     105.587 125.287 147.903  0.00  0.00    +0.000 A 
ATOM      8  C   UNL     1     106.384 125.129 148.040  0.00  0.00    +0.000 A 
ATOM      9  C   UNL     1     106.962 125.482 147.570  0.00  0.00    +0.000 A 
ATOM     10  C   UNL     1     106.601 124.594 148.677  0.00  0.00    +0.000 A 
ATOM     11  C   UNL     1     107.796 125.325 147.702  0.00  0.00    +0.000 A 
ATOM     12  C   UNL     1     107.430 124.425 148.825  0.00  0.00    +0.000 A 
ATOM     13  C   UNL     1     108.032 124.793 148.335  0.00  0.00    +0.000 A 
ENDROOT
BRANCH   6  15
ATOM     14  O   UNL     1     105.063 128.198 144.388  0.00  0.00    +0.000 OA
ATOM     15  C   UNL     1     105.724 126.664 146.215  0.00  0.00    +0.000 A 
ATOM     16  C   UNL     1     105.745 126.406 145.431  0.00  0.00    +0.000 A 
ATOM     17  C   UNL     1     105.483 127.434 146.390  0.00  0.00    +0.000 A 
ATOM     18  C   UNL     1     105.524 126.917 144.823  0.00  0.00    +0.000 A 
ATOM     19  C   UNL     1     105.262 127.945 145.780  0.00  0.00    +0.000 A 
ATOM     20  C   UNL     1     105.283 127.687 144.997  0.00  0.00    +0.000 A 
BRANCH  18  21
ATOM     21  O   UNL     1     105.545 126.659 144.039  0.00  0.00    +0.000 OA
ATOM     22  C   UNL     1     106.141 126.147 143.789  0.00  0.00    +0.000 C 
ENDBRANCH  18  21
ENDBRANCH   6  15
BRANCH   5  23
ATOM     23  O   UNL     1     104.568 125.957 147.157  0.00  0.00    +0.000 OA
BRANCH  23  31
ATOM     24  O   UNL     1     104.280 124.738 146.470  0.00  0.00    +0.000 OA
ATOM     25  O   UNL     1     102.028 124.692 147.496  0.00  0.00    +0.000 OA
ATOM     26  O   UNL     1     103.067 125.926 147.841  0.00  0.00    +0.000 OA
ATOM     27  O   UNL     1     102.491 123.488 146.467  0.00  0.00    +0.000 OA
ATOM     28  C   UNL     1     102.779 124.707 147.154  0.00  0.00    +0.000 C 
ATOM     29  C   UNL     1     103.299 125.325 147.326  0.00  0.00    +0.000 C 
ATOM     30  C   UNL     1     103.011 124.105 146.639  0.00  0.00    +0.000 C 
ATOM     31  C   UNL     1     104.049 125.340 146.984  0.00  0.00    +0.000 C 
ATOM     32  C   UNL     1     103.761 124.121 146.297  0.00  0.00    +0.000 C 
BRANCH  32  35
ATOM     33  O   UNL     1     104.317 122.822 146.082  0.00  0.00    +0.000 OA
ATOM     34  O   UNL     1     103.899 123.614 144.969  0.00  0.00    +0.000 OA
ATOM     35  C   UNL     1     103.992 123.519 145.783  0.00  0.00    +0.000 C 
ENDBRANCH  32  35
ENDBRANCH  23  31
ENDBRANCH   5  23
TORSDOF 5
ENDMDL
MODEL 5
REMARK VINA RESULT:      -9.1     10.361     12.536
REMARK  Name = 45782983
REMARK  5 active torsions:
REMARK  status: ('A' for Active; 'I' for Inactive)
REMARK    1  A    between atoms: O_2  and  C_17
REMARK    2  A    between atoms: O_2  and  C_20
REMARK    3  A    between atoms: O_11  and  C_32
REMARK    4  A    between atoms: C_18  and  C_19
REMARK    5  A    between atoms: C_21  and  C_25
REMARK                            x       y       z     vdW  Elec       q    Type
REMARK                         _______ _______ _______ _____ _____    ______ ____
ROOT
ATOM      1  O   UNL     1     113.027 128.444 138.272  0.00  0.00    +0.000 OA
ATOM      2  O   UNL     1     112.272 126.143 138.786  0.00  0.00    +0.000 OA
ATOM      3  O   UNL     1     112.716 126.272 140.153  0.00  0.00    +0.000 OA
ATOM      4  O   UNL     1     113.947 128.776 141.016  0.00  0.00    +0.000 OA
ATOM      5  C   UNL     1     112.425 127.216 137.855  0.00  0.00    +0.000 A 
ATOM      6  C   UNL     1     112.677 127.984 137.684  0.00  0.00    +0.000 A 
ATOM      7  C   UNL     1     112.524 126.910 138.615  0.00  0.00    +0.000 A 
ATOM      8  C   UNL     1     112.874 127.370 139.203  0.00  0.00    +0.000 A 
ATOM      9  C   UNL     1     113.125 128.137 139.032  0.00  0.00    +0.000 A 
ATOM     10  C   UNL     1     112.970 127.040 139.991  0.00  0.00    +0.000 A 
ATOM     11  C   UNL     1     113.491 128.626 139.636  0.00  0.00    +0.000 A 
ATOM     12  C   UNL     1     113.334 127.514 140.607  0.00  0.00    +0.000 A 
ATOM     13  C   UNL     1     113.597 128.313 140.429  0.00  0.00    +0.000 A 
ENDROOT
BRANCH   6  15
ATOM     14  O   UNL     1     112.285 129.207 134.644  0.00  0.00    +0.000 OA
ATOM     15  C   UNL     1     112.578 128.289 136.924  0.00  0.00    +0.000 A 
ATOM     16  C   UNL     1     113.230 128.367 136.424  0.00  0.00    +0.000 A 
ATOM     17  C   UNL     1     111.829 128.517 136.665  0.00  0.00    +0.000 A 
ATOM     18  C   UNL     1     113.132 128.673 135.664  0.00  0.00    +0.000 A 
ATOM     19  C   UNL     1     111.732 128.823 135.905  0.00  0.00    +0.000 A 
ATOM     20  C   UNL     1     112.382 128.901 135.405  0.00  0.00    +0.000 A 
BRANCH  18  21
ATOM     21  O   UNL     1     113.783 128.751 135.163  0.00  0.00    +0.000 OA
ATOM     22  C   UNL     1     114.521 128.949 135.474  0.00  0.00    +0.000 C 
ENDBRANCH  18  21
ENDBRANCH   6  15
BRANCH   5  23
ATOM     23  O   UNL     1     112.075 126.756 137.267  0.00  0.00    +0.000 OA
BRANCH  23  31
ATOM     24  O   UNL     1     113.233 125.947 137.051  0.00  0.00    +0.000 OA
ATOM     25  O   UNL     1     111.785 124.045 136.408  0.00  0.00    +0.000 OA
ATOM     26  O   UNL     1     111.109 125.488 136.838  0.00  0.00    +0.000 OA
ATOM     27  O   UNL     1     113.425 123.871 136.407  0.00  0.00    +0.000 OA
ATOM     28  C   UNL     1     112.268 124.679 136.623  0.00  0.00    +0.000 C 
ATOM     29  C   UNL     1     111.930 125.401 136.838  0.00  0.00    +0.000 C 
ATOM     30  C   UNL     1     113.088 124.592 136.622  0.00  0.00    +0.000 C 
ATOM     31  C   UNL     1     112.412 126.035 137.052  0.00  0.00    +0.000 C 
ATOM     32  C   UNL     1     113.570 125.226 136.836  0.00  0.00    +0.000 C 
BRANCH  32  35
ATOM     33  O   UNL     1     114.833 125.394 136.188  0.00  0.00    +0.000 OA
ATOM     34  O   UNL     1     114.769 124.795 137.483  0.00  0.00    +0.000 OA
ATOM     35  C   UNL     1     114.390 125.138 136.836  0.00  0.00    +0.000 C 
ENDBRANCH  32  35
ENDBRANCH  23  31
ENDBRANCH   5  23
TORSDOF 5
ENDMDL
MODEL 6
REMARK VINA RESULT:      -9.0      9.700     11.905
REMARK  Name = 45782983
REMARK  5 active torsions:
REMARK  status: ('A' for Active; 'I' for Inactive)
REMARK    1  A    between atoms: O_2  and  C_17
REMARK    2  A    between atoms: O_2  and  C_20
REMARK    3  A    between atoms: O_11  and  C_32
REMARK    4  A    between atoms: C_18  and  C_19
REMARK    5  A    between atoms: C_21  and  C_25
REMARK                            x       y       z     vdW  Elec       q    Type
REMARK                         _______ _______ _______ _____ _____    ______ ____
ROOT
ATOM      1  O   UNL     1     112.965 127.183 136.209  0.00  0.00    +0.000 OA
ATOM      2  O   UNL     1     112.978 128.009 138.543  0.00  0.00    +0.000 OA
ATOM      3  O   UNL     1     113.415 129.314 138.109  0.00  0.00    +0.000 OA
ATOM      4  O   UNL     1     113.847 129.792 135.260  0.00  0.00    +0.000 OA
ATOM      5  C   UNL     1     112.755 126.955 137.604  0.00  0.00    +0.000 A 
ATOM      6  C   UNL     1     112.751 126.679 136.826  0.00  0.00    +0.000 A 
ATOM      7  C   UNL     1     112.974 127.734 137.764  0.00  0.00    +0.000 A 
ATOM      8  C   UNL     1     113.188 128.238 137.147  0.00  0.00    +0.000 A 
ATOM      9  C   UNL     1     113.184 127.963 136.370  0.00  0.00    +0.000 A 
ATOM     10  C   UNL     1     113.414 129.047 137.328  0.00  0.00    +0.000 A 
ATOM     11  C   UNL     1     113.404 128.477 135.719  0.00  0.00    +0.000 A 
ATOM     12  C   UNL     1     113.638 129.576 136.689  0.00  0.00    +0.000 A 
ATOM     13  C   UNL     1     113.633 129.290 135.879  0.00  0.00    +0.000 A 
ENDROOT
BRANCH   6  15
ATOM     14  O   UNL     1     111.873 123.563 136.185  0.00  0.00    +0.000 OA
ATOM     15  C   UNL     1     112.532 125.900 136.666  0.00  0.00    +0.000 A 
ATOM     16  C   UNL     1     111.804 125.741 136.311  0.00  0.00    +0.000 A 
ATOM     17  C   UNL     1     113.041 125.280 136.860  0.00  0.00    +0.000 A 
ATOM     18  C   UNL     1     111.585 124.962 136.151  0.00  0.00    +0.000 A 
ATOM     19  C   UNL     1     112.821 124.501 136.699  0.00  0.00    +0.000 A 
ATOM     20  C   UNL     1     112.093 124.342 136.345  0.00  0.00    +0.000 A 
BRANCH  18  21
ATOM     21  O   UNL     1     110.856 124.803 135.797  0.00  0.00    +0.000 OA
ATOM     22  C   UNL     1     110.476 125.387 135.355  0.00  0.00    +0.000 C 
ENDBRANCH  18  21
ENDBRANCH   6  15
BRANCH   5  23
ATOM     23  O   UNL     1     112.541 126.451 138.222  0.00  0.00    +0.000 OA
BRANCH  23  31
ATOM     24  O   UNL     1     111.243 127.023 138.394  0.00  0.00    +0.000 OA
ATOM     25  O   UNL     1     111.315 126.461 140.803  0.00  0.00    +0.000 OA
ATOM     26  O   UNL     1     112.589 126.076 139.828  0.00  0.00    +0.000 OA
ATOM     27  O   UNL     1     109.994 127.220 140.172  0.00  0.00    +0.000 OA
ATOM     28  C   UNL     1     111.291 126.649 140.000  0.00  0.00    +0.000 C 
ATOM     29  C   UNL     1     111.928 126.456 139.512  0.00  0.00    +0.000 C 
ATOM     30  C   UNL     1     110.630 127.028 139.684  0.00  0.00    +0.000 C 
ATOM     31  C   UNL     1     111.904 126.643 138.709  0.00  0.00    +0.000 C 
ATOM     32  C   UNL     1     110.606 127.215 138.881  0.00  0.00    +0.000 C 
BRANCH  32  35
ATOM     33  O   UNL     1     109.881 128.416 138.609  0.00  0.00    +0.000 OA
ATOM     34  O   UNL     1     109.349 127.153 138.207  0.00  0.00    +0.000 OA
ATOM     35  C   UNL     1     109.946 127.595 138.565  0.00  0.00    +0.000 C 
ENDBRANCH  32  35
ENDBRANCH  23  31
ENDBRANCH   5  23
TORSDOF 5
ENDMDL
MODEL 7
REMARK VINA RESULT:      -9.0      9.259     11.326
REMARK  Name = 45782983
REMARK  5 active torsions:
REMARK  status: ('A' for Active; 'I' for Inactive)
REMARK    1  A    between atoms: O_2  and  C_17
REMARK    2  A    between atoms: O_2  and  C_20
REMARK    3  A    between atoms: O_11  and  C_32
REMARK    4  A    between atoms: C_18  and  C_19
REMARK    5  A    between atoms: C_21  and  C_25
REMARK                            x       y       z     vdW  Elec       q    Type
REMARK                         _______ _______ _______ _____ _____    ______ ____
ROOT
ATOM      1  O   UNL     1     113.842 126.295 138.372  0.00  0.00    +0.000 OA
ATOM      2  O   UNL     1     111.774 125.034 137.861  0.00  0.00    +0.000 OA
ATOM      3  O   UNL     1     112.432 124.335 136.783  0.00  0.00    +0.000 OA
ATOM      4  O   UNL     1     115.235 124.924 136.213  0.00  0.00    +0.000 OA
ATOM      5  C   UNL     1     112.470 126.003 138.647  0.00  0.00    +0.000 A 
ATOM      6  C   UNL     1     113.160 126.424 138.817  0.00  0.00    +0.000 A 
ATOM      7  C   UNL     1     112.464 125.454 138.031  0.00  0.00    +0.000 A 
ATOM      8  C   UNL     1     113.146 125.326 137.585  0.00  0.00    +0.000 A 
ATOM      9  C   UNL     1     113.835 125.746 137.756  0.00  0.00    +0.000 A 
ATOM     10  C   UNL     1     113.126 124.751 136.947  0.00  0.00    +0.000 A 
ATOM     11  C   UNL     1     114.552 125.621 137.300  0.00  0.00    +0.000 A 
ATOM     12  C   UNL     1     113.833 124.613 136.479  0.00  0.00    +0.000 A 
ATOM     13  C   UNL     1     114.552 125.050 136.656  0.00  0.00    +0.000 A 
ENDROOT
BRANCH   6  15
ATOM     14  O   UNL     1     113.185 128.621 141.279  0.00  0.00    +0.000 OA
ATOM     15  C   UNL     1     113.166 126.972 139.433  0.00  0.00    +0.000 A 
ATOM     16  C   UNL     1     113.150 127.781 139.265  0.00  0.00    +0.000 A 
ATOM     17  C   UNL     1     113.189 126.714 140.216  0.00  0.00    +0.000 A 
ATOM     18  C   UNL     1     113.156 128.329 139.881  0.00  0.00    +0.000 A 
ATOM     19  C   UNL     1     113.195 127.264 140.831  0.00  0.00    +0.000 A 
ATOM     20  C   UNL     1     113.179 128.071 140.664  0.00  0.00    +0.000 A 
BRANCH  18  21
ATOM     21  O   UNL     1     113.139 129.137 139.713  0.00  0.00    +0.000 OA
ATOM     22  C   UNL     1     113.459 129.419 139.006  0.00  0.00    +0.000 C 
ENDBRANCH  18  21
ENDBRANCH   6  15
BRANCH   5  23
ATOM     23  O   UNL     1     111.788 126.132 139.092  0.00  0.00    +0.000 OA
BRANCH  23  31
ATOM     24  O   UNL     1     111.137 126.904 138.081  0.00  0.00    +0.000 OA
ATOM     25  O   UNL     1     108.937 126.114 138.895  0.00  0.00    +0.000 OA
ATOM     26  O   UNL     1     110.321 125.605 139.635  0.00  0.00    +0.000 OA
ATOM     27  O   UNL     1     109.019 127.149 137.614  0.00  0.00    +0.000 OA
ATOM     28  C   UNL     1     109.670 126.377 138.624  0.00  0.00    +0.000 C 
ATOM     29  C   UNL     1     110.363 126.123 138.994  0.00  0.00    +0.000 C 
ATOM     30  C   UNL     1     109.712 126.895 137.983  0.00  0.00    +0.000 C 
ATOM     31  C   UNL     1     111.096 126.386 138.723  0.00  0.00    +0.000 C 
ATOM     32  C   UNL     1     110.445 127.158 137.712  0.00  0.00    +0.000 C 
BRANCH  32  35
ATOM     33  O   UNL     1     110.465 127.382 136.301  0.00  0.00    +0.000 OA
ATOM     34  O   UNL     1     110.548 128.488 137.201  0.00  0.00    +0.000 OA
ATOM     35  C   UNL     1     110.486 127.676 137.071  0.00  0.00    +0.000 C 
ENDBRANCH  32  35
ENDBRANCH  23  31
ENDBRANCH   5  23
TORSDOF 5
ENDMDL
MODEL 8
REMARK VINA RESULT:      -8.9      9.963     12.174
REMARK  Name = 45782983
REMARK  5 active torsions:
REMARK  status: ('A' for Active; 'I' for Inactive)
REMARK    1  A    between atoms: O_2  and  C_17
REMARK    2  A    between atoms: O_2  and  C_20
REMARK    3  A    between atoms: O_11  and  C_32
REMARK    4  A    between atoms: C_18  and  C_19
REMARK    5  A    between atoms: C_21  and  C_25
REMARK                            x       y       z     vdW  Elec       q    Type
REMARK                         _______ _______ _______ _____ _____    ______ ____
ROOT
ATOM      1  O   UNL     1     113.188 127.301 136.411  0.00  0.00    +0.000 OA
ATOM      2  O   UNL     1     111.914 128.325 138.270  0.00  0.00    +0.000 OA
ATOM      3  O   UNL     1     112.285 129.649 137.834  0.00  0.00    +0.000 OA
ATOM      4  O   UNL     1     113.979 129.942 135.472  0.00  0.00    +0.000 OA
ATOM      5  C   UNL     1     112.359 127.163 137.567  0.00  0.00    +0.000 A 
ATOM      6  C   UNL     1     112.784 126.822 136.947  0.00  0.00    +0.000 A 
ATOM      7  C   UNL     1     112.339 127.983 137.650  0.00  0.00    +0.000 A 
ATOM      8  C   UNL     1     112.743 128.463 137.113  0.00  0.00    +0.000 A 
ATOM      9  C   UNL     1     113.167 128.122 136.494  0.00  0.00    +0.000 A 
ATOM     10  C   UNL     1     112.713 129.316 137.211  0.00  0.00    +0.000 A 
ATOM     11  C   UNL     1     113.592 128.610 135.929  0.00  0.00    +0.000 A 
ATOM     12  C   UNL     1     113.132 129.820 136.655  0.00  0.00    +0.000 A 
ATOM     13  C   UNL     1     113.574 129.465 136.010  0.00  0.00    +0.000 A 
ENDROOT
BRANCH   6  15
ATOM     14  O   UNL     1     112.869 123.539 136.617  0.00  0.00    +0.000 OA
ATOM     15  C   UNL     1     112.805 126.001 136.864  0.00  0.00    +0.000 A 
ATOM     16  C   UNL     1     113.484 125.582 137.077  0.00  0.00    +0.000 A 
ATOM     17  C   UNL     1     112.148 125.599 136.569  0.00  0.00    +0.000 A 
ATOM     18  C   UNL     1     113.505 124.762 136.995  0.00  0.00    +0.000 A 
ATOM     19  C   UNL     1     112.170 124.778 136.487  0.00  0.00    +0.000 A 
ATOM     20  C   UNL     1     112.847 124.360 136.700  0.00  0.00    +0.000 A 
BRANCH  18  21
ATOM     21  O   UNL     1     114.184 124.343 137.208  0.00  0.00    +0.000 OA
ATOM     22  C   UNL     1     114.915 124.724 137.225  0.00  0.00    +0.000 C 
ENDBRANCH  18  21
ENDBRANCH   6  15
BRANCH   5  23
ATOM     23  O   UNL     1     111.955 126.684 138.103  0.00  0.00    +0.000 OA
BRANCH  23  31
ATOM     24  O   UNL     1     112.916 126.897 139.140  0.00  0.00    +0.000 OA
ATOM     25  O   UNL     1     111.186 126.411 140.842  0.00  0.00    +0.000 OA
ATOM     26  O   UNL     1     110.802 126.359 139.238  0.00  0.00    +0.000 OA
ATOM     27  O   UNL     1     112.722 126.786 141.311  0.00  0.00    +0.000 OA
ATOM     28  C   UNL     1     111.763 126.573 140.275  0.00  0.00    +0.000 C 
ATOM     29  C   UNL     1     111.571 126.547 139.472  0.00  0.00    +0.000 C 
ATOM     30  C   UNL     1     112.531 126.761 140.509  0.00  0.00    +0.000 C 
ATOM     31  C   UNL     1     112.147 126.709 138.905  0.00  0.00    +0.000 C 
ATOM     32  C   UNL     1     113.108 126.923 139.941  0.00  0.00    +0.000 C 
BRANCH  32  35
ATOM     33  O   UNL     1     114.055 127.875 140.429  0.00  0.00    +0.000 OA
ATOM     34  O   UNL     1     114.465 126.534 140.157  0.00  0.00    +0.000 OA
ATOM     35  C   UNL     1     113.875 127.110 140.176  0.00  0.00    +0.000 C 
ENDBRANCH  32  35
ENDBRANCH  23  31
ENDBRANCH   5  23
TORSDOF 5
ENDMDL
MODEL 9
REMARK VINA RESULT:      -8.9     10.215     12.414
REMARK  Name = 45782983
REMARK  5 active torsions:
REMARK  status: ('A' for Active; 'I' for Inactive)
REMARK    1  A    between atoms: O_2  and  C_17
REMARK    2  A    between atoms: O_2  and  C_20
REMARK    3  A    between atoms: O_11  and  C_32
REMARK    4  A    between atoms: C_18  and  C_19
REMARK    5  A    between atoms: C_21  and  C_25
REMARK                            x       y       z     vdW  Elec       q    Type
REMARK                         _______ _______ _______ _____ _____    ______ ____
ROOT
ATOM      1  O   UNL     1     113.003 128.502 138.185  0.00  0.00    +0.000 OA
ATOM      2  O   UNL     1     112.354 127.256 136.146  0.00  0.00    +0.000 OA
ATOM      3  O   UNL     1     112.841 128.322 135.305  0.00  0.00    +0.000 OA
ATOM      4  O   UNL     1     114.007 130.693 136.550  0.00  0.00    +0.000 OA
ATOM      5  C   UNL     1     112.433 127.344 137.570  0.00  0.00    +0.000 A 
ATOM      6  C   UNL     1     112.649 127.760 138.250  0.00  0.00    +0.000 A 
ATOM      7  C   UNL     1     112.570 127.672 136.826  0.00  0.00    +0.000 A 
ATOM      8  C   UNL     1     112.923 128.414 136.761  0.00  0.00    +0.000 A 
ATOM      9  C   UNL     1     113.139 128.829 137.439  0.00  0.00    +0.000 A 
ATOM     10  C   UNL     1     113.061 128.745 135.979  0.00  0.00    +0.000 A 
ATOM     11  C   UNL     1     113.508 129.603 137.385  0.00  0.00    +0.000 A 
ATOM     12  C   UNL     1     113.428 129.517 135.905  0.00  0.00    +0.000 A 
ATOM     13  C   UNL     1     113.654 129.950 136.612  0.00  0.00    +0.000 A 
ENDROOT
BRANCH   6  15
ATOM     14  O   UNL     1     112.103 126.447 141.228  0.00  0.00    +0.000 OA
ATOM     15  C   UNL     1     112.512 127.432 138.994  0.00  0.00    +0.000 A 
ATOM     16  C   UNL     1     113.148 127.178 139.456  0.00  0.00    +0.000 A 
ATOM     17  C   UNL     1     111.741 127.357 139.277  0.00  0.00    +0.000 A 
ATOM     18  C   UNL     1     113.010 126.850 140.201  0.00  0.00    +0.000 A 
ATOM     19  C   UNL     1     111.605 127.029 140.022  0.00  0.00    +0.000 A 
ATOM     20  C   UNL     1     112.239 126.775 140.484  0.00  0.00    +0.000 A 
BRANCH  18  21
ATOM     21  O   UNL     1     113.646 126.596 140.663  0.00  0.00    +0.000 OA
ATOM     22  C   UNL     1     114.341 127.040 140.689  0.00  0.00    +0.000 C 
ENDBRANCH  18  21
ENDBRANCH   6  15
BRANCH   5  23
ATOM     23  O   UNL     1     112.080 126.601 137.636  0.00  0.00    +0.000 OA
BRANCH  23  31
ATOM     24  O   UNL     1     113.263 125.877 137.293  0.00  0.00    +0.000 OA
ATOM     25  O   UNL     1     111.878 124.091 136.284  0.00  0.00    +0.000 OA
ATOM     26  O   UNL     1     111.156 125.411 136.963  0.00  0.00    +0.000 OA
ATOM     27  O   UNL     1     113.522 123.963 136.278  0.00  0.00    +0.000 OA
ATOM     28  C   UNL     1     112.339 124.686 136.620  0.00  0.00    +0.000 C 
ATOM     29  C   UNL     1     111.978 125.347 136.960  0.00  0.00    +0.000 C 
ATOM     30  C   UNL     1     113.162 124.623 136.618  0.00  0.00    +0.000 C 
ATOM     31  C   UNL     1     112.440 125.942 137.297  0.00  0.00    +0.000 C 
ATOM     32  C   UNL     1     113.623 125.218 136.954  0.00  0.00    +0.000 C 
BRANCH  32  35
ATOM     33  O   UNL     1     114.876 125.388 136.287  0.00  0.00    +0.000 OA
ATOM     34  O   UNL     1     114.838 124.854 137.612  0.00  0.00    +0.000 OA
ATOM     35  C   UNL     1     114.445 125.153 136.951  0.00  0.00    +0.000 C 
ENDBRANCH  32  35
ENDBRANCH  23  31
ENDBRANCH   5  23
TORSDOF 5
ENDMDL
MODEL 10
REMARK VINA RESULT:      -8.9      9.933     12.239
REMARK  Name = 45782983
REMARK  5 active torsions:
REMARK  status: ('A' for Active; 'I' for Inactive)
REMARK    1  A    between atoms: O_2  and  C_17
REMARK    2  A    between atoms: O_2  and  C_20
REMARK    3  A    between atoms: O_11  and  C_32
REMARK    4  A    between atoms: C_18  and  C_19
REMARK    5  A    between atoms: C_21  and  C_25
REMARK                            x       y       z     vdW  Elec       q    Type
REMARK                         _______ _______ _______ _____ _____    ______ ____
ROOT
ATOM      1  O   UNL     1     111.768 128.858 135.619  0.00  0.00    +0.000 OA
ATOM      2  O   UNL     1     112.818 126.788 136.482  0.00  0.00    +0.000 OA
ATOM      3  O   UNL     1     114.136 127.319 136.231  0.00  0.00    +0.000 OA
ATOM      4  O   UNL     1     114.397 129.993 135.086  0.00  0.00    +0.000 OA
ATOM      5  C   UNL     1     111.646 127.548 136.180  0.00  0.00    +0.000 A 
ATOM      6  C   UNL     1     111.296 128.239 135.892  0.00  0.00    +0.000 A 
ATOM      7  C   UNL     1     112.468 127.479 136.194  0.00  0.00    +0.000 A 
ATOM      8  C   UNL     1     112.940 128.098 135.921  0.00  0.00    +0.000 A 
ATOM      9  C   UNL     1     112.590 128.787 135.634  0.00  0.00    +0.000 A 
ATOM     10  C   UNL     1     113.795 128.012 135.942  0.00  0.00    +0.000 A 
ATOM     11  C   UNL     1     113.070 129.439 135.347  0.00  0.00    +0.000 A 
ATOM     12  C   UNL     1     114.291 128.654 135.659  0.00  0.00    +0.000 A 
ATOM     13  C   UNL     1     113.927 129.372 135.360  0.00  0.00    +0.000 A 
ENDROOT
BRANCH   6  15
ATOM     14  O   UNL     1     108.008 128.520 135.836  0.00  0.00    +0.000 OA
ATOM     15  C   UNL     1     110.474 128.309 135.877  0.00  0.00    +0.000 A 
ATOM     16  C   UNL     1     110.091 128.784 136.433  0.00  0.00    +0.000 A 
ATOM     17  C   UNL     1     110.035 127.903 135.308  0.00  0.00    +0.000 A 
ATOM     18  C   UNL     1     109.269 128.854 136.418  0.00  0.00    +0.000 A 
ATOM     19  C   UNL     1     109.213 127.974 135.295  0.00  0.00    +0.000 A 
ATOM     20  C   UNL     1     108.830 128.449 135.849  0.00  0.00    +0.000 A 
BRANCH  18  21
ATOM     21  O   UNL     1     108.886 129.330 136.974  0.00  0.00    +0.000 OA
ATOM     22  C   UNL     1     109.262 130.002 137.271  0.00  0.00    +0.000 C 
ENDBRANCH  18  21
ENDBRANCH   6  15
BRANCH   5  23
ATOM     23  O   UNL     1     111.174 126.929 136.452  0.00  0.00    +0.000 OA
BRANCH  23  31
ATOM     24  O   UNL     1     111.407 127.202 137.835  0.00  0.00    +0.000 OA
ATOM     25  O   UNL     1     111.162 124.794 138.352  0.00  0.00    +0.000 OA
ATOM     26  O   UNL     1     111.010 125.324 136.797  0.00  0.00    +0.000 OA
ATOM     27  O   UNL     1     111.477 125.869 139.562  0.00  0.00    +0.000 OA
ATOM     28  C   UNL     1     111.244 125.597 138.180  0.00  0.00    +0.000 C 
ATOM     29  C   UNL     1     111.168 125.862 137.402  0.00  0.00    +0.000 C 
ATOM     30  C   UNL     1     111.402 126.135 138.785  0.00  0.00    +0.000 C 
ATOM     31  C   UNL     1     111.250 126.665 137.229  0.00  0.00    +0.000 C 
ATOM     32  C   UNL     1     111.483 126.938 138.612  0.00  0.00    +0.000 C 
BRANCH  32  35
ATOM     33  O   UNL     1     112.417 127.596 139.471  0.00  0.00    +0.000 OA
ATOM     34  O   UNL     1     111.023 127.892 139.570  0.00  0.00    +0.000 OA
ATOM     35  C   UNL     1     111.641 127.475 139.218  0.00  0.00    +0.000 C 
ENDBRANCH  32  35
ENDBRANCH  23  31
ENDBRANCH   5  23
TORSDOF 5
ENDMDL
