MODEL 1
REMARK VINA RESULT:      -8.1      0.000      0.000
REMARK  Name = 25232840
REMARK  2 active torsions:
REMARK  status: ('A' for Active; 'I' for Inactive)
REMARK    1  A    between atoms: O_4  and  C_19
REMARK    2  A    between atoms: C_5  and  C_10
REMARK                            x       y       z     vdW  Elec       q    Type
REMARK                         _______ _______ _______ _____ _____    ______ ____
ROOT
ATOM      1  O   UNL     1     105.572 124.474 147.880  0.00  0.00    +0.000 OA
ATOM      2  O   UNL     1     108.121 125.534 147.015  0.00  0.00    +0.000 OA
ATOM      3  O   UNL     1     107.872 124.366 149.611  0.00  0.00    +0.000 OA
ATOM      4  C   UNL     1     105.216 124.694 147.130  0.00  0.00    +0.000 C 
ATOM      5  C   UNL     1     105.696 125.079 146.530  0.00  0.00    +0.000 C 
ATOM      6  C   UNL     1     106.525 125.238 146.688  0.00  0.00    +0.000 C 
ATOM      7  C   UNL     1     106.864 125.010 147.444  0.00  0.00    +0.000 A 
ATOM      8  C   UNL     1     106.403 124.640 148.021  0.00  0.00    +0.000 A 
ATOM      9  C   UNL     1     107.660 125.164 147.591  0.00  0.00    +0.000 A 
ATOM     10  C   UNL     1     106.739 124.426 148.743  0.00  0.00    +0.000 A 
ATOM     11  C   UNL     1     107.996 124.950 148.312  0.00  0.00    +0.000 A 
ATOM     12  C   UNL     1     107.536 124.581 148.888  0.00  0.00    +0.000 A 
ENDROOT
BRANCH   4  13
ATOM     13  C   UNL     1     104.419 124.538 146.986  0.00  0.00    +0.000 A 
ATOM     14  C   UNL     1     104.203 123.922 146.483  0.00  0.00    +0.000 A 
ATOM     15  C   UNL     1     103.837 124.999 147.347  0.00  0.00    +0.000 A 
ATOM     16  C   UNL     1     103.405 123.766 146.339  0.00  0.00    +0.000 A 
ATOM     17  C   UNL     1     103.039 124.843 147.203  0.00  0.00    +0.000 A 
ATOM     18  C   UNL     1     102.824 124.227 146.700  0.00  0.00    +0.000 A 
BRANCH  18  19
ATOM     19  O   UNL     1     102.026 124.070 146.556  0.00  0.00    +0.000 OA
ATOM     20  C   UNL     1     101.633 123.494 146.995  0.00  0.00    +0.000 C 
ENDBRANCH  18  19
ENDBRANCH   4  13
TORSDOF 2
ENDMDL
MODEL 2
REMARK VINA RESULT:      -8.0      7.981      9.790
REMARK  Name = 25232840
REMARK  2 active torsions:
REMARK  status: ('A' for Active; 'I' for Inactive)
REMARK    1  A    between atoms: O_4  and  C_19
REMARK    2  A    between atoms: C_5  and  C_10
REMARK                            x       y       z     vdW  Elec       q    Type
REMARK                         _______ _______ _______ _____ _____    ______ ____
ROOT
ATOM      1  O   UNL     1     104.650 123.575 138.262  0.00  0.00    +0.000 OA
ATOM      2  O   UNL     1     101.839 123.408 137.597  0.00  0.00    +0.000 OA
ATOM      3  O   UNL     1     103.809 122.844 135.605  0.00  0.00    +0.000 OA
ATOM      4  C   UNL     1     104.454 123.799 139.068  0.00  0.00    +0.000 C 
ATOM      5  C   UNL     1     103.630 123.868 139.300  0.00  0.00    +0.000 C 
ATOM      6  C   UNL     1     103.012 123.713 138.724  0.00  0.00    +0.000 C 
ATOM      7  C   UNL     1     103.227 123.489 137.922  0.00  0.00    +0.000 A 
ATOM      8  C   UNL     1     104.018 123.423 137.699  0.00  0.00    +0.000 A 
ATOM      9  C   UNL     1     102.630 123.341 137.373  0.00  0.00    +0.000 A 
ATOM     10  C   UNL     1     104.213 123.208 136.927  0.00  0.00    +0.000 A 
ATOM     11  C   UNL     1     102.824 123.126 136.601  0.00  0.00    +0.000 A 
ATOM     12  C   UNL     1     103.615 123.059 136.378  0.00  0.00    +0.000 A 
ENDROOT
BRANCH   4  13
ATOM     13  C   UNL     1     105.053 123.947 139.615  0.00  0.00    +0.000 A 
ATOM     14  C   UNL     1     105.322 124.717 139.735  0.00  0.00    +0.000 A 
ATOM     15  C   UNL     1     105.384 123.324 140.043  0.00  0.00    +0.000 A 
ATOM     16  C   UNL     1     105.922 124.865 140.282  0.00  0.00    +0.000 A 
ATOM     17  C   UNL     1     105.984 123.471 140.591  0.00  0.00    +0.000 A 
ATOM     18  C   UNL     1     106.252 124.242 140.710  0.00  0.00    +0.000 A 
BRANCH  18  19
ATOM     19  O   UNL     1     106.852 124.390 141.257  0.00  0.00    +0.000 OA
ATOM     20  C   UNL     1     107.539 124.780 141.022  0.00  0.00    +0.000 C 
ENDBRANCH  18  19
ENDBRANCH   4  13
TORSDOF 2
ENDMDL
MODEL 3
REMARK VINA RESULT:      -7.8      8.142      8.980
REMARK  Name = 25232840
REMARK  2 active torsions:
REMARK  status: ('A' for Active; 'I' for Inactive)
REMARK    1  A    between atoms: O_4  and  C_19
REMARK    2  A    between atoms: C_5  and  C_10
REMARK                            x       y       z     vdW  Elec       q    Type
REMARK                         _______ _______ _______ _____ _____    ______ ____
ROOT
ATOM      1  O   UNL     1     103.028 130.522 142.315  0.00  0.00    +0.000 OA
ATOM      2  O   UNL     1     103.873 128.276 140.697  0.00  0.00    +0.000 OA
ATOM      3  O   UNL     1     104.927 128.608 143.333  0.00  0.00    +0.000 OA
ATOM      4  C   UNL     1     102.517 130.796 141.682  0.00  0.00    +0.000 C 
ATOM      5  C   UNL     1     102.478 130.354 140.947  0.00  0.00    +0.000 C 
ATOM      6  C   UNL     1     102.952 129.643 140.854  0.00  0.00    +0.000 C 
ATOM      7  C   UNL     1     103.458 129.384 141.498  0.00  0.00    +0.000 A 
ATOM      8  C   UNL     1     103.495 129.808 142.205  0.00  0.00    +0.000 A 
ATOM      9  C   UNL     1     103.910 128.701 141.404  0.00  0.00    +0.000 A 
ATOM     10  C   UNL     1     103.985 129.550 142.816  0.00  0.00    +0.000 A 
ATOM     11  C   UNL     1     104.400 128.442 142.015  0.00  0.00    +0.000 A 
ATOM     12  C   UNL     1     104.437 128.867 142.721  0.00  0.00    +0.000 A 
ENDROOT
BRANCH   4  13
ATOM     13  C   UNL     1     102.065 131.480 141.780  0.00  0.00    +0.000 A 
ATOM     14  C   UNL     1     102.388 132.217 141.600  0.00  0.00    +0.000 A 
ATOM     15  C   UNL     1     101.291 131.426 142.058  0.00  0.00    +0.000 A 
ATOM     16  C   UNL     1     101.936 132.900 141.697  0.00  0.00    +0.000 A 
ATOM     17  C   UNL     1     100.838 132.109 142.156  0.00  0.00    +0.000 A 
ATOM     18  C   UNL     1     101.162 132.847 141.975  0.00  0.00    +0.000 A 
BRANCH  18  19
ATOM     19  O   UNL     1     100.710 133.530 142.073  0.00  0.00    +0.000 OA
ATOM     20  C   UNL     1     100.860 134.194 141.607  0.00  0.00    +0.000 C 
ENDBRANCH  18  19
ENDBRANCH   4  13
TORSDOF 2
ENDMDL
MODEL 4
REMARK VINA RESULT:      -7.6     12.835     13.353
REMARK  Name = 25232840
REMARK  2 active torsions:
REMARK  status: ('A' for Active; 'I' for Inactive)
REMARK    1  A    between atoms: O_4  and  C_19
REMARK    2  A    between atoms: C_5  and  C_10
REMARK                            x       y       z     vdW  Elec       q    Type
REMARK                         _______ _______ _______ _____ _____    ______ ____
ROOT
ATOM      1  O   UNL     1     112.326 126.126 136.152  0.00  0.00    +0.000 OA
ATOM      2  O   UNL     1     112.516 123.362 136.987  0.00  0.00    +0.000 OA
ATOM      3  O   UNL     1     114.833 125.034 137.059  0.00  0.00    +0.000 OA
ATOM      4  C   UNL     1     111.490 126.025 135.982  0.00  0.00    +0.000 C 
ATOM      5  C   UNL     1     111.119 125.261 136.113  0.00  0.00    +0.000 C 
ATOM      6  C   UNL     1     111.590 124.607 136.411  0.00  0.00    +0.000 C 
ATOM      7  C   UNL     1     112.425 124.726 136.575  0.00  0.00    +0.000 A 
ATOM      8  C   UNL     1     112.781 125.460 136.450  0.00  0.00    +0.000 A 
ATOM      9  C   UNL     1     112.872 124.095 136.862  0.00  0.00    +0.000 A 
ATOM     10  C   UNL     1     113.583 125.563 136.611  0.00  0.00    +0.000 A 
ATOM     11  C   UNL     1     113.674 124.197 137.023  0.00  0.00    +0.000 A 
ATOM     12  C   UNL     1     114.030 124.931 136.897  0.00  0.00    +0.000 A 
ENDROOT
BRANCH   4  13
ATOM     13  C   UNL     1     111.045 126.658 135.696  0.00  0.00    +0.000 A 
ATOM     14  C   UNL     1     110.833 126.687 134.899  0.00  0.00    +0.000 A 
ATOM     15  C   UNL     1     110.812 127.263 136.206  0.00  0.00    +0.000 A 
ATOM     16  C   UNL     1     110.388 127.320 134.613  0.00  0.00    +0.000 A 
ATOM     17  C   UNL     1     110.367 127.897 135.920  0.00  0.00    +0.000 A 
ATOM     18  C   UNL     1     110.156 127.925 135.123  0.00  0.00    +0.000 A 
BRANCH  18  19
ATOM     19  O   UNL     1     109.711 128.558 134.837  0.00  0.00    +0.000 OA
ATOM     20  C   UNL     1     110.085 129.259 134.615  0.00  0.00    +0.000 C 
ENDBRANCH  18  19
ENDBRANCH   4  13
TORSDOF 2
ENDMDL
MODEL 5
REMARK VINA RESULT:      -7.6      8.237      9.138
REMARK  Name = 25232840
REMARK  2 active torsions:
REMARK  status: ('A' for Active; 'I' for Inactive)
REMARK    1  A    between atoms: O_4  and  C_19
REMARK    2  A    between atoms: C_5  and  C_10
REMARK                            x       y       z     vdW  Elec       q    Type
REMARK                         _______ _______ _______ _____ _____    ______ ____
ROOT
ATOM      1  O   UNL     1     104.731 123.343 138.825  0.00  0.00    +0.000 OA
ATOM      2  O   UNL     1     105.405 125.494 140.641  0.00  0.00    +0.000 OA
ATOM      3  O   UNL     1     106.566 122.908 141.003  0.00  0.00    +0.000 OA
ATOM      4  C   UNL     1     104.212 123.867 138.385  0.00  0.00    +0.000 C 
ATOM      5  C   UNL     1     104.125 124.685 138.633  0.00  0.00    +0.000 C 
ATOM      6  C   UNL     1     104.559 124.969 139.318  0.00  0.00    +0.000 C 
ATOM      7  C   UNL     1     105.074 124.430 139.746  0.00  0.00    +0.000 A 
ATOM      8  C   UNL     1     105.158 123.645 139.508  0.00  0.00    +0.000 A 
ATOM      9  C   UNL     1     105.488 124.708 140.403  0.00  0.00    +0.000 A 
ATOM     10  C   UNL     1     105.655 123.137 139.927  0.00  0.00    +0.000 A 
ATOM     11  C   UNL     1     105.985 124.201 140.822  0.00  0.00    +0.000 A 
ATOM     12  C   UNL     1     106.069 123.416 140.584  0.00  0.00    +0.000 A 
ENDROOT
BRANCH   4  13
ATOM     13  C   UNL     1     103.799 123.586 137.728  0.00  0.00    +0.000 A 
ATOM     14  C   UNL     1     102.975 123.571 137.734  0.00  0.00    +0.000 A 
ATOM     15  C   UNL     1     104.211 123.320 137.065  0.00  0.00    +0.000 A 
ATOM     16  C   UNL     1     102.562 123.291 137.077  0.00  0.00    +0.000 A 
ATOM     17  C   UNL     1     103.799 123.039 136.407  0.00  0.00    +0.000 A 
ATOM     18  C   UNL     1     102.974 123.025 136.414  0.00  0.00    +0.000 A 
BRANCH  18  19
ATOM     19  O   UNL     1     102.561 122.744 135.757  0.00  0.00    +0.000 OA
ATOM     20  C   UNL     1     102.582 123.161 135.047  0.00  0.00    +0.000 C 
ENDBRANCH  18  19
ENDBRANCH   4  13
TORSDOF 2
ENDMDL
MODEL 6
REMARK VINA RESULT:      -7.5      1.237      2.306
REMARK  Name = 25232840
REMARK  2 active torsions:
REMARK  status: ('A' for Active; 'I' for Inactive)
REMARK    1  A    between atoms: O_4  and  C_19
REMARK    2  A    between atoms: C_5  and  C_10
REMARK                            x       y       z     vdW  Elec       q    Type
REMARK                         _______ _______ _______ _____ _____    ______ ____
ROOT
ATOM      1  O   UNL     1     104.358 124.321 146.280  0.00  0.00    +0.000 OA
ATOM      2  O   UNL     1     105.937 125.277 148.508  0.00  0.00    +0.000 OA
ATOM      3  O   UNL     1     107.013 125.358 145.862  0.00  0.00    +0.000 OA
ATOM      4  C   UNL     1     103.711 124.127 146.811  0.00  0.00    +0.000 C 
ATOM      5  C   UNL     1     103.794 124.277 147.653  0.00  0.00    +0.000 C 
ATOM      6  C   UNL     1     104.523 124.618 147.953  0.00  0.00    +0.000 C 
ATOM      7  C   UNL     1     105.160 124.806 147.406  0.00  0.00    +0.000 A 
ATOM      8  C   UNL     1     105.080 124.662 146.598  0.00  0.00    +0.000 A 
ATOM      9  C   UNL     1     105.857 125.134 147.700  0.00  0.00    +0.000 A 
ATOM     10  C   UNL     1     105.698 124.846 146.083  0.00  0.00    +0.000 A 
ATOM     11  C   UNL     1     106.475 125.318 147.185  0.00  0.00    +0.000 A 
ATOM     12  C   UNL     1     106.395 125.174 146.377  0.00  0.00    +0.000 A 
ENDROOT
BRANCH   4  13
ATOM     13  C   UNL     1     103.015 123.799 146.515  0.00  0.00    +0.000 A 
ATOM     14  C   UNL     1     102.300 124.201 146.600  0.00  0.00    +0.000 A 
ATOM     15  C   UNL     1     103.033 123.068 146.132  0.00  0.00    +0.000 A 
ATOM     16  C   UNL     1     101.603 123.873 146.304  0.00  0.00    +0.000 A 
ATOM     17  C   UNL     1     102.336 122.739 145.836  0.00  0.00    +0.000 A 
ATOM     18  C   UNL     1     101.622 123.142 145.921  0.00  0.00    +0.000 A 
BRANCH  18  19
ATOM     19  O   UNL     1     100.925 122.814 145.625  0.00  0.00    +0.000 OA
ATOM     20  C   UNL     1     100.793 122.791 144.811  0.00  0.00    +0.000 C 
ENDBRANCH  18  19
ENDBRANCH   4  13
TORSDOF 2
ENDMDL
MODEL 7
REMARK VINA RESULT:      -7.4     13.087     14.116
REMARK  Name = 25232840
REMARK  2 active torsions:
REMARK  status: ('A' for Active; 'I' for Inactive)
REMARK    1  A    between atoms: O_4  and  C_19
REMARK    2  A    between atoms: C_5  and  C_10
REMARK                            x       y       z     vdW  Elec       q    Type
REMARK                         _______ _______ _______ _____ _____    ______ ____
ROOT
ATOM      1  O   UNL     1     112.833 126.417 136.371  0.00  0.00    +0.000 OA
ATOM      2  O   UNL     1     114.098 123.977 137.274  0.00  0.00    +0.000 OA
ATOM      3  O   UNL     1     111.451 123.895 136.201  0.00  0.00    +0.000 OA
ATOM      4  C   UNL     1     113.531 126.868 136.586  0.00  0.00    +0.000 C 
ATOM      5  C   UNL     1     114.208 126.465 136.927  0.00  0.00    +0.000 C 
ATOM      6  C   UNL     1     114.179 125.615 137.049  0.00  0.00    +0.000 C 
ATOM      7  C   UNL     1     113.471 125.180 136.827  0.00  0.00    +0.000 A 
ATOM      8  C   UNL     1     112.821 125.567 136.500  0.00  0.00    +0.000 A 
ATOM      9  C   UNL     1     113.448 124.364 136.946  0.00  0.00    +0.000 A 
ATOM     10  C   UNL     1     112.147 125.139 136.291  0.00  0.00    +0.000 A 
ATOM     11  C   UNL     1     112.775 123.936 136.738  0.00  0.00    +0.000 A 
ATOM     12  C   UNL     1     112.125 124.323 136.410  0.00  0.00    +0.000 A 
ENDROOT
BRANCH   4  13
ATOM     13  C   UNL     1     113.551 127.684 136.466  0.00  0.00    +0.000 A 
ATOM     14  C   UNL     1     113.187 128.190 137.005  0.00  0.00    +0.000 A 
ATOM     15  C   UNL     1     113.937 127.995 135.805  0.00  0.00    +0.000 A 
ATOM     16  C   UNL     1     113.207 129.006 136.885  0.00  0.00    +0.000 A 
ATOM     17  C   UNL     1     113.957 128.811 135.685  0.00  0.00    +0.000 A 
ATOM     18  C   UNL     1     113.592 129.317 136.225  0.00  0.00    +0.000 A 
BRANCH  18  19
ATOM     19  O   UNL     1     113.613 130.133 136.105  0.00  0.00    +0.000 OA
ATOM     20  C   UNL     1     114.206 130.587 136.453  0.00  0.00    +0.000 C 
ENDBRANCH  18  19
ENDBRANCH   4  13
TORSDOF 2
ENDMDL
MODEL 8
REMARK VINA RESULT:      -7.3     12.154     13.245
REMARK  Name = 25232840
REMARK  2 active torsions:
REMARK  status: ('A' for Active; 'I' for Inactive)
REMARK    1  A    between atoms: O_4  and  C_19
REMARK    2  A    between atoms: C_5  and  C_10
REMARK                            x       y       z     vdW  Elec       q    Type
REMARK                         _______ _______ _______ _____ _____    ______ ____
ROOT
ATOM      1  O   UNL     1     110.531 127.331 135.715  0.00  0.00    +0.000 OA
ATOM      2  O   UNL     1     108.036 128.792 135.815  0.00  0.00    +0.000 OA
ATOM      3  O   UNL     1     110.388 130.060 134.803  0.00  0.00    +0.000 OA
ATOM      4  C   UNL     1     110.149 126.638 136.048  0.00  0.00    +0.000 C 
ATOM      5  C   UNL     1     109.312 126.667 136.241  0.00  0.00    +0.000 C 
ATOM      6  C   UNL     1     108.869 127.389 136.099  0.00  0.00    +0.000 C 
ATOM      7  C   UNL     1     109.269 128.073 135.764  0.00  0.00    +0.000 A 
ATOM      8  C   UNL     1     110.072 128.045 135.579  0.00  0.00    +0.000 A 
ATOM      9  C   UNL     1     108.839 128.763 135.629  0.00  0.00    +0.000 A 
ATOM     10  C   UNL     1     110.446 128.707 135.258  0.00  0.00    +0.000 A 
ATOM     11  C   UNL     1     109.212 129.425 135.309  0.00  0.00    +0.000 A 
ATOM     12  C   UNL     1     110.015 129.397 135.124  0.00  0.00    +0.000 A 
ENDROOT
BRANCH   4  13
ATOM     13  C   UNL     1     110.581 125.948 136.182  0.00  0.00    +0.000 A 
ATOM     14  C   UNL     1     110.742 125.434 135.558  0.00  0.00    +0.000 A 
ATOM     15  C   UNL     1     110.854 125.773 136.941  0.00  0.00    +0.000 A 
ATOM     16  C   UNL     1     111.175 124.744 135.692  0.00  0.00    +0.000 A 
ATOM     17  C   UNL     1     111.287 125.084 137.076  0.00  0.00    +0.000 A 
ATOM     18  C   UNL     1     111.447 124.569 136.451  0.00  0.00    +0.000 A 
BRANCH  18  19
ATOM     19  O   UNL     1     111.880 123.880 136.585  0.00  0.00    +0.000 OA
ATOM     20  C   UNL     1     112.677 123.926 136.791  0.00  0.00    +0.000 C 
ENDBRANCH  18  19
ENDBRANCH   4  13
TORSDOF 2
ENDMDL
MODEL 9
REMARK VINA RESULT:      -7.3      9.162     10.236
REMARK  Name = 25232840
REMARK  2 active torsions:
REMARK  status: ('A' for Active; 'I' for Inactive)
REMARK    1  A    between atoms: O_4  and  C_19
REMARK    2  A    between atoms: C_5  and  C_10
REMARK                            x       y       z     vdW  Elec       q    Type
REMARK                         _______ _______ _______ _____ _____    ______ ____
ROOT
ATOM      1  O   UNL     1     102.899 132.068 141.322  0.00  0.00    +0.000 OA
ATOM      2  O   UNL     1     100.710 133.797 142.091  0.00  0.00    +0.000 OA
ATOM      3  O   UNL     1     103.154 134.932 141.138  0.00  0.00    +0.000 OA
ATOM      4  C   UNL     1     102.432 131.375 141.519  0.00  0.00    +0.000 C 
ATOM      5  C   UNL     1     101.632 131.474 141.816  0.00  0.00    +0.000 C 
ATOM      6  C   UNL     1     101.310 132.264 141.913  0.00  0.00    +0.000 C 
ATOM      7  C   UNL     1     101.792 132.946 141.711  0.00  0.00    +0.000 A 
ATOM      8  C   UNL     1     102.561 132.851 141.425  0.00  0.00    +0.000 A 
ATOM      9  C   UNL     1     101.478 133.702 141.805  0.00  0.00    +0.000 A 
ATOM     10  C   UNL     1     103.015 133.513 141.234  0.00  0.00    +0.000 A 
ATOM     11  C   UNL     1     101.932 134.364 141.615  0.00  0.00    +0.000 A 
ATOM     12  C   UNL     1     102.700 134.269 141.329  0.00  0.00    +0.000 A 
ENDROOT
BRANCH   4  13
ATOM     13  C   UNL     1     102.749 130.619 141.423  0.00  0.00    +0.000 A 
ATOM     14  C   UNL     1     102.584 130.186 140.741  0.00  0.00    +0.000 A 
ATOM     15  C   UNL     1     103.231 130.297 142.009  0.00  0.00    +0.000 A 
ATOM     16  C   UNL     1     102.901 129.430 140.645  0.00  0.00    +0.000 A 
ATOM     17  C   UNL     1     103.549 129.541 141.914  0.00  0.00    +0.000 A 
ATOM     18  C   UNL     1     103.383 129.108 141.232  0.00  0.00    +0.000 A 
BRANCH  18  19
ATOM     19  O   UNL     1     103.700 128.352 141.136  0.00  0.00    +0.000 OA
ATOM     20  C   UNL     1     104.436 128.169 141.460  0.00  0.00    +0.000 C 
ENDBRANCH  18  19
ENDBRANCH   4  13
TORSDOF 2
ENDMDL
MODEL 10
REMARK VINA RESULT:      -7.3      0.876      4.539
REMARK  Name = 25232840
REMARK  2 active torsions:
REMARK  status: ('A' for Active; 'I' for Inactive)
REMARK    1  A    between atoms: O_4  and  C_19
REMARK    2  A    between atoms: C_5  and  C_10
REMARK                            x       y       z     vdW  Elec       q    Type
REMARK                         _______ _______ _______ _____ _____    ______ ____
ROOT
ATOM      1  O   UNL     1     104.416 124.035 146.812  0.00  0.00    +0.000 OA
ATOM      2  O   UNL     1     101.610 124.642 147.176  0.00  0.00    +0.000 OA
ATOM      3  O   UNL     1     102.413 122.776 145.167  0.00  0.00    +0.000 OA
ATOM      4  C   UNL     1     104.624 124.577 147.445  0.00  0.00    +0.000 C 
ATOM      5  C   UNL     1     104.003 125.006 147.857  0.00  0.00    +0.000 C 
ATOM      6  C   UNL     1     103.184 124.887 147.630  0.00  0.00    +0.000 C 
ATOM      7  C   UNL     1     102.994 124.341 146.994  0.00  0.00    +0.000 A 
ATOM      8  C   UNL     1     103.590 123.929 146.598  0.00  0.00    +0.000 A 
ATOM      9  C   UNL     1     102.206 124.231 146.781  0.00  0.00    +0.000 A 
ATOM     10  C   UNL     1     103.397 123.407 145.989  0.00  0.00    +0.000 A 
ATOM     11  C   UNL     1     102.012 123.710 146.172  0.00  0.00    +0.000 A 
ATOM     12  C   UNL     1     102.607 123.298 145.776  0.00  0.00    +0.000 A 
ENDROOT
BRANCH   4  13
ATOM     13  C   UNL     1     105.414 124.685 147.656  0.00  0.00    +0.000 A 
ATOM     14  C   UNL     1     105.945 125.010 147.116  0.00  0.00    +0.000 A 
ATOM     15  C   UNL     1     105.673 124.468 148.409  0.00  0.00    +0.000 A 
ATOM     16  C   UNL     1     106.735 125.118 147.328  0.00  0.00    +0.000 A 
ATOM     17  C   UNL     1     106.463 124.575 148.621  0.00  0.00    +0.000 A 
ATOM     18  C   UNL     1     106.994 124.901 148.080  0.00  0.00    +0.000 A 
BRANCH  18  19
ATOM     19  O   UNL     1     107.784 125.009 148.292  0.00  0.00    +0.000 OA
ATOM     20  C   UNL     1     108.108 124.575 148.913  0.00  0.00    +0.000 C 
ENDBRANCH  18  19
ENDBRANCH   4  13
TORSDOF 2
ENDMDL
