MODEL 1
REMARK VINA RESULT:     -10.3      0.000      0.000
REMARK  Name = 42608058
REMARK  10 active torsions:
REMARK  status: ('A' for Active; 'I' for Inactive)
REMARK    1  A    between atoms: O_1  and  C_20
REMARK    2  A    between atoms: O_1  and  C_23
REMARK    3  A    between atoms: O_4  and  C_24
REMARK    4  A    between atoms: O_4  and  C_37
REMARK    5  A    between atoms: O_12  and  C_36
REMARK    6  A    between atoms: O_12  and  C_46
REMARK    7  A    between atoms: O_18  and  C_44
REMARK    8  A    between atoms: C_26  and  C_30
REMARK    9  A    between atoms: C_35  and  C_38
REMARK   10  A    between atoms: C_42  and  C_47
REMARK                            x       y       z     vdW  Elec       q    Type
REMARK                         _______ _______ _______ _____ _____    ______ ____
ROOT
ATOM      1  O   UNL     1     109.018 126.161 139.720  0.00  0.00    +0.000 OA
ATOM      2  O   UNL     1     111.055 126.157 141.126  0.00  0.00    +0.000 OA
ATOM      3  C   UNL     1     110.493 127.027 138.282  0.00  0.00    +0.000 A 
ATOM      4  C   UNL     1     109.753 126.733 138.606  0.00  0.00    +0.000 A 
ATOM      5  C   UNL     1     111.200 127.026 138.770  0.00  0.00    +0.000 A 
ATOM      6  C   UNL     1     109.731 126.442 139.414  0.00  0.00    +0.000 A 
ATOM      7  C   UNL     1     108.984 125.878 140.494  0.00  0.00    +0.000 C 
ATOM      8  C   UNL     1     110.410 126.441 139.883  0.00  0.00    +0.000 A 
ATOM      9  C   UNL     1     111.158 126.731 139.576  0.00  0.00    +0.000 A 
ATOM     10  C   UNL     1     109.664 125.877 140.963  0.00  0.00    +0.000 C 
ATOM     11  C   UNL     1     110.376 126.158 140.658  0.00  0.00    +0.000 C 
ENDROOT
BRANCH   7  13
ATOM     12  C   UNL     1     106.847 125.034 141.412  0.00  0.00    +0.000 A 
ATOM     13  C   UNL     1     108.272 125.597 140.800  0.00  0.00    +0.000 A 
ATOM     14  C   UNL     1     106.984 125.846 141.367  0.00  0.00    +0.000 A 
ATOM     15  C   UNL     1     107.421 124.503 141.152  0.00  0.00    +0.000 A 
ATOM     16  C   UNL     1     107.696 126.128 141.061  0.00  0.00    +0.000 A 
ATOM     17  C   UNL     1     108.134 124.785 140.846  0.00  0.00    +0.000 A 
BRANCH  12  18
ATOM     18  O   UNL     1     106.134 124.752 141.718  0.00  0.00    +0.000 OA
BRANCH  18  27
ATOM     19  O   UNL     1     105.495 124.639 140.446  0.00  0.00    +0.000 OA
ATOM     20  O   UNL     1     104.150 122.740 141.289  0.00  0.00    +0.000 OA
ATOM     21  O   UNL     1     103.960 123.260 139.735  0.00  0.00    +0.000 OA
ATOM     22  O   UNL     1     105.237 123.486 142.281  0.00  0.00    +0.000 OA
ATOM     23  C   UNL     1     104.598 123.373 141.008  0.00  0.00    +0.000 C 
ATOM     24  C   UNL     1     104.503 123.633 140.231  0.00  0.00    +0.000 C 
ATOM     25  C   UNL     1     105.142 123.746 141.504  0.00  0.00    +0.000 C 
ATOM     26  C   UNL     1     104.952 124.266 139.950  0.00  0.00    +0.000 C 
ATOM     27  C   UNL     1     105.590 124.379 141.223  0.00  0.00    +0.000 C 
BRANCH  26  29
ATOM     28  O   UNL     1     104.628 125.304 139.021  0.00  0.00    +0.000 OA
ATOM     29  C   UNL     1     104.856 124.525 139.172  0.00  0.00    +0.000 C 
ENDBRANCH  26  29
ENDBRANCH  18  27
ENDBRANCH  12  18
ENDBRANCH   7  13
BRANCH   9  30
ATOM     30  O   UNL     1     111.832 126.726 140.052  0.00  0.00    +0.000 OA
ATOM     31  C   UNL     1     112.473 127.210 139.865  0.00  0.00    +0.000 C 
ENDBRANCH   9  30
BRANCH   3  32
ATOM     32  O   UNL     1     110.524 127.309 137.508  0.00  0.00    +0.000 OA
BRANCH  32  39
ATOM     33  O   UNL     1     110.978 126.128 136.844  0.00  0.00    +0.000 OA
ATOM     34  O   UNL     1     109.330 126.510 135.037  0.00  0.00    +0.000 OA
ATOM     35  O   UNL     1     110.333 125.202 134.976  0.00  0.00    +0.000 OA
ATOM     36  C   UNL     1     109.926 126.910 136.272  0.00  0.00    +0.000 C 
ATOM     37  C   UNL     1     109.879 126.382 135.639  0.00  0.00    +0.000 C 
ATOM     38  C   UNL     1     110.380 125.729 135.609  0.00  0.00    +0.000 C 
ATOM     39  C   UNL     1     110.476 126.783 136.874  0.00  0.00    +0.000 C 
ATOM     40  C   UNL     1     110.929 125.601 136.211  0.00  0.00    +0.000 C 
BRANCH  40  42
ATOM     41  O   UNL     1     112.250 125.056 136.169  0.00  0.00    +0.000 OA
ATOM     42  C   UNL     1     111.431 124.947 136.181  0.00  0.00    +0.000 C 
ENDBRANCH  40  42
BRANCH  36  43
ATOM     43  O   UNL     1     109.425 127.564 136.303  0.00  0.00    +0.000 OA
BRANCH  43  48
ATOM     44  O   UNL     1     110.386 128.379 135.630  0.00  0.00    +0.000 OA
ATOM     45  O   UNL     1     108.248 128.668 135.959  0.00  0.00    +0.000 OA
ATOM     46  O   UNL     1     108.622 130.035 135.114  0.00  0.00    +0.000 OA
ATOM     47  O   UNL     1     110.172 130.298 134.613  0.00  0.00    +0.000 OA
ATOM     48  C   UNL     1     109.611 128.248 135.881  0.00  0.00    +0.000 C 
ATOM     49  C   UNL     1     109.023 128.799 135.708  0.00  0.00    +0.000 C 
ATOM     50  C   UNL     1     109.210 129.483 135.286  0.00  0.00    +0.000 C 
ATOM     51  C   UNL     1     109.985 129.615 135.036  0.00  0.00    +0.000 C 
ATOM     52  C   UNL     1     110.574 129.062 135.208  0.00  0.00    +0.000 C 
ATOM     53  C   UNL     1     111.349 129.194 134.958  0.00  0.00    +0.000 C 
ENDBRANCH  43  48
ENDBRANCH  36  43
ENDBRANCH  32  39
ENDBRANCH   3  32
TORSDOF 10
ENDMDL
MODEL 2
REMARK VINA RESULT:     -10.0      5.425     10.201
REMARK  Name = 42608058
REMARK  10 active torsions:
REMARK  status: ('A' for Active; 'I' for Inactive)
REMARK    1  A    between atoms: O_1  and  C_20
REMARK    2  A    between atoms: O_1  and  C_23
REMARK    3  A    between atoms: O_4  and  C_24
REMARK    4  A    between atoms: O_4  and  C_37
REMARK    5  A    between atoms: O_12  and  C_36
REMARK    6  A    between atoms: O_12  and  C_46
REMARK    7  A    between atoms: O_18  and  C_44
REMARK    8  A    between atoms: C_26  and  C_30
REMARK    9  A    between atoms: C_35  and  C_38
REMARK   10  A    between atoms: C_42  and  C_47
REMARK                            x       y       z     vdW  Elec       q    Type
REMARK                         _______ _______ _______ _____ _____    ______ ____
ROOT
ATOM      1  O   UNL     1     108.707 129.244 145.428  0.00  0.00    +0.000 OA
ATOM      2  O   UNL     1     107.090 131.071 145.847  0.00  0.00    +0.000 OA
ATOM      3  C   UNL     1     107.065 128.100 146.423  0.00  0.00    +0.000 A 
ATOM      4  C   UNL     1     107.812 128.275 146.036  0.00  0.00    +0.000 A 
ATOM      5  C   UNL     1     106.505 128.734 146.568  0.00  0.00    +0.000 A 
ATOM      6  C   UNL     1     107.988 129.082 145.799  0.00  0.00    +0.000 A 
ATOM      7  C   UNL     1     108.887 130.015 145.196  0.00  0.00    +0.000 C 
ATOM      8  C   UNL     1     107.449 129.691 145.939  0.00  0.00    +0.000 A 
ATOM      9  C   UNL     1     106.698 129.535 146.325  0.00  0.00    +0.000 A 
ATOM     10  C   UNL     1     108.348 130.624 145.336  0.00  0.00    +0.000 C 
ATOM     11  C   UNL     1     107.629 130.462 145.707  0.00  0.00    +0.000 C 
ENDROOT
BRANCH   7  13
ATOM     12  C   UNL     1     111.042 130.502 144.082  0.00  0.00    +0.000 A 
ATOM     13  C   UNL     1     109.605 130.177 144.825  0.00  0.00    +0.000 A 
ATOM     14  C   UNL     1     111.032 130.098 144.801  0.00  0.00    +0.000 A 
ATOM     15  C   UNL     1     110.335 130.744 143.734  0.00  0.00    +0.000 A 
ATOM     16  C   UNL     1     110.313 129.935 145.173  0.00  0.00    +0.000 A 
ATOM     17  C   UNL     1     109.616 130.581 144.106  0.00  0.00    +0.000 A 
BRANCH  12  18
ATOM     18  O   UNL     1     111.760 130.664 143.710  0.00  0.00    +0.000 OA
BRANCH  18  27
ATOM     19  O   UNL     1     111.888 129.425 143.011  0.00  0.00    +0.000 OA
ATOM     20  O   UNL     1     112.829 130.621 141.059  0.00  0.00    +0.000 OA
ATOM     21  O   UNL     1     112.642 128.982 141.012  0.00  0.00    +0.000 OA
ATOM     22  O   UNL     1     112.389 131.462 142.408  0.00  0.00    +0.000 OA
ATOM     23  C   UNL     1     112.515 130.222 141.710  0.00  0.00    +0.000 C 
ATOM     24  C   UNL     1     112.422 129.403 141.686  0.00  0.00    +0.000 C 
ATOM     25  C   UNL     1     112.295 130.643 142.385  0.00  0.00    +0.000 C 
ATOM     26  C   UNL     1     112.108 129.004 142.337  0.00  0.00    +0.000 C 
ATOM     27  C   UNL     1     111.981 130.245 143.035  0.00  0.00    +0.000 C 
BRANCH  26  29
ATOM     28  O   UNL     1     111.262 127.852 142.376  0.00  0.00    +0.000 OA
ATOM     29  C   UNL     1     112.015 128.185 142.312  0.00  0.00    +0.000 C 
ENDBRANCH  26  29
ENDBRANCH  18  27
ENDBRANCH  12  18
ENDBRANCH   7  13
BRANCH   9  30
ATOM     30  O   UNL     1     106.165 130.150 146.460  0.00  0.00    +0.000 OA
ATOM     31  C   UNL     1     105.667 130.127 147.117  0.00  0.00    +0.000 C 
ENDBRANCH   9  30
BRANCH   3  32
ATOM     32  O   UNL     1     106.888 127.328 146.653  0.00  0.00    +0.000 OA
BRANCH  32  39
ATOM     33  O   UNL     1     106.005 127.052 145.564  0.00  0.00    +0.000 OA
ATOM     34  O   UNL     1     106.751 124.693 145.556  0.00  0.00    +0.000 OA
ATOM     35  O   UNL     1     105.619 125.204 144.471  0.00  0.00    +0.000 OA
ATOM     36  C   UNL     1     106.820 126.010 146.105  0.00  0.00    +0.000 C 
ATOM     37  C   UNL     1     106.502 125.479 145.559  0.00  0.00    +0.000 C 
ATOM     38  C   UNL     1     105.936 125.734 145.016  0.00  0.00    +0.000 C 
ATOM     39  C   UNL     1     106.571 126.797 146.108  0.00  0.00    +0.000 C 
ATOM     40  C   UNL     1     105.688 126.521 145.019  0.00  0.00    +0.000 C 
BRANCH  40  42
ATOM     41  O   UNL     1     105.344 127.268 143.850  0.00  0.00    +0.000 OA
ATOM     42  C   UNL     1     105.122 126.777 144.476  0.00  0.00    +0.000 C 
ENDBRANCH  40  42
BRANCH  36  43
ATOM     43  O   UNL     1     107.385 125.755 146.648  0.00  0.00    +0.000 OA
BRANCH  43  48
ATOM     44  O   UNL     1     106.348 125.351 147.544  0.00  0.00    +0.000 OA
ATOM     45  O   UNL     1     108.515 125.123 147.672  0.00  0.00    +0.000 OA
ATOM     46  O   UNL     1     108.042 124.405 149.080  0.00  0.00    +0.000 OA
ATOM     47  O   UNL     1     106.440 124.317 149.464  0.00  0.00    +0.000 OA
ATOM     48  C   UNL     1     107.149 125.395 147.352  0.00  0.00    +0.000 C 
ATOM     49  C   UNL     1     107.714 125.080 147.864  0.00  0.00    +0.000 C 
ATOM     50  C   UNL     1     107.478 124.720 148.568  0.00  0.00    +0.000 C 
ATOM     51  C   UNL     1     106.677 124.676 148.760  0.00  0.00    +0.000 C 
ATOM     52  C   UNL     1     106.111 124.992 148.248  0.00  0.00    +0.000 C 
ATOM     53  C   UNL     1     105.310 124.949 148.440  0.00  0.00    +0.000 C 
ENDBRANCH  43  48
ENDBRANCH  36  43
ENDBRANCH  32  39
ENDBRANCH   3  32
TORSDOF 10
ENDMDL
MODEL 3
REMARK VINA RESULT:     -10.0      5.396      9.578
REMARK  Name = 42608058
REMARK  10 active torsions:
REMARK  status: ('A' for Active; 'I' for Inactive)
REMARK    1  A    between atoms: O_1  and  C_20
REMARK    2  A    between atoms: O_1  and  C_23
REMARK    3  A    between atoms: O_4  and  C_24
REMARK    4  A    between atoms: O_4  and  C_37
REMARK    5  A    between atoms: O_12  and  C_36
REMARK    6  A    between atoms: O_12  and  C_46
REMARK    7  A    between atoms: O_18  and  C_44
REMARK    8  A    between atoms: C_26  and  C_30
REMARK    9  A    between atoms: C_35  and  C_38
REMARK   10  A    between atoms: C_42  and  C_47
REMARK                            x       y       z     vdW  Elec       q    Type
REMARK                         _______ _______ _______ _____ _____    ______ ____
ROOT
ATOM      1  O   UNL     1     104.587 128.125 142.924  0.00  0.00    +0.000 OA
ATOM      2  O   UNL     1     106.703 128.197 141.642  0.00  0.00    +0.000 OA
ATOM      3  C   UNL     1     105.712 126.475 143.926  0.00  0.00    +0.000 A 
ATOM      4  C   UNL     1     105.082 127.027 143.736  0.00  0.00    +0.000 A 
ATOM      5  C   UNL     1     106.446 126.500 143.481  0.00  0.00    +0.000 A 
ATOM      6  C   UNL     1     105.195 127.597 143.103  0.00  0.00    +0.000 A 
ATOM      7  C   UNL     1     104.684 128.677 142.318  0.00  0.00    +0.000 C 
ATOM      8  C   UNL     1     105.901 127.621 142.675  0.00  0.00    +0.000 A 
ATOM      9  C   UNL     1     106.541 127.077 142.852  0.00  0.00    +0.000 A 
ATOM     10  C   UNL     1     105.389 128.701 141.891  0.00  0.00    +0.000 C 
ATOM     11  C   UNL     1     105.998 128.173 142.069  0.00  0.00    +0.000 C 
ENDROOT
BRANCH   7  13
ATOM     12  C   UNL     1     102.859 130.260 141.782  0.00  0.00    +0.000 A 
ATOM     13  C   UNL     1     104.076 129.205 142.140  0.00  0.00    +0.000 A 
ATOM     14  C   UNL     1     103.243 130.305 142.511  0.00  0.00    +0.000 A 
ATOM     15  C   UNL     1     103.084 129.689 141.232  0.00  0.00    +0.000 A 
ATOM     16  C   UNL     1     103.851 129.777 142.690  0.00  0.00    +0.000 A 
ATOM     17  C   UNL     1     103.692 129.161 141.411  0.00  0.00    +0.000 A 
BRANCH  12  18
ATOM     18  O   UNL     1     102.251 130.788 141.603  0.00  0.00    +0.000 OA
BRANCH  18  27
ATOM     19  O   UNL     1     103.073 131.778 140.982  0.00  0.00    +0.000 OA
ATOM     20  O   UNL     1     101.642 133.562 141.928  0.00  0.00    +0.000 OA
ATOM     21  O   UNL     1     102.941 133.957 140.991  0.00  0.00    +0.000 OA
ATOM     22  O   UNL     1     101.296 131.978 142.235  0.00  0.00    +0.000 OA
ATOM     23  C   UNL     1     102.119 132.968 141.613  0.00  0.00    +0.000 C 
ATOM     24  C   UNL     1     102.768 133.165 141.144  0.00  0.00    +0.000 C 
ATOM     25  C   UNL     1     101.946 132.175 141.766  0.00  0.00    +0.000 C 
ATOM     26  C   UNL     1     103.245 132.570 140.828  0.00  0.00    +0.000 C 
ATOM     27  C   UNL     1     102.423 131.581 141.450  0.00  0.00    +0.000 C 
BRANCH  26  29
ATOM     28  O   UNL     1     103.995 132.414 139.621  0.00  0.00    +0.000 OA
ATOM     29  C   UNL     1     103.895 132.768 140.360  0.00  0.00    +0.000 C 
ENDBRANCH  26  29
ENDBRANCH  18  27
ENDBRANCH  12  18
ENDBRANCH   7  13
BRANCH   9  30
ATOM     30  O   UNL     1     107.243 127.108 142.419  0.00  0.00    +0.000 OA
ATOM     31  C   UNL     1     107.541 126.425 142.066  0.00  0.00    +0.000 C 
ENDBRANCH   9  30
BRANCH   3  32
ATOM     32  O   UNL     1     105.612 125.924 144.532  0.00  0.00    +0.000 OA
BRANCH  32  39
ATOM     33  O   UNL     1     106.340 126.746 145.447  0.00  0.00    +0.000 OA
ATOM     34  O   UNL     1     106.631 124.807 146.957  0.00  0.00    +0.000 OA
ATOM     35  O   UNL     1     107.261 126.275 147.368  0.00  0.00    +0.000 OA
ATOM     36  C   UNL     1     106.121 125.365 145.744  0.00  0.00    +0.000 C 
ATOM     37  C   UNL     1     106.534 125.453 146.454  0.00  0.00    +0.000 C 
ATOM     38  C   UNL     1     106.849 126.187 146.660  0.00  0.00    +0.000 C 
ATOM     39  C   UNL     1     106.024 126.011 145.241  0.00  0.00    +0.000 C 
ATOM     40  C   UNL     1     106.752 126.833 146.156  0.00  0.00    +0.000 C 
BRANCH  40  42
ATOM     41  O   UNL     1     106.563 128.205 146.509  0.00  0.00    +0.000 OA
ATOM     42  C   UNL     1     107.067 127.568 146.361  0.00  0.00    +0.000 C 
ENDBRANCH  40  42
BRANCH  36  43
ATOM     43  O   UNL     1     105.806 124.632 145.539  0.00  0.00    +0.000 OA
BRANCH  43  48
ATOM     44  O   UNL     1     104.668 124.877 146.367  0.00  0.00    +0.000 OA
ATOM     45  O   UNL     1     105.075 123.282 144.934  0.00  0.00    +0.000 OA
ATOM     46  O   UNL     1     103.571 122.853 145.459  0.00  0.00    +0.000 OA
ATOM     47  O   UNL     1     102.798 123.773 146.590  0.00  0.00    +0.000 OA
ATOM     48  C   UNL     1     105.054 124.416 145.801  0.00  0.00    +0.000 C 
ATOM     49  C   UNL     1     104.688 123.742 145.499  0.00  0.00    +0.000 C 
ATOM     50  C   UNL     1     103.936 123.527 145.762  0.00  0.00    +0.000 C 
ATOM     51  C   UNL     1     103.550 123.987 146.327  0.00  0.00    +0.000 C 
ATOM     52  C   UNL     1     103.916 124.662 146.630  0.00  0.00    +0.000 C 
ATOM     53  C   UNL     1     103.530 125.123 147.195  0.00  0.00    +0.000 C 
ENDBRANCH  43  48
ENDBRANCH  36  43
ENDBRANCH  32  39
ENDBRANCH   3  32
TORSDOF 10
ENDMDL
MODEL 4
REMARK VINA RESULT:     -10.0      3.954      6.781
REMARK  Name = 42608058
REMARK  10 active torsions:
REMARK  status: ('A' for Active; 'I' for Inactive)
REMARK    1  A    between atoms: O_1  and  C_20
REMARK    2  A    between atoms: O_1  and  C_23
REMARK    3  A    between atoms: O_4  and  C_24
REMARK    4  A    between atoms: O_4  and  C_37
REMARK    5  A    between atoms: O_12  and  C_36
REMARK    6  A    between atoms: O_12  and  C_46
REMARK    7  A    between atoms: O_18  and  C_44
REMARK    8  A    between atoms: C_26  and  C_30
REMARK    9  A    between atoms: C_35  and  C_38
REMARK   10  A    between atoms: C_42  and  C_47
REMARK                            x       y       z     vdW  Elec       q    Type
REMARK                         _______ _______ _______ _____ _____    ______ ____
ROOT
ATOM      1  O   UNL     1     111.892 129.363 140.305  0.00  0.00    +0.000 OA
ATOM      2  O   UNL     1     113.774 130.655 139.347  0.00  0.00    +0.000 OA
ATOM      3  C   UNL     1     112.088 128.361 138.318  0.00  0.00    +0.000 A 
ATOM      4  C   UNL     1     111.801 128.550 139.105  0.00  0.00    +0.000 A 
ATOM      5  C   UNL     1     112.741 128.809 137.985  0.00  0.00    +0.000 A 
ATOM      6  C   UNL     1     112.171 129.186 139.549  0.00  0.00    +0.000 A 
ATOM      7  C   UNL     1     112.239 129.971 140.741  0.00  0.00    +0.000 C 
ATOM      8  C   UNL     1     112.799 129.616 139.230  0.00  0.00    +0.000 A 
ATOM      9  C   UNL     1     113.099 129.440 138.444  0.00  0.00    +0.000 A 
ATOM     10  C   UNL     1     112.867 130.402 140.421  0.00  0.00    +0.000 C 
ATOM     11  C   UNL     1     113.147 130.224 139.666  0.00  0.00    +0.000 C 
ENDROOT
BRANCH   7  13
ATOM     12  C   UNL     1     111.402 130.504 143.008  0.00  0.00    +0.000 A 
ATOM     13  C   UNL     1     111.960 130.149 141.497  0.00  0.00    +0.000 A 
ATOM     14  C   UNL     1     111.015 130.806 142.344  0.00  0.00    +0.000 A 
ATOM     15  C   UNL     1     112.066 130.026 142.916  0.00  0.00    +0.000 A 
ATOM     16  C   UNL     1     111.295 130.629 141.588  0.00  0.00    +0.000 A 
ATOM     17  C   UNL     1     112.346 129.848 142.161  0.00  0.00    +0.000 A 
BRANCH  12  18
ATOM     18  O   UNL     1     111.122 130.682 143.764  0.00  0.00    +0.000 OA
BRANCH  18  27
ATOM     19  O   UNL     1     111.700 131.982 143.896  0.00  0.00    +0.000 OA
ATOM     20  O   UNL     1     112.268 131.490 146.255  0.00  0.00    +0.000 OA
ATOM     21  O   UNL     1     112.657 132.954 145.600  0.00  0.00    +0.000 OA
ATOM     22  O   UNL     1     111.501 130.354 145.337  0.00  0.00    +0.000 OA
ATOM     23  C   UNL     1     112.079 131.654 145.469  0.00  0.00    +0.000 C 
ATOM     24  C   UNL     1     112.273 132.386 145.141  0.00  0.00    +0.000 C 
ATOM     25  C   UNL     1     111.695 131.086 145.010  0.00  0.00    +0.000 C 
ATOM     26  C   UNL     1     112.084 132.550 144.355  0.00  0.00    +0.000 C 
ATOM     27  C   UNL     1     111.506 131.250 144.223  0.00  0.00    +0.000 C 
BRANCH  26  29
ATOM     28  O   UNL     1     111.699 133.737 143.658  0.00  0.00    +0.000 OA
ATOM     29  C   UNL     1     112.279 133.282 144.029  0.00  0.00    +0.000 C 
ENDBRANCH  26  29
ENDBRANCH  18  27
ENDBRANCH  12  18
ENDBRANCH   7  13
BRANCH   9  30
ATOM     30  O   UNL     1     113.726 129.876 138.133  0.00  0.00    +0.000 OA
ATOM     31  C   UNL     1     113.688 130.161 137.360  0.00  0.00    +0.000 C 
ENDBRANCH   9  30
BRANCH   3  32
ATOM     32  O   UNL     1     111.739 127.752 137.884  0.00  0.00    +0.000 OA
BRANCH  32  39
ATOM     33  O   UNL     1     110.768 128.558 137.213  0.00  0.00    +0.000 OA
ATOM     34  O   UNL     1     109.123 126.717 137.382  0.00  0.00    +0.000 OA
ATOM     35  O   UNL     1     108.701 128.136 136.655  0.00  0.00    +0.000 OA
ATOM     36  C   UNL     1     110.431 127.234 137.633  0.00  0.00    +0.000 C 
ATOM     37  C   UNL     1     109.671 127.331 137.326  0.00  0.00    +0.000 C 
ATOM     38  C   UNL     1     109.460 128.040 136.962  0.00  0.00    +0.000 C 
ATOM     39  C   UNL     1     110.979 127.848 137.577  0.00  0.00    +0.000 C 
ATOM     40  C   UNL     1     110.008 128.653 136.906  0.00  0.00    +0.000 C 
BRANCH  40  42
ATOM     41  O   UNL     1     110.267 129.670 135.935  0.00  0.00    +0.000 OA
ATOM     42  C   UNL     1     109.798 129.363 136.542  0.00  0.00    +0.000 C 
ENDBRANCH  40  42
BRANCH  36  43
ATOM     43  O   UNL     1     110.642 126.525 137.997  0.00  0.00    +0.000 OA
BRANCH  43  48
ATOM     44  O   UNL     1     110.970 125.968 136.723  0.00  0.00    +0.000 OA
ATOM     45  O   UNL     1     111.072 125.109 138.726  0.00  0.00    +0.000 OA
ATOM     46  O   UNL     1     111.615 123.844 137.816  0.00  0.00    +0.000 OA
ATOM     47  O   UNL     1     111.727 123.995 136.177  0.00  0.00    +0.000 OA
ATOM     48  C   UNL     1     110.913 125.892 137.543  0.00  0.00    +0.000 C 
ATOM     49  C   UNL     1     111.128 125.184 137.907  0.00  0.00    +0.000 C 
ATOM     50  C   UNL     1     111.400 124.552 137.452  0.00  0.00    +0.000 C 
ATOM     51  C   UNL     1     111.456 124.627 136.632  0.00  0.00    +0.000 C 
ATOM     52  C   UNL     1     111.241 125.336 136.267  0.00  0.00    +0.000 C 
ATOM     53  C   UNL     1     111.297 125.412 135.448  0.00  0.00    +0.000 C 
ENDBRANCH  43  48
ENDBRANCH  36  43
ENDBRANCH  32  39
ENDBRANCH   3  32
TORSDOF 10
ENDMDL
MODEL 5
REMARK VINA RESULT:      -9.9      3.475      9.049
REMARK  Name = 42608058
REMARK  10 active torsions:
REMARK  status: ('A' for Active; 'I' for Inactive)
REMARK    1  A    between atoms: O_1  and  C_20
REMARK    2  A    between atoms: O_1  and  C_23
REMARK    3  A    between atoms: O_4  and  C_24
REMARK    4  A    between atoms: O_4  and  C_37
REMARK    5  A    between atoms: O_12  and  C_36
REMARK    6  A    between atoms: O_12  and  C_46
REMARK    7  A    between atoms: O_18  and  C_44
REMARK    8  A    between atoms: C_26  and  C_30
REMARK    9  A    between atoms: C_35  and  C_38
REMARK   10  A    between atoms: C_42  and  C_47
REMARK                            x       y       z     vdW  Elec       q    Type
REMARK                         _______ _______ _______ _____ _____    ______ ____
ROOT
ATOM      1  O   UNL     1     107.342 126.293 142.564  0.00  0.00    +0.000 OA
ATOM      2  O   UNL     1     106.218 128.382 141.858  0.00  0.00    +0.000 OA
ATOM      3  C   UNL     1     105.733 126.418 144.109  0.00  0.00    +0.000 A 
ATOM      4  C   UNL     1     106.411 126.131 143.667  0.00  0.00    +0.000 A 
ATOM      5  C   UNL     1     105.343 127.143 143.865  0.00  0.00    +0.000 A 
ATOM      6  C   UNL     1     106.690 126.573 142.985  0.00  0.00    +0.000 A 
ATOM      7  C   UNL     1     107.619 126.709 141.908  0.00  0.00    +0.000 C 
ATOM      8  C   UNL     1     106.316 127.270 142.749  0.00  0.00    +0.000 A 
ATOM      9  C   UNL     1     105.636 127.572 143.180  0.00  0.00    +0.000 A 
ATOM     10  C   UNL     1     107.244 127.405 141.673  0.00  0.00    +0.000 C 
ATOM     11  C   UNL     1     106.593 127.686 142.093  0.00  0.00    +0.000 C 
ENDROOT
BRANCH   7  13
ATOM     12  C   UNL     1     109.573 125.867 140.643  0.00  0.00    +0.000 A 
ATOM     13  C   UNL     1     108.270 126.429 141.486  0.00  0.00    +0.000 A 
ATOM     14  C   UNL     1     109.639 126.555 141.095  0.00  0.00    +0.000 A 
ATOM     15  C   UNL     1     108.857 125.461 140.613  0.00  0.00    +0.000 A 
ATOM     16  C   UNL     1     108.988 126.835 141.517  0.00  0.00    +0.000 A 
ATOM     17  C   UNL     1     108.205 125.741 141.034  0.00  0.00    +0.000 A 
BRANCH  12  18
ATOM     18  O   UNL     1     110.225 125.587 140.222  0.00  0.00    +0.000 OA
BRANCH  18  27
ATOM     19  O   UNL     1     109.870 126.031 138.912  0.00  0.00    +0.000 OA
ATOM     20  O   UNL     1     112.194 126.798 138.540  0.00  0.00    +0.000 OA
ATOM     21  O   UNL     1     111.063 126.986 137.353  0.00  0.00    +0.000 OA
ATOM     22  O   UNL     1     111.775 126.099 139.975  0.00  0.00    +0.000 OA
ATOM     23  C   UNL     1     111.419 126.542 138.664  0.00  0.00    +0.000 C 
ATOM     24  C   UNL     1     110.854 126.636 138.071  0.00  0.00    +0.000 C 
ATOM     25  C   UNL     1     111.210 126.193 139.381  0.00  0.00    +0.000 C 
ATOM     26  C   UNL     1     110.079 126.381 138.194  0.00  0.00    +0.000 C 
ATOM     27  C   UNL     1     110.435 125.937 139.505  0.00  0.00    +0.000 C 
BRANCH  26  29
ATOM     28  O   UNL     1     108.865 126.970 137.722  0.00  0.00    +0.000 OA
ATOM     29  C   UNL     1     109.514 126.475 137.600  0.00  0.00    +0.000 C 
ENDBRANCH  26  29
ENDBRANCH  18  27
ENDBRANCH  12  18
ENDBRANCH   7  13
BRANCH   9  30
ATOM     30  O   UNL     1     105.268 128.269 142.938  0.00  0.00    +0.000 OA
ATOM     31  C   UNL     1     104.958 128.789 143.498  0.00  0.00    +0.000 C 
ENDBRANCH   9  30
BRANCH   3  32
ATOM     32  O   UNL     1     105.458 126.000 144.765  0.00  0.00    +0.000 OA
BRANCH  32  39
ATOM     33  O   UNL     1     106.317 126.639 145.711  0.00  0.00    +0.000 OA
ATOM     34  O   UNL     1     106.458 124.535 147.006  0.00  0.00    +0.000 OA
ATOM     35  O   UNL     1     107.270 125.875 147.520  0.00  0.00    +0.000 OA
ATOM     36  C   UNL     1     105.958 125.267 145.886  0.00  0.00    +0.000 C 
ATOM     37  C   UNL     1     106.411 125.236 146.575  0.00  0.00    +0.000 C 
ATOM     38  C   UNL     1     106.817 125.906 146.832  0.00  0.00    +0.000 C 
ATOM     39  C   UNL     1     105.911 125.968 145.454  0.00  0.00    +0.000 C 
ATOM     40  C   UNL     1     106.770 126.608 146.400  0.00  0.00    +0.000 C 
BRANCH  40  42
ATOM     41  O   UNL     1     106.781 128.001 146.717  0.00  0.00    +0.000 OA
ATOM     42  C   UNL     1     107.176 127.278 146.657  0.00  0.00    +0.000 C 
ENDBRANCH  40  42
BRANCH  36  43
ATOM     43  O   UNL     1     105.552 124.597 145.628  0.00  0.00    +0.000 OA
BRANCH  43  48
ATOM     44  O   UNL     1     104.447 124.941 146.467  0.00  0.00    +0.000 OA
ATOM     45  O   UNL     1     104.787 123.201 145.194  0.00  0.00    +0.000 OA
ATOM     46  O   UNL     1     103.299 122.848 145.816  0.00  0.00    +0.000 OA
ATOM     47  O   UNL     1     102.578 123.890 146.872  0.00  0.00    +0.000 OA
ATOM     48  C   UNL     1     104.808 124.420 145.939  0.00  0.00    +0.000 C 
ATOM     49  C   UNL     1     104.426 123.722 145.722  0.00  0.00    +0.000 C 
ATOM     50  C   UNL     1     103.682 123.545 146.033  0.00  0.00    +0.000 C 
ATOM     51  C   UNL     1     103.321 124.066 146.561  0.00  0.00    +0.000 C 
ATOM     52  C   UNL     1     103.704 124.765 146.778  0.00  0.00    +0.000 C 
ATOM     53  C   UNL     1     103.343 125.286 147.306  0.00  0.00    +0.000 C 
ENDBRANCH  43  48
ENDBRANCH  36  43
ENDBRANCH  32  39
ENDBRANCH   3  32
TORSDOF 10
ENDMDL
MODEL 6
REMARK VINA RESULT:      -9.9      5.110      7.553
REMARK  Name = 42608058
REMARK  10 active torsions:
REMARK  status: ('A' for Active; 'I' for Inactive)
REMARK    1  A    between atoms: O_1  and  C_20
REMARK    2  A    between atoms: O_1  and  C_23
REMARK    3  A    between atoms: O_4  and  C_24
REMARK    4  A    between atoms: O_4  and  C_37
REMARK    5  A    between atoms: O_12  and  C_36
REMARK    6  A    between atoms: O_12  and  C_46
REMARK    7  A    between atoms: O_18  and  C_44
REMARK    8  A    between atoms: C_26  and  C_30
REMARK    9  A    between atoms: C_35  and  C_38
REMARK   10  A    between atoms: C_42  and  C_47
REMARK                            x       y       z     vdW  Elec       q    Type
REMARK                         _______ _______ _______ _____ _____    ______ ____
ROOT
ATOM      1  O   UNL     1     112.282 130.588 141.428  0.00  0.00    +0.000 OA
ATOM      2  O   UNL     1     112.178 128.335 142.450  0.00  0.00    +0.000 OA
ATOM      3  C   UNL     1     112.472 129.316 139.601  0.00  0.00    +0.000 A 
ATOM      4  C   UNL     1     112.420 130.012 140.103  0.00  0.00    +0.000 A 
ATOM      5  C   UNL     1     112.436 128.534 139.955  0.00  0.00    +0.000 A 
ATOM      6  C   UNL     1     112.332 129.916 140.952  0.00  0.00    +0.000 A 
ATOM      7  C   UNL     1     112.198 130.509 142.245  0.00  0.00    +0.000 C 
ATOM      8  C   UNL     1     112.297 129.165 141.293  0.00  0.00    +0.000 A 
ATOM      9  C   UNL     1     112.348 128.459 140.807  0.00  0.00    +0.000 A 
ATOM     10  C   UNL     1     112.163 129.758 142.585  0.00  0.00    +0.000 C 
ATOM     11  C   UNL     1     112.213 129.086 142.110  0.00  0.00    +0.000 C 
ENDROOT
BRANCH   7  13
ATOM     12  C   UNL     1     112.049 132.523 143.675  0.00  0.00    +0.000 A 
ATOM     13  C   UNL     1     112.148 131.180 142.722  0.00  0.00    +0.000 A 
ATOM     14  C   UNL     1     111.365 132.104 143.481  0.00  0.00    +0.000 A 
ATOM     15  C   UNL     1     112.781 132.271 143.394  0.00  0.00    +0.000 A 
ATOM     16  C   UNL     1     111.415 131.432 143.004  0.00  0.00    +0.000 A 
ATOM     17  C   UNL     1     112.831 131.599 142.917  0.00  0.00    +0.000 A 
BRANCH  12  18
ATOM     18  O   UNL     1     111.999 133.194 144.152  0.00  0.00    +0.000 OA
BRANCH  18  27
ATOM     19  O   UNL     1     112.412 132.627 145.396  0.00  0.00    +0.000 OA
ATOM     20  O   UNL     1     110.605 133.857 146.558  0.00  0.00    +0.000 OA
ATOM     21  O   UNL     1     111.621 132.879 147.415  0.00  0.00    +0.000 OA
ATOM     22  O   UNL     1     110.794 134.015 144.927  0.00  0.00    +0.000 OA
ATOM     23  C   UNL     1     111.207 133.447 146.171  0.00  0.00    +0.000 C 
ATOM     24  C   UNL     1     111.715 132.958 146.599  0.00  0.00    +0.000 C 
ATOM     25  C   UNL     1     111.302 133.526 145.355  0.00  0.00    +0.000 C 
ATOM     26  C   UNL     1     112.318 132.548 146.212  0.00  0.00    +0.000 C 
ATOM     27  C   UNL     1     111.904 133.116 144.968  0.00  0.00    +0.000 C 
BRANCH  26  29
ATOM     28  O   UNL     1     113.632 132.229 146.675  0.00  0.00    +0.000 OA
ATOM     29  C   UNL     1     112.826 132.060 146.642  0.00  0.00    +0.000 C 
ENDBRANCH  26  29
ENDBRANCH  18  27
ENDBRANCH  12  18
ENDBRANCH   7  13
BRANCH   9  30
ATOM     30  O   UNL     1     112.313 127.712 141.156  0.00  0.00    +0.000 OA
ATOM     31  C   UNL     1     112.695 127.072 140.802  0.00  0.00    +0.000 C 
ENDBRANCH   9  30
BRANCH   3  32
ATOM     32  O   UNL     1     112.557 129.398 138.785  0.00  0.00    +0.000 OA
BRANCH  32  39
ATOM     33  O   UNL     1     111.161 129.325 138.484  0.00  0.00    +0.000 OA
ATOM     34  O   UNL     1     111.478 130.925 136.623  0.00  0.00    +0.000 OA
ATOM     35  O   UNL     1     109.978 130.318 136.943  0.00  0.00    +0.000 OA
ATOM     36  C   UNL     1     112.018 130.162 137.704  0.00  0.00    +0.000 C 
ATOM     37  C   UNL     1     111.373 130.392 137.244  0.00  0.00    +0.000 C 
ATOM     38  C   UNL     1     110.623 130.089 137.403  0.00  0.00    +0.000 C 
ATOM     39  C   UNL     1     111.912 129.628 138.324  0.00  0.00    +0.000 C 
ATOM     40  C   UNL     1     110.517 129.555 138.024  0.00  0.00    +0.000 C 
BRANCH  40  42
ATOM     41  O   UNL     1     109.644 128.435 138.183  0.00  0.00    +0.000 OA
ATOM     42  C   UNL     1     109.767 129.251 138.184  0.00  0.00    +0.000 C 
ENDBRANCH  40  42
BRANCH  36  43
ATOM     43  O   UNL     1     112.768 130.465 137.544  0.00  0.00    +0.000 OA
BRANCH  43  48
ATOM     44  O   UNL     1     113.042 129.376 136.660  0.00  0.00    +0.000 OA
ATOM     45  O   UNL     1     114.098 131.259 136.977  0.00  0.00    +0.000 OA
ATOM     46  O   UNL     1     115.037 130.567 135.809  0.00  0.00    +0.000 OA
ATOM     47  O   UNL     1     114.645 129.081 135.209  0.00  0.00    +0.000 OA
ATOM     48  C   UNL     1     113.238 130.119 136.960  0.00  0.00    +0.000 C 
ATOM     49  C   UNL     1     113.902 130.516 136.677  0.00  0.00    +0.000 C 
ATOM     50  C   UNL     1     114.372 130.170 136.093  0.00  0.00    +0.000 C 
ATOM     51  C   UNL     1     114.176 129.427 135.793  0.00  0.00    +0.000 C 
ATOM     52  C   UNL     1     113.510 129.030 136.077  0.00  0.00    +0.000 C 
ATOM     53  C   UNL     1     113.314 128.287 135.777  0.00  0.00    +0.000 C 
ENDBRANCH  43  48
ENDBRANCH  36  43
ENDBRANCH  32  39
ENDBRANCH   3  32
TORSDOF 10
ENDMDL
MODEL 7
REMARK VINA RESULT:      -9.9      4.946      6.985
REMARK  Name = 42608058
REMARK  10 active torsions:
REMARK  status: ('A' for Active; 'I' for Inactive)
REMARK    1  A    between atoms: O_1  and  C_20
REMARK    2  A    between atoms: O_1  and  C_23
REMARK    3  A    between atoms: O_4  and  C_24
REMARK    4  A    between atoms: O_4  and  C_37
REMARK    5  A    between atoms: O_12  and  C_36
REMARK    6  A    between atoms: O_12  and  C_46
REMARK    7  A    between atoms: O_18  and  C_44
REMARK    8  A    between atoms: C_26  and  C_30
REMARK    9  A    between atoms: C_35  and  C_38
REMARK   10  A    between atoms: C_42  and  C_47
REMARK                            x       y       z     vdW  Elec       q    Type
REMARK                         _______ _______ _______ _____ _____    ______ ____
ROOT
ATOM      1  O   UNL     1     107.760 129.123 143.175  0.00  0.00    +0.000 OA
ATOM      2  O   UNL     1     106.993 129.930 140.964  0.00  0.00    +0.000 OA
ATOM      3  C   UNL     1     109.415 130.539 142.674  0.00  0.00    +0.000 A 
ATOM      4  C   UNL     1     108.943 129.963 143.104  0.00  0.00    +0.000 A 
ATOM      5  C   UNL     1     109.149 130.819 141.907  0.00  0.00    +0.000 A 
ATOM      6  C   UNL     1     108.210 129.676 142.759  0.00  0.00    +0.000 A 
ATOM      7  C   UNL     1     107.055 128.840 142.854  0.00  0.00    +0.000 C 
ATOM      8  C   UNL     1     107.954 129.944 142.022  0.00  0.00    +0.000 A 
ATOM      9  C   UNL     1     108.414 130.520 141.579  0.00  0.00    +0.000 A 
ATOM     10  C   UNL     1     106.800 129.109 142.117  0.00  0.00    +0.000 C 
ATOM     11  C   UNL     1     107.249 129.661 141.701  0.00  0.00    +0.000 C 
ENDROOT
BRANCH   7  13
ATOM     12  C   UNL     1     105.706 127.182 144.102  0.00  0.00    +0.000 A 
ATOM     13  C   UNL     1     106.605 128.287 143.271  0.00  0.00    +0.000 A 
ATOM     14  C   UNL     1     105.618 127.988 144.259  0.00  0.00    +0.000 A 
ATOM     15  C   UNL     1     106.243 126.929 143.531  0.00  0.00    +0.000 A 
ATOM     16  C   UNL     1     106.067 128.540 143.843  0.00  0.00    +0.000 A 
ATOM     17  C   UNL     1     106.693 127.482 143.114  0.00  0.00    +0.000 A 
BRANCH  12  18
ATOM     18  O   UNL     1     105.256 126.630 144.518  0.00  0.00    +0.000 OA
BRANCH  18  27
ATOM     19  O   UNL     1     106.074 126.530 145.685  0.00  0.00    +0.000 OA
ATOM     20  O   UNL     1     105.724 124.080 145.723  0.00  0.00    +0.000 OA
ATOM     21  O   UNL     1     106.659 124.797 146.877  0.00  0.00    +0.000 OA
ATOM     22  O   UNL     1     105.023 124.995 144.543  0.00  0.00    +0.000 OA
ATOM     23  C   UNL     1     105.841 124.896 145.710  0.00  0.00    +0.000 C 
ATOM     24  C   UNL     1     106.308 125.255 146.287  0.00  0.00    +0.000 C 
ATOM     25  C   UNL     1     105.490 125.354 145.120  0.00  0.00    +0.000 C 
ATOM     26  C   UNL     1     106.425 126.072 146.275  0.00  0.00    +0.000 C 
ATOM     27  C   UNL     1     105.607 126.171 145.108  0.00  0.00    +0.000 C 
BRANCH  26  29
ATOM     28  O   UNL     1     107.600 126.800 146.642  0.00  0.00    +0.000 OA
ATOM     29  C   UNL     1     106.893 126.430 146.853  0.00  0.00    +0.000 C 
ENDBRANCH  26  29
ENDBRANCH  18  27
ENDBRANCH  12  18
ENDBRANCH   7  13
BRANCH   9  30
ATOM     30  O   UNL     1     108.150 130.782 140.842  0.00  0.00    +0.000 OA
ATOM     31  C   UNL     1     108.648 130.738 140.186  0.00  0.00    +0.000 C 
ENDBRANCH   9  30
BRANCH   3  32
ATOM     32  O   UNL     1     110.120 130.821 142.997  0.00  0.00    +0.000 OA
BRANCH  32  39
ATOM     33  O   UNL     1     110.915 129.713 142.572  0.00  0.00    +0.000 OA
ATOM     34  O   UNL     1     112.864 131.215 142.303  0.00  0.00    +0.000 OA
ATOM     35  O   UNL     1     113.009 129.607 141.967  0.00  0.00    +0.000 OA
ATOM     36  C   UNL     1     111.492 131.019 142.650  0.00  0.00    +0.000 C 
ATOM     37  C   UNL     1     112.214 130.714 142.393  0.00  0.00    +0.000 C 
ATOM     38  C   UNL     1     112.288 129.910 142.225  0.00  0.00    +0.000 C 
ATOM     39  C   UNL     1     110.842 130.518 142.740  0.00  0.00    +0.000 C 
ATOM     40  C   UNL     1     111.638 129.410 142.314  0.00  0.00    +0.000 C 
BRANCH  40  42
ATOM     41  O   UNL     1     111.502 128.045 142.716  0.00  0.00    +0.000 OA
ATOM     42  C   UNL     1     111.710 128.605 142.146  0.00  0.00    +0.000 C 
ENDBRANCH  40  42
BRANCH  36  43
ATOM     43  O   UNL     1     111.419 131.822 142.818  0.00  0.00    +0.000 OA
BRANCH  43  48
ATOM     44  O   UNL     1     111.741 131.609 144.194  0.00  0.00    +0.000 OA
ATOM     45  O   UNL     1     111.774 133.425 142.985  0.00  0.00    +0.000 OA
ATOM     46  O   UNL     1     112.274 134.012 144.443  0.00  0.00    +0.000 OA
ATOM     47  O   UNL     1     112.419 132.997 145.736  0.00  0.00    +0.000 OA
ATOM     48  C   UNL     1     111.669 132.117 143.548  0.00  0.00    +0.000 C 
ATOM     49  C   UNL     1     111.846 132.917 143.631  0.00  0.00    +0.000 C 
ATOM     50  C   UNL     1     112.097 133.212 144.360  0.00  0.00    +0.000 C 
ATOM     51  C   UNL     1     112.169 132.704 145.006  0.00  0.00    +0.000 C 
ATOM     52  C   UNL     1     111.991 131.902 144.923  0.00  0.00    +0.000 C 
ATOM     53  C   UNL     1     112.063 131.394 145.570  0.00  0.00    +0.000 C 
ENDBRANCH  43  48
ENDBRANCH  36  43
ENDBRANCH  32  39
ENDBRANCH   3  32
TORSDOF 10
ENDMDL
MODEL 8
REMARK VINA RESULT:      -9.8      3.852      7.005
REMARK  Name = 42608058
REMARK  10 active torsions:
REMARK  status: ('A' for Active; 'I' for Inactive)
REMARK    1  A    between atoms: O_1  and  C_20
REMARK    2  A    between atoms: O_1  and  C_23
REMARK    3  A    between atoms: O_4  and  C_24
REMARK    4  A    between atoms: O_4  and  C_37
REMARK    5  A    between atoms: O_12  and  C_36
REMARK    6  A    between atoms: O_12  and  C_46
REMARK    7  A    between atoms: O_18  and  C_44
REMARK    8  A    between atoms: C_26  and  C_30
REMARK    9  A    between atoms: C_35  and  C_38
REMARK   10  A    between atoms: C_42  and  C_47
REMARK                            x       y       z     vdW  Elec       q    Type
REMARK                         _______ _______ _______ _____ _____    ______ ____
ROOT
ATOM      1  O   UNL     1     112.288 128.137 139.899  0.00  0.00    +0.000 OA
ATOM      2  O   UNL     1     114.116 129.487 140.881  0.00  0.00    +0.000 OA
ATOM      3  C   UNL     1     111.133 129.356 141.373  0.00  0.00    +0.000 A 
ATOM      4  C   UNL     1     111.311 128.783 140.757  0.00  0.00    +0.000 A 
ATOM      5  C   UNL     1     111.766 129.824 141.714  0.00  0.00    +0.000 A 
ATOM      6  C   UNL     1     112.122 128.688 140.491  0.00  0.00    +0.000 A 
ATOM      7  C   UNL     1     113.063 128.036 139.635  0.00  0.00    +0.000 C 
ATOM      8  C   UNL     1     112.732 129.138 140.818  0.00  0.00    +0.000 A 
ATOM      9  C   UNL     1     112.571 129.714 141.434  0.00  0.00    +0.000 A 
ATOM     10  C   UNL     1     113.672 128.486 139.963  0.00  0.00    +0.000 C 
ATOM     11  C   UNL     1     113.507 129.037 140.554  0.00  0.00    +0.000 C 
ENDROOT
BRANCH   7  13
ATOM     12  C   UNL     1     113.562 126.385 137.861  0.00  0.00    +0.000 A 
ATOM     13  C   UNL     1     113.230 127.485 139.044  0.00  0.00    +0.000 A 
ATOM     14  C   UNL     1     113.554 126.150 138.652  0.00  0.00    +0.000 A 
ATOM     15  C   UNL     1     113.404 127.169 137.661  0.00  0.00    +0.000 A 
ATOM     16  C   UNL     1     113.387 126.701 139.243  0.00  0.00    +0.000 A 
ATOM     17  C   UNL     1     113.238 127.720 138.253  0.00  0.00    +0.000 A 
BRANCH  12  18
ATOM     18  O   UNL     1     113.728 125.834 137.269  0.00  0.00    +0.000 OA
BRANCH  18  27
ATOM     19  O   UNL     1     112.432 125.664 136.694  0.00  0.00    +0.000 OA
ATOM     20  O   UNL     1     112.742 123.209 136.717  0.00  0.00    +0.000 OA
ATOM     21  O   UNL     1     111.341 123.858 136.134  0.00  0.00    +0.000 OA
ATOM     22  O   UNL     1     113.935 124.196 137.285  0.00  0.00    +0.000 OA
ATOM     23  C   UNL     1     112.638 124.027 136.709  0.00  0.00    +0.000 C 
ATOM     24  C   UNL     1     111.938 124.352 136.418  0.00  0.00    +0.000 C 
ATOM     25  C   UNL     1     113.235 124.521 136.993  0.00  0.00    +0.000 C 
ATOM     26  C   UNL     1     111.835 125.170 136.410  0.00  0.00    +0.000 C 
ATOM     27  C   UNL     1     113.132 125.340 136.985  0.00  0.00    +0.000 C 
BRANCH  26  29
ATOM     28  O   UNL     1     111.157 126.044 135.503  0.00  0.00    +0.000 OA
ATOM     29  C   UNL     1     111.134 125.495 136.118  0.00  0.00    +0.000 C 
ENDBRANCH  26  29
ENDBRANCH  18  27
ENDBRANCH  12  18
ENDBRANCH   7  13
BRANCH   9  30
ATOM     30  O   UNL     1     113.187 130.160 141.756  0.00  0.00    +0.000 OA
ATOM     31  C   UNL     1     113.023 130.864 142.154  0.00  0.00    +0.000 C 
ENDBRANCH   9  30
BRANCH   3  32
ATOM     32  O   UNL     1     110.356 129.454 141.635  0.00  0.00    +0.000 OA
BRANCH  32  39
ATOM     33  O   UNL     1     110.035 130.442 140.654  0.00  0.00    +0.000 OA
ATOM     34  O   UNL     1     107.671 129.710 140.692  0.00  0.00    +0.000 OA
ATOM     35  O   UNL     1     108.137 130.941 139.699  0.00  0.00    +0.000 OA
ATOM     36  C   UNL     1     109.013 129.582 141.164  0.00  0.00    +0.000 C 
ATOM     37  C   UNL     1     108.459 129.954 140.679  0.00  0.00    +0.000 C 
ATOM     38  C   UNL     1     108.691 130.570 140.183  0.00  0.00    +0.000 C 
ATOM     39  C   UNL     1     109.801 129.826 141.151  0.00  0.00    +0.000 C 
ATOM     40  C   UNL     1     109.479 130.814 140.170  0.00  0.00    +0.000 C 
BRANCH  40  42
ATOM     41  O   UNL     1     110.145 132.063 139.979  0.00  0.00    +0.000 OA
ATOM     42  C   UNL     1     109.713 131.429 139.674  0.00  0.00    +0.000 C 
ENDBRANCH  40  42
BRANCH  36  43
ATOM     43  O   UNL     1     108.781 128.966 141.660  0.00  0.00    +0.000 OA
BRANCH  43  48
ATOM     44  O   UNL     1     108.438 129.912 142.675  0.00  0.00    +0.000 OA
ATOM     45  O   UNL     1     108.266 127.737 142.633  0.00  0.00    +0.000 OA
ATOM     46  O   UNL     1     107.666 128.069 144.134  0.00  0.00    +0.000 OA
ATOM     47  O   UNL     1     107.580 129.630 144.662  0.00  0.00    +0.000 OA
ATOM     48  C   UNL     1     108.480 129.131 142.411  0.00  0.00    +0.000 C 
ATOM     49  C   UNL     1     108.223 128.517 142.897  0.00  0.00    +0.000 C 
ATOM     50  C   UNL     1     107.923 128.683 143.648  0.00  0.00    +0.000 C 
ATOM     51  C   UNL     1     107.880 129.463 143.912  0.00  0.00    +0.000 C 
ATOM     52  C   UNL     1     108.138 130.078 143.425  0.00  0.00    +0.000 C 
ATOM     53  C   UNL     1     108.095 130.859 143.689  0.00  0.00    +0.000 C 
ENDBRANCH  43  48
ENDBRANCH  36  43
ENDBRANCH  32  39
ENDBRANCH   3  32
TORSDOF 10
ENDMDL
MODEL 9
REMARK VINA RESULT:      -9.8      6.303      9.849
REMARK  Name = 42608058
REMARK  10 active torsions:
REMARK  status: ('A' for Active; 'I' for Inactive)
REMARK    1  A    between atoms: O_1  and  C_20
REMARK    2  A    between atoms: O_1  and  C_23
REMARK    3  A    between atoms: O_4  and  C_24
REMARK    4  A    between atoms: O_4  and  C_37
REMARK    5  A    between atoms: O_12  and  C_36
REMARK    6  A    between atoms: O_12  and  C_46
REMARK    7  A    between atoms: O_18  and  C_44
REMARK    8  A    between atoms: C_26  and  C_30
REMARK    9  A    between atoms: C_35  and  C_38
REMARK   10  A    between atoms: C_42  and  C_47
REMARK                            x       y       z     vdW  Elec       q    Type
REMARK                         _______ _______ _______ _____ _____    ______ ____
ROOT
ATOM      1  O   UNL     1     104.024 129.350 142.860  0.00  0.00    +0.000 OA
ATOM      2  O   UNL     1     104.779 127.916 140.989  0.00  0.00    +0.000 OA
ATOM      3  C   UNL     1     105.398 127.965 143.951  0.00  0.00    +0.000 A 
ATOM      4  C   UNL     1     104.843 128.604 143.800  0.00  0.00    +0.000 A 
ATOM      5  C   UNL     1     105.660 127.468 143.302  0.00  0.00    +0.000 A 
ATOM      6  C   UNL     1     104.557 128.735 143.000  0.00  0.00    +0.000 A 
ATOM      7  C   UNL     1     103.743 129.486 142.097  0.00  0.00    +0.000 C 
ATOM      8  C   UNL     1     104.808 128.258 142.376  0.00  0.00    +0.000 A 
ATOM      9  C   UNL     1     105.363 127.615 142.510  0.00  0.00    +0.000 A 
ATOM     10  C   UNL     1     103.995 129.008 141.473  0.00  0.00    +0.000 C 
ATOM     11  C   UNL     1     104.527 128.394 141.612  0.00  0.00    +0.000 C 
ENDROOT
BRANCH   7  13
ATOM     12  C   UNL     1     102.145 131.328 141.676  0.00  0.00    +0.000 A 
ATOM     13  C   UNL     1     103.210 130.100 141.957  0.00  0.00    +0.000 A 
ATOM     14  C   UNL     1     102.471 131.229 142.427  0.00  0.00    +0.000 A 
ATOM     15  C   UNL     1     102.351 130.813 141.066  0.00  0.00    +0.000 A 
ATOM     16  C   UNL     1     103.004 130.615 142.567  0.00  0.00    +0.000 A 
ATOM     17  C   UNL     1     102.883 130.199 141.206  0.00  0.00    +0.000 A 
BRANCH  12  18
ATOM     18  O   UNL     1     101.612 131.942 141.536  0.00  0.00    +0.000 OA
BRANCH  18  27
ATOM     19  O   UNL     1     102.596 132.888 141.115  0.00  0.00    +0.000 OA
ATOM     20  O   UNL     1     101.260 134.721 142.106  0.00  0.00    +0.000 OA
ATOM     21  O   UNL     1     102.690 135.055 141.355  0.00  0.00    +0.000 OA
ATOM     22  O   UNL     1     100.720 133.164 142.197  0.00  0.00    +0.000 OA
ATOM     23  C   UNL     1     101.705 134.110 141.776  0.00  0.00    +0.000 C 
ATOM     24  C   UNL     1     102.421 134.277 141.400  0.00  0.00    +0.000 C 
ATOM     25  C   UNL     1     101.436 133.331 141.821  0.00  0.00    +0.000 C 
ATOM     26  C   UNL     1     102.866 133.666 141.070  0.00  0.00    +0.000 C 
ATOM     27  C   UNL     1     101.881 132.720 141.491  0.00  0.00    +0.000 C 
BRANCH  26  29
ATOM     28  O   UNL     1     103.702 133.602 139.911  0.00  0.00    +0.000 OA
ATOM     29  C   UNL     1     103.581 133.834 140.694  0.00  0.00    +0.000 C 
ENDBRANCH  26  29
ENDBRANCH  18  27
ENDBRANCH  12  18
ENDBRANCH   7  13
BRANCH   9  30
ATOM     30  O   UNL     1     105.609 127.142 141.879  0.00  0.00    +0.000 OA
ATOM     31  C   UNL     1     105.915 126.390 142.023  0.00  0.00    +0.000 C 
ENDBRANCH   9  30
BRANCH   3  32
ATOM     32  O   UNL     1     105.677 127.832 144.716  0.00  0.00    +0.000 OA
BRANCH  32  39
ATOM     33  O   UNL     1     106.363 129.075 144.875  0.00  0.00    +0.000 OA
ATOM     34  O   UNL     1     108.172 127.920 146.107  0.00  0.00    +0.000 OA
ATOM     35  O   UNL     1     108.254 129.548 145.855  0.00  0.00    +0.000 OA
ATOM     36  C   UNL     1     106.925 127.875 145.412  0.00  0.00    +0.000 C 
ATOM     37  C   UNL     1     107.569 128.305 145.696  0.00  0.00    +0.000 C 
ATOM     38  C   UNL     1     107.611 129.119 145.571  0.00  0.00    +0.000 C 
ATOM     39  C   UNL     1     106.322 128.260 145.001  0.00  0.00    +0.000 C 
ATOM     40  C   UNL     1     107.008 129.504 145.160  0.00  0.00    +0.000 C 
BRANCH  40  42
ATOM     41  O   UNL     1     106.471 130.814 145.353  0.00  0.00    +0.000 OA
ATOM     42  C   UNL     1     107.048 130.318 145.033  0.00  0.00    +0.000 C 
ENDBRANCH  40  42
BRANCH  36  43
ATOM     43  O   UNL     1     106.883 127.062 145.538  0.00  0.00    +0.000 OA
BRANCH  43  48
ATOM     44  O   UNL     1     106.224 127.275 146.787  0.00  0.00    +0.000 OA
ATOM     45  O   UNL     1     107.064 125.464 145.906  0.00  0.00    +0.000 OA
ATOM     46  O   UNL     1     106.496 124.878 147.340  0.00  0.00    +0.000 OA
ATOM     47  O   UNL     1     105.746 125.891 148.406  0.00  0.00    +0.000 OA
ATOM     48  C   UNL     1     106.599 126.768 146.255  0.00  0.00    +0.000 C 
ATOM     49  C   UNL     1     106.689 125.970 146.439  0.00  0.00    +0.000 C 
ATOM     50  C   UNL     1     106.405 125.677 147.156  0.00  0.00    +0.000 C 
ATOM     51  C   UNL     1     106.031 126.183 147.689  0.00  0.00    +0.000 C 
ATOM     52  C   UNL     1     105.940 126.983 147.505  0.00  0.00    +0.000 C 
ATOM     53  C   UNL     1     105.565 127.489 148.037  0.00  0.00    +0.000 C 
ENDBRANCH  43  48
ENDBRANCH  36  43
ENDBRANCH  32  39
ENDBRANCH   3  32
TORSDOF 10
ENDMDL
MODEL 10
REMARK VINA RESULT:      -9.8      3.741      6.015
REMARK  Name = 42608058
REMARK  10 active torsions:
REMARK  status: ('A' for Active; 'I' for Inactive)
REMARK    1  A    between atoms: O_1  and  C_20
REMARK    2  A    between atoms: O_1  and  C_23
REMARK    3  A    between atoms: O_4  and  C_24
REMARK    4  A    between atoms: O_4  and  C_37
REMARK    5  A    between atoms: O_12  and  C_36
REMARK    6  A    between atoms: O_12  and  C_46
REMARK    7  A    between atoms: O_18  and  C_44
REMARK    8  A    between atoms: C_26  and  C_30
REMARK    9  A    between atoms: C_35  and  C_38
REMARK   10  A    between atoms: C_42  and  C_47
REMARK                            x       y       z     vdW  Elec       q    Type
REMARK                         _______ _______ _______ _____ _____    ______ ____
ROOT
ATOM      1  O   UNL     1     106.961 126.607 143.777  0.00  0.00    +0.000 OA
ATOM      2  O   UNL     1     105.040 127.784 142.750  0.00  0.00    +0.000 OA
ATOM      3  C   UNL     1     108.014 127.769 142.185  0.00  0.00    +0.000 A 
ATOM      4  C   UNL     1     107.881 127.236 142.846  0.00  0.00    +0.000 A 
ATOM      5  C   UNL     1     107.348 128.177 141.829  0.00  0.00    +0.000 A 
ATOM      6  C   UNL     1     107.083 127.120 143.142  0.00  0.00    +0.000 A 
ATOM      7  C   UNL     1     106.199 126.487 144.070  0.00  0.00    +0.000 C 
ATOM      8  C   UNL     1     106.442 127.512 142.800  0.00  0.00    +0.000 A 
ATOM      9  C   UNL     1     106.557 128.048 142.138  0.00  0.00    +0.000 A 
ATOM     10  C   UNL     1     105.559 126.879 143.727  0.00  0.00    +0.000 C 
ATOM     11  C   UNL     1     105.680 127.392 143.093  0.00  0.00    +0.000 C 
ENDROOT
BRANCH   7  13
ATOM     12  C   UNL     1     105.833 124.951 145.975  0.00  0.00    +0.000 A 
ATOM     13  C   UNL     1     106.077 125.975 144.705  0.00  0.00    +0.000 A 
ATOM     14  C   UNL     1     105.731 124.680 145.202  0.00  0.00    +0.000 A 
ATOM     15  C   UNL     1     106.057 125.732 146.113  0.00  0.00    +0.000 A 
ATOM     16  C   UNL     1     105.853 125.193 144.567  0.00  0.00    +0.000 A 
ATOM     17  C   UNL     1     106.179 126.244 145.478  0.00  0.00    +0.000 A 
BRANCH  12  18
ATOM     18  O   UNL     1     105.711 124.438 146.610  0.00  0.00    +0.000 OA
BRANCH  18  27
ATOM     19  O   UNL     1     104.288 124.515 146.697  0.00  0.00    +0.000 OA
ATOM     20  O   UNL     1     104.445 124.654 149.164  0.00  0.00    +0.000 OA
ATOM     21  O   UNL     1     102.968 124.684 148.428  0.00  0.00    +0.000 OA
ATOM     22  O   UNL     1     105.817 124.531 148.255  0.00  0.00    +0.000 OA
ATOM     23  C   UNL     1     104.392 124.608 148.342  0.00  0.00    +0.000 C 
ATOM     24  C   UNL     1     103.654 124.623 147.974  0.00  0.00    +0.000 C 
ATOM     25  C   UNL     1     105.078 124.546 147.887  0.00  0.00    +0.000 C 
ATOM     26  C   UNL     1     103.602 124.576 147.152  0.00  0.00    +0.000 C 
ATOM     27  C   UNL     1     105.026 124.500 147.065  0.00  0.00    +0.000 C 
BRANCH  26  29
ATOM     28  O   UNL     1     102.699 124.074 146.163  0.00  0.00    +0.000 OA
ATOM     29  C   UNL     1     102.863 124.592 146.784  0.00  0.00    +0.000 C 
ENDBRANCH  26  29
ENDBRANCH  18  27
ENDBRANCH  12  18
ENDBRANCH   7  13
BRANCH   9  30
ATOM     30  O   UNL     1     105.910 128.436 141.802  0.00  0.00    +0.000 OA
ATOM     31  C   UNL     1     105.919 129.256 141.719  0.00  0.00    +0.000 C 
ENDBRANCH   9  30
BRANCH   3  32
ATOM     32  O   UNL     1     108.777 127.887 141.894  0.00  0.00    +0.000 OA
BRANCH  32  39
ATOM     33  O   UNL     1     108.757 126.827 140.936  0.00  0.00    +0.000 OA
ATOM     34  O   UNL     1     111.142 126.359 141.406  0.00  0.00    +0.000 OA
ATOM     35  O   UNL     1     110.328 125.456 140.292  0.00  0.00    +0.000 OA
ATOM     36  C   UNL     1     109.960 127.123 141.651  0.00  0.00    +0.000 C 
ATOM     37  C   UNL     1     110.347 126.515 141.250  0.00  0.00    +0.000 C 
ATOM     38  C   UNL     1     109.941 126.063 140.693  0.00  0.00    +0.000 C 
ATOM     39  C   UNL     1     109.165 127.279 141.494  0.00  0.00    +0.000 C 
ATOM     40  C   UNL     1     109.146 126.219 140.536  0.00  0.00    +0.000 C 
BRANCH  40  42
ATOM     41  O   UNL     1     108.364 126.137 139.343  0.00  0.00    +0.000 OA
ATOM     42  C   UNL     1     108.738 125.768 139.979  0.00  0.00    +0.000 C 
ENDBRANCH  40  42
BRANCH  36  43
ATOM     43  O   UNL     1     110.366 127.575 142.207  0.00  0.00    +0.000 OA
BRANCH  43  48
ATOM     44  O   UNL     1     110.778 128.485 141.186  0.00  0.00    +0.000 OA
ATOM     45  O   UNL     1     111.383 128.316 143.276  0.00  0.00    +0.000 OA
ATOM     46  O   UNL     1     112.302 129.596 142.788  0.00  0.00    +0.000 OA
ATOM     47  O   UNL     1     112.206 130.136 141.231  0.00  0.00    +0.000 OA
ATOM     48  C   UNL     1     110.827 128.216 141.964  0.00  0.00    +0.000 C 
ATOM     49  C   UNL     1     111.334 128.586 142.498  0.00  0.00    +0.000 C 
ATOM     50  C   UNL     1     111.795 129.226 142.254  0.00  0.00    +0.000 C 
ATOM     51  C   UNL     1     111.746 129.496 141.476  0.00  0.00    +0.000 C 
ATOM     52  C   UNL     1     111.238 129.125 140.941  0.00  0.00    +0.000 C 
ATOM     53  C   UNL     1     111.189 129.395 140.163  0.00  0.00    +0.000 C 
ENDBRANCH  43  48
ENDBRANCH  36  43
ENDBRANCH  32  39
ENDBRANCH   3  32
TORSDOF 10
ENDMDL
