MODEL 1
REMARK VINA RESULT:      -8.4      0.000      0.000
REMARK  Name = 44259689
REMARK  6 active torsions:
REMARK  status: ('A' for Active; 'I' for Inactive)
REMARK    1  A    between atoms: O_2  and  C_16
REMARK    2  A    between atoms: O_2  and  C_23
REMARK    3  A    between atoms: O_3  and  C_11
REMARK    4  A    between atoms: O_6  and  C_20
REMARK    5  A    between atoms: C_10  and  C_13
REMARK    6  A    between atoms: C_23  and  C_24
REMARK                            x       y       z     vdW  Elec       q    Type
REMARK                         _______ _______ _______ _____ _____    ______ ____
ROOT
ATOM      1  O   UNL     1     112.141 126.649 136.186  0.00  0.00    +0.000 OA
ATOM      2  O   UNL     1     109.917 125.487 134.753  0.00  0.00    +0.000 OA
ATOM      3  O   UNL     1     110.804 124.668 135.543  0.00  0.00    +0.000 OA
ATOM      4  C   UNL     1     111.041 126.075 135.477  0.00  0.00    +0.000 A 
ATOM      5  C   UNL     1     111.487 126.735 135.692  0.00  0.00    +0.000 A 
ATOM      6  C   UNL     1     112.350 125.901 136.466  0.00  0.00    +0.000 A 
ATOM      7  C   UNL     1     111.904 125.241 136.252  0.00  0.00    +0.000 A 
ATOM      8  C   UNL     1     111.250 125.329 135.757  0.00  0.00    +0.000 A 
ATOM      9  C   UNL     1     110.357 126.153 134.962  0.00  0.00    +0.000 A 
ATOM     10  C   UNL     1     111.279 127.519 135.406  0.00  0.00    +0.000 A 
ATOM     11  C   UNL     1     110.598 127.616 134.891  0.00  0.00    +0.000 A 
ATOM     12  C   UNL     1     110.134 126.929 134.668  0.00  0.00    +0.000 A 
ENDROOT
BRANCH   6  14
ATOM     13  O   UNL     1     114.969 125.555 138.442  0.00  0.00    +0.000 OA
ATOM     14  C   UNL     1     113.005 125.815 136.961  0.00  0.00    +0.000 A 
ATOM     15  C   UNL     1     112.947 126.009 137.760  0.00  0.00    +0.000 A 
ATOM     16  C   UNL     1     113.718 125.534 136.655  0.00  0.00    +0.000 A 
ATOM     17  C   UNL     1     113.602 125.922 138.254  0.00  0.00    +0.000 A 
ATOM     18  C   UNL     1     114.373 125.448 137.149  0.00  0.00    +0.000 A 
ATOM     19  C   UNL     1     114.315 125.642 137.949  0.00  0.00    +0.000 A 
BRANCH  17  20
ATOM     20  O   UNL     1     113.544 126.116 139.054  0.00  0.00    +0.000 OA
ATOM     21  C   UNL     1     112.884 126.527 139.332  0.00  0.00    +0.000 C 
ENDBRANCH  17  20
ENDBRANCH   6  14
BRANCH   7  22
ATOM     22  O   UNL     1     112.113 124.494 136.532  0.00  0.00    +0.000 OA
ATOM     23  C   UNL     1     111.550 123.892 136.561  0.00  0.00    +0.000 C 
ENDBRANCH   7  22
BRANCH  11  24
ATOM     24  O   UNL     1     110.392 128.365 134.612  0.00  0.00    +0.000 OA
BRANCH  24  25
ATOM     25  C   UNL     1     109.926 128.863 135.077  0.00  0.00    +0.000 C 
BRANCH  25  26
ATOM     26  C   UNL     1     109.761 129.630 134.821  0.00  0.00    +0.000 C 
ATOM     27  C   UNL     1     109.265 130.116 135.268  0.00  0.00    +0.000 C 
ATOM     28  C   UNL     1     109.101 130.883 135.011  0.00  0.00    +0.000 C 
ATOM     29  C   UNL     1     108.935 129.835 135.969  0.00  0.00    +0.000 C 
ENDBRANCH  25  26
ENDBRANCH  24  25
ENDBRANCH  11  24
TORSDOF 6
ENDMDL
MODEL 2
REMARK VINA RESULT:      -7.7      2.696      4.045
REMARK  Name = 44259689
REMARK  6 active torsions:
REMARK  status: ('A' for Active; 'I' for Inactive)
REMARK    1  A    between atoms: O_2  and  C_16
REMARK    2  A    between atoms: O_2  and  C_23
REMARK    3  A    between atoms: O_3  and  C_11
REMARK    4  A    between atoms: O_6  and  C_20
REMARK    5  A    between atoms: C_10  and  C_13
REMARK    6  A    between atoms: C_23  and  C_24
REMARK                            x       y       z     vdW  Elec       q    Type
REMARK                         _______ _______ _______ _____ _____    ______ ____
ROOT
ATOM      1  O   UNL     1     113.099 127.209 136.806  0.00  0.00    +0.000 OA
ATOM      2  O   UNL     1     113.147 129.183 138.915  0.00  0.00    +0.000 OA
ATOM      3  O   UNL     1     112.835 127.803 139.194  0.00  0.00    +0.000 OA
ATOM      4  C   UNL     1     113.123 128.186 137.849  0.00  0.00    +0.000 A 
ATOM      5  C   UNL     1     113.212 127.988 137.053  0.00  0.00    +0.000 A 
ATOM      6  C   UNL     1     112.899 126.627 137.356  0.00  0.00    +0.000 A 
ATOM      7  C   UNL     1     112.811 126.825 138.152  0.00  0.00    +0.000 A 
ATOM      8  C   UNL     1     112.923 127.605 138.398  0.00  0.00    +0.000 A 
ATOM      9  C   UNL     1     113.238 128.995 138.117  0.00  0.00    +0.000 A 
ATOM     10  C   UNL     1     113.420 128.585 136.470  0.00  0.00    +0.000 A 
ATOM     11  C   UNL     1     113.538 129.398 136.720  0.00  0.00    +0.000 A 
ATOM     12  C   UNL     1     113.446 129.604 137.549  0.00  0.00    +0.000 A 
ENDROOT
BRANCH   6  14
ATOM     13  O   UNL     1     112.453 123.510 136.370  0.00  0.00    +0.000 OA
ATOM     14  C   UNL     1     112.787 125.848 137.110  0.00  0.00    +0.000 A 
ATOM     15  C   UNL     1     112.065 125.618 136.784  0.00  0.00    +0.000 A 
ATOM     16  C   UNL     1     113.398 125.298 137.189  0.00  0.00    +0.000 A 
ATOM     17  C   UNL     1     111.954 124.838 136.537  0.00  0.00    +0.000 A 
ATOM     18  C   UNL     1     113.286 124.519 136.943  0.00  0.00    +0.000 A 
ATOM     19  C   UNL     1     112.564 124.289 136.617  0.00  0.00    +0.000 A 
BRANCH  17  20
ATOM     20  O   UNL     1     111.232 124.608 136.211  0.00  0.00    +0.000 OA
ATOM     21  C   UNL     1     110.825 125.119 135.707  0.00  0.00    +0.000 C 
ENDBRANCH  17  20
ENDBRANCH   6  14
BRANCH   7  22
ATOM     22  O   UNL     1     112.610 126.244 138.702  0.00  0.00    +0.000 OA
ATOM     23  C   UNL     1     112.252 126.456 139.414  0.00  0.00    +0.000 C 
ENDBRANCH   7  22
BRANCH  11  24
ATOM     24  O   UNL     1     113.739 129.977 136.167  0.00  0.00    +0.000 OA
BRANCH  24  25
ATOM     25  C   UNL     1     114.479 129.960 135.803  0.00  0.00    +0.000 C 
BRANCH  25  26
ATOM     26  C   UNL     1     114.808 130.655 135.505  0.00  0.00    +0.000 C 
ATOM     27  C   UNL     1     115.379 130.620 134.910  0.00  0.00    +0.000 C 
ATOM     28  C   UNL     1     115.708 131.316 134.613  0.00  0.00    +0.000 C 
ATOM     29  C   UNL     1     115.620 129.889 134.613  0.00  0.00    +0.000 C 
ENDBRANCH  25  26
ENDBRANCH  24  25
ENDBRANCH  11  24
TORSDOF 6
ENDMDL
MODEL 3
REMARK VINA RESULT:      -7.6      9.628     12.283
REMARK  Name = 44259689
REMARK  6 active torsions:
REMARK  status: ('A' for Active; 'I' for Inactive)
REMARK    1  A    between atoms: O_2  and  C_16
REMARK    2  A    between atoms: O_2  and  C_23
REMARK    3  A    between atoms: O_3  and  C_11
REMARK    4  A    between atoms: O_6  and  C_20
REMARK    5  A    between atoms: C_10  and  C_13
REMARK    6  A    between atoms: C_23  and  C_24
REMARK                            x       y       z     vdW  Elec       q    Type
REMARK                         _______ _______ _______ _____ _____    ______ ____
ROOT
ATOM      1  O   UNL     1     103.351 132.642 140.926  0.00  0.00    +0.000 OA
ATOM      2  O   UNL     1     100.888 131.529 141.948  0.00  0.00    +0.000 OA
ATOM      3  O   UNL     1     101.093 132.955 141.889  0.00  0.00    +0.000 OA
ATOM      4  C   UNL     1     102.133 132.091 141.431  0.00  0.00    +0.000 A 
ATOM      5  C   UNL     1     102.886 131.986 141.110  0.00  0.00    +0.000 A 
ATOM      6  C   UNL     1     103.062 133.404 141.063  0.00  0.00    +0.000 A 
ATOM      7  C   UNL     1     102.309 133.508 141.385  0.00  0.00    +0.000 A 
ATOM      8  C   UNL     1     101.845 132.851 141.568  0.00  0.00    +0.000 A 
ATOM      9  C   UNL     1     101.639 131.414 141.627  0.00  0.00    +0.000 A 
ATOM     10  C   UNL     1     103.197 131.199 140.962  0.00  0.00    +0.000 A 
ATOM     11  C   UNL     1     102.718 130.511 141.151  0.00  0.00    +0.000 A 
ATOM     12  C   UNL     1     101.934 130.620 141.486  0.00  0.00    +0.000 A 
ENDROOT
BRANCH   6  14
ATOM     13  O   UNL     1     104.921 136.027 140.325  0.00  0.00    +0.000 OA
ATOM     14  C   UNL     1     103.527 134.060 140.879  0.00  0.00    +0.000 A 
ATOM     15  C   UNL     1     104.061 134.356 141.434  0.00  0.00    +0.000 A 
ATOM     16  C   UNL     1     103.458 134.419 140.139  0.00  0.00    +0.000 A 
ATOM     17  C   UNL     1     104.525 135.013 141.249  0.00  0.00    +0.000 A 
ATOM     18  C   UNL     1     103.923 135.075 139.955  0.00  0.00    +0.000 A 
ATOM     19  C   UNL     1     104.457 135.372 140.510  0.00  0.00    +0.000 A 
BRANCH  17  20
ATOM     20  O   UNL     1     105.059 135.310 141.804  0.00  0.00    +0.000 OA
ATOM     21  C   UNL     1     105.256 134.861 142.468  0.00  0.00    +0.000 C 
ENDBRANCH  17  20
ENDBRANCH   6  14
BRANCH   7  22
ATOM     22  O   UNL     1     102.022 134.268 141.522  0.00  0.00    +0.000 OA
ATOM     23  C   UNL     1     101.245 134.375 141.777  0.00  0.00    +0.000 C 
ENDBRANCH   7  22
BRANCH  11  24
ATOM     24  O   UNL     1     103.009 129.752 141.012  0.00  0.00    +0.000 OA
BRANCH  24  25
ATOM     25  C   UNL     1     103.536 129.409 141.547  0.00  0.00    +0.000 C 
BRANCH  25  26
ATOM     26  C   UNL     1     103.920 128.704 141.353  0.00  0.00    +0.000 C 
ATOM     27  C   UNL     1     104.449 128.363 141.886  0.00  0.00    +0.000 C 
ATOM     28  C   UNL     1     104.833 127.659 141.692  0.00  0.00    +0.000 C 
ATOM     29  C   UNL     1     104.595 128.726 142.612  0.00  0.00    +0.000 C 
ENDBRANCH  25  26
ENDBRANCH  24  25
ENDBRANCH  11  24
TORSDOF 6
ENDMDL
MODEL 4
REMARK VINA RESULT:      -7.6      1.519      2.493
REMARK  Name = 44259689
REMARK  6 active torsions:
REMARK  status: ('A' for Active; 'I' for Inactive)
REMARK    1  A    between atoms: O_2  and  C_16
REMARK    2  A    between atoms: O_2  and  C_23
REMARK    3  A    between atoms: O_3  and  C_11
REMARK    4  A    between atoms: O_6  and  C_20
REMARK    5  A    between atoms: C_10  and  C_13
REMARK    6  A    between atoms: C_23  and  C_24
REMARK                            x       y       z     vdW  Elec       q    Type
REMARK                         _______ _______ _______ _____ _____    ______ ____
ROOT
ATOM      1  O   UNL     1     111.446 127.108 135.942  0.00  0.00    +0.000 OA
ATOM      2  O   UNL     1     113.209 129.335 135.409  0.00  0.00    +0.000 OA
ATOM      3  O   UNL     1     113.690 128.145 136.066  0.00  0.00    +0.000 OA
ATOM      4  C   UNL     1     112.317 128.210 135.678  0.00  0.00    +0.000 A 
ATOM      5  C   UNL     1     111.569 127.865 135.637  0.00  0.00    +0.000 A 
ATOM      6  C   UNL     1     112.072 126.697 136.289  0.00  0.00    +0.000 A 
ATOM      7  C   UNL     1     112.820 127.042 136.330  0.00  0.00    +0.000 A 
ATOM      8  C   UNL     1     112.942 127.799 136.024  0.00  0.00    +0.000 A 
ATOM      9  C   UNL     1     112.457 128.998 135.363  0.00  0.00    +0.000 A 
ATOM     10  C   UNL     1     110.909 128.283 135.278  0.00  0.00    +0.000 A 
ATOM     11  C   UNL     1     111.031 129.071 134.958  0.00  0.00    +0.000 A 
ATOM     12  C   UNL     1     111.810 129.431 135.001  0.00  0.00    +0.000 A 
ENDROOT
BRANCH   6  14
ATOM     13  O   UNL     1     111.580 123.671 137.507  0.00  0.00    +0.000 OA
ATOM     14  C   UNL     1     111.949 125.941 136.594  0.00  0.00    +0.000 A 
ATOM     15  C   UNL     1     111.667 125.847 137.363  0.00  0.00    +0.000 A 
ATOM     16  C   UNL     1     112.108 125.278 136.128  0.00  0.00    +0.000 A 
ATOM     17  C   UNL     1     111.545 125.089 137.668  0.00  0.00    +0.000 A 
ATOM     18  C   UNL     1     111.985 124.521 136.433  0.00  0.00    +0.000 A 
ATOM     19  C   UNL     1     111.703 124.427 137.203  0.00  0.00    +0.000 A 
BRANCH  17  20
ATOM     20  O   UNL     1     111.263 124.995 138.437  0.00  0.00    +0.000 OA
ATOM     21  C   UNL     1     110.770 125.568 138.770  0.00  0.00    +0.000 C 
ENDBRANCH  17  20
ENDBRANCH   6  14
BRANCH   7  22
ATOM     22  O   UNL     1     113.445 126.631 136.676  0.00  0.00    +0.000 OA
ATOM     23  C   UNL     1     114.224 126.843 136.503  0.00  0.00    +0.000 C 
ENDBRANCH   7  22
BRANCH  11  24
ATOM     24  O   UNL     1     110.402 129.480 134.612  0.00  0.00    +0.000 OA
BRANCH  24  25
ATOM     25  C   UNL     1     110.041 130.101 135.018  0.00  0.00    +0.000 C 
BRANCH  25  26
ATOM     26  C   UNL     1     109.474 130.565 134.641  0.00  0.00    +0.000 C 
ATOM     27  C   UNL     1     109.122 131.195 135.042  0.00  0.00    +0.000 C 
ATOM     28  C   UNL     1     108.554 131.659 134.664  0.00  0.00    +0.000 C 
ATOM     29  C   UNL     1     109.339 131.360 135.821  0.00  0.00    +0.000 C 
ENDBRANCH  25  26
ENDBRANCH  24  25
ENDBRANCH  11  24
TORSDOF 6
ENDMDL
MODEL 5
REMARK VINA RESULT:      -7.6      9.389     11.633
REMARK  Name = 44259689
REMARK  6 active torsions:
REMARK  status: ('A' for Active; 'I' for Inactive)
REMARK    1  A    between atoms: O_2  and  C_16
REMARK    2  A    between atoms: O_2  and  C_23
REMARK    3  A    between atoms: O_3  and  C_11
REMARK    4  A    between atoms: O_6  and  C_20
REMARK    5  A    between atoms: C_10  and  C_13
REMARK    6  A    between atoms: C_23  and  C_24
REMARK                            x       y       z     vdW  Elec       q    Type
REMARK                         _______ _______ _______ _____ _____    ______ ____
ROOT
ATOM      1  O   UNL     1     103.486 130.160 142.307  0.00  0.00    +0.000 OA
ATOM      2  O   UNL     1     104.364 127.747 140.983  0.00  0.00    +0.000 OA
ATOM      3  O   UNL     1     103.371 128.605 140.385  0.00  0.00    +0.000 OA
ATOM      4  C   UNL     1     103.921 128.966 141.653  0.00  0.00    +0.000 A 
ATOM      5  C   UNL     1     103.959 129.485 142.294  0.00  0.00    +0.000 A 
ATOM      6  C   UNL     1     102.974 130.318 141.679  0.00  0.00    +0.000 A 
ATOM      7  C   UNL     1     102.935 129.799 141.038  0.00  0.00    +0.000 A 
ATOM      8  C   UNL     1     103.409 129.124 141.026  0.00  0.00    +0.000 A 
ATOM      9  C   UNL     1     104.409 128.259 141.628  0.00  0.00    +0.000 A 
ATOM     10  C   UNL     1     104.489 129.332 142.954  0.00  0.00    +0.000 A 
ATOM     11  C   UNL     1     104.984 128.630 142.946  0.00  0.00    +0.000 A 
ATOM     12  C   UNL     1     104.944 128.090 142.278  0.00  0.00    +0.000 A 
ENDROOT
BRANCH   6  14
ATOM     13  O   UNL     1     101.080 133.019 141.735  0.00  0.00    +0.000 OA
ATOM     14  C   UNL     1     102.501 130.993 141.693  0.00  0.00    +0.000 A 
ATOM     15  C   UNL     1     102.795 131.709 141.407  0.00  0.00    +0.000 A 
ATOM     16  C   UNL     1     101.733 130.952 141.993  0.00  0.00    +0.000 A 
ATOM     17  C   UNL     1     102.320 132.384 141.421  0.00  0.00    +0.000 A 
ATOM     18  C   UNL     1     101.260 131.628 142.007  0.00  0.00    +0.000 A 
ATOM     19  C   UNL     1     101.554 132.344 141.721  0.00  0.00    +0.000 A 
BRANCH  17  20
ATOM     20  O   UNL     1     102.614 133.100 141.135  0.00  0.00    +0.000 OA
ATOM     21  C   UNL     1     103.401 133.308 141.273  0.00  0.00    +0.000 C 
ENDBRANCH  17  20
ENDBRANCH   6  14
BRANCH   7  22
ATOM     22  O   UNL     1     102.424 129.957 140.411  0.00  0.00    +0.000 OA
ATOM     23  C   UNL     1     102.278 129.377 139.843  0.00  0.00    +0.000 C 
ENDBRANCH   7  22
BRANCH  11  24
ATOM     24  O   UNL     1     105.495 128.476 143.575  0.00  0.00    +0.000 OA
BRANCH  24  25
ATOM     25  C   UNL     1     105.293 127.910 144.141  0.00  0.00    +0.000 C 
BRANCH  25  26
ATOM     26  C   UNL     1     105.617 127.949 144.898  0.00  0.00    +0.000 C 
ATOM     27  C   UNL     1     105.637 127.276 145.374  0.00  0.00    +0.000 C 
ATOM     28  C   UNL     1     105.962 127.316 146.132  0.00  0.00    +0.000 C 
ATOM     29  C   UNL     1     105.334 126.562 145.092  0.00  0.00    +0.000 C 
ENDBRANCH  25  26
ENDBRANCH  24  25
ENDBRANCH  11  24
TORSDOF 6
ENDMDL
MODEL 6
REMARK VINA RESULT:      -7.5      9.591     11.222
REMARK  Name = 44259689
REMARK  6 active torsions:
REMARK  status: ('A' for Active; 'I' for Inactive)
REMARK    1  A    between atoms: O_2  and  C_16
REMARK    2  A    between atoms: O_2  and  C_23
REMARK    3  A    between atoms: O_3  and  C_11
REMARK    4  A    between atoms: O_6  and  C_20
REMARK    5  A    between atoms: C_10  and  C_13
REMARK    6  A    between atoms: C_23  and  C_24
REMARK                            x       y       z     vdW  Elec       q    Type
REMARK                         _______ _______ _______ _____ _____    ______ ____
ROOT
ATOM      1  O   UNL     1     106.515 125.131 145.913  0.00  0.00    +0.000 OA
ATOM      2  O   UNL     1     105.827 127.443 144.323  0.00  0.00    +0.000 OA
ATOM      3  O   UNL     1     106.322 127.586 145.670  0.00  0.00    +0.000 OA
ATOM      4  C   UNL     1     106.174 126.274 145.126  0.00  0.00    +0.000 A 
ATOM      5  C   UNL     1     106.239 125.456 145.207  0.00  0.00    +0.000 A 
ATOM      6  C   UNL     1     106.728 125.626 146.539  0.00  0.00    +0.000 A 
ATOM      7  C   UNL     1     106.663 126.444 146.458  0.00  0.00    +0.000 A 
ATOM      8  C   UNL     1     106.387 126.768 145.751  0.00  0.00    +0.000 A 
ATOM      9  C   UNL     1     105.887 126.624 144.395  0.00  0.00    +0.000 A 
ATOM     10  C   UNL     1     106.021 124.930 144.562  0.00  0.00    +0.000 A 
ATOM     11  C   UNL     1     105.732 125.262 143.824  0.00  0.00    +0.000 A 
ATOM     12  C   UNL     1     105.665 126.114 143.740  0.00  0.00    +0.000 A 
ENDROOT
BRANCH   6  14
ATOM     13  O   UNL     1     107.836 124.327 149.362  0.00  0.00    +0.000 OA
ATOM     14  C   UNL     1     107.004 125.301 147.245  0.00  0.00    +0.000 A 
ATOM     15  C   UNL     1     106.473 124.976 147.786  0.00  0.00    +0.000 A 
ATOM     16  C   UNL     1     107.813 125.301 147.409  0.00  0.00    +0.000 A 
ATOM     17  C   UNL     1     106.751 124.652 148.492  0.00  0.00    +0.000 A 
ATOM     18  C   UNL     1     108.090 124.976 148.115  0.00  0.00    +0.000 A 
ATOM     19  C   UNL     1     107.559 124.652 148.657  0.00  0.00    +0.000 A 
BRANCH  17  20
ATOM     20  O   UNL     1     106.220 124.327 149.033  0.00  0.00    +0.000 OA
ATOM     21  C   UNL     1     105.483 124.681 149.152  0.00  0.00    +0.000 C 
ENDBRANCH  17  20
ENDBRANCH   6  14
BRANCH   7  22
ATOM     22  O   UNL     1     106.876 126.938 147.083  0.00  0.00    +0.000 OA
ATOM     23  C   UNL     1     106.510 127.672 147.171  0.00  0.00    +0.000 C 
ENDBRANCH   7  22
BRANCH  11  24
ATOM     24  O   UNL     1     105.520 124.764 143.201  0.00  0.00    +0.000 OA
BRANCH  24  25
ATOM     25  C   UNL     1     105.988 124.733 142.522  0.00  0.00    +0.000 C 
BRANCH  25  26
ATOM     26  C   UNL     1     105.728 124.315 141.860  0.00  0.00    +0.000 C 
ATOM     27  C   UNL     1     106.230 124.211 141.214  0.00  0.00    +0.000 C 
ATOM     28  C   UNL     1     105.969 123.792 140.552  0.00  0.00    +0.000 C 
ATOM     29  C   UNL     1     106.993 124.525 141.229  0.00  0.00    +0.000 C 
ENDBRANCH  25  26
ENDBRANCH  24  25
ENDBRANCH  11  24
TORSDOF 6
ENDMDL
MODEL 7
REMARK VINA RESULT:      -7.5     11.861     13.345
REMARK  Name = 44259689
REMARK  6 active torsions:
REMARK  status: ('A' for Active; 'I' for Inactive)
REMARK    1  A    between atoms: O_2  and  C_16
REMARK    2  A    between atoms: O_2  and  C_23
REMARK    3  A    between atoms: O_3  and  C_11
REMARK    4  A    between atoms: O_6  and  C_20
REMARK    5  A    between atoms: C_10  and  C_13
REMARK    6  A    between atoms: C_23  and  C_24
REMARK                            x       y       z     vdW  Elec       q    Type
REMARK                         _______ _______ _______ _____ _____    ______ ____
ROOT
ATOM      1  O   UNL     1     104.071 125.147 147.040  0.00  0.00    +0.000 OA
ATOM      2  O   UNL     1     106.017 124.290 145.083  0.00  0.00    +0.000 OA
ATOM      3  O   UNL     1     104.800 123.548 145.297  0.00  0.00    +0.000 OA
ATOM      4  C   UNL     1     105.034 124.724 146.072  0.00  0.00    +0.000 A 
ATOM      5  C   UNL     1     104.792 125.257 146.653  0.00  0.00    +0.000 A 
ATOM      6  C   UNL     1     103.593 124.503 146.845  0.00  0.00    +0.000 A 
ATOM      7  C   UNL     1     103.836 123.970 146.264  0.00  0.00    +0.000 A 
ATOM      8  C   UNL     1     104.557 124.081 145.878  0.00  0.00    +0.000 A 
ATOM      9  C   UNL     1     105.783 124.829 145.663  0.00  0.00    +0.000 A 
ATOM     10  C   UNL     1     105.281 125.932 146.865  0.00  0.00    +0.000 A 
ATOM     11  C   UNL     1     106.032 126.052 146.466  0.00  0.00    +0.000 A 
ATOM     12  C   UNL     1     106.285 125.497 145.861  0.00  0.00    +0.000 A 
ENDROOT
BRANCH   6  14
ATOM     13  O   UNL     1     100.711 124.064 148.389  0.00  0.00    +0.000 OA
ATOM     14  C   UNL     1     102.873 124.393 147.231  0.00  0.00    +0.000 A 
ATOM     15  C   UNL     1     102.855 124.057 147.984  0.00  0.00    +0.000 A 
ATOM     16  C   UNL     1     102.169 124.619 146.864  0.00  0.00    +0.000 A 
ATOM     17  C   UNL     1     102.134 123.947 148.370  0.00  0.00    +0.000 A 
ATOM     18  C   UNL     1     101.449 124.509 147.250  0.00  0.00    +0.000 A 
ATOM     19  C   UNL     1     101.431 124.173 148.003  0.00  0.00    +0.000 A 
BRANCH  17  20
ATOM     20  O   UNL     1     102.117 123.611 149.123  0.00  0.00    +0.000 OA
ATOM     21  C   UNL     1     102.780 123.658 149.612  0.00  0.00    +0.000 C 
ENDBRANCH  17  20
ENDBRANCH   6  14
BRANCH   7  22
ATOM     22  O   UNL     1     103.358 123.327 146.069  0.00  0.00    +0.000 OA
ATOM     23  C   UNL     1     103.641 122.742 145.561  0.00  0.00    +0.000 C 
ENDBRANCH   7  22
BRANCH  11  24
ATOM     24  O   UNL     1     106.508 126.697 146.663  0.00  0.00    +0.000 OA
BRANCH  24  25
ATOM     25  C   UNL     1     106.466 127.391 146.219  0.00  0.00    +0.000 C 
BRANCH  25  26
ATOM     26  C   UNL     1     107.038 127.978 146.315  0.00  0.00    +0.000 C 
ATOM     27  C   UNL     1     106.947 128.708 145.942  0.00  0.00    +0.000 C 
ATOM     28  C   UNL     1     107.519 129.295 146.039  0.00  0.00    +0.000 C 
ATOM     29  C   UNL     1     106.284 128.851 145.471  0.00  0.00    +0.000 C 
ENDBRANCH  25  26
ENDBRANCH  24  25
ENDBRANCH  11  24
TORSDOF 6
ENDMDL
MODEL 8
REMARK VINA RESULT:      -7.5      2.334      5.753
REMARK  Name = 44259689
REMARK  6 active torsions:
REMARK  status: ('A' for Active; 'I' for Inactive)
REMARK    1  A    between atoms: O_2  and  C_16
REMARK    2  A    between atoms: O_2  and  C_23
REMARK    3  A    between atoms: O_3  and  C_11
REMARK    4  A    between atoms: O_6  and  C_20
REMARK    5  A    between atoms: C_10  and  C_13
REMARK    6  A    between atoms: C_23  and  C_24
REMARK                            x       y       z     vdW  Elec       q    Type
REMARK                         _______ _______ _______ _____ _____    ______ ____
ROOT
ATOM      1  O   UNL     1     111.452 128.936 136.212  0.00  0.00    +0.000 OA
ATOM      2  O   UNL     1     114.162 129.908 136.456  0.00  0.00    +0.000 OA
ATOM      3  O   UNL     1     113.039 130.811 136.514  0.00  0.00    +0.000 OA
ATOM      4  C   UNL     1     112.792 129.416 136.333  0.00  0.00    +0.000 A 
ATOM      5  C   UNL     1     112.263 128.791 136.232  0.00  0.00    +0.000 A 
ATOM      6  C   UNL     1     111.169 129.708 136.293  0.00  0.00    +0.000 A 
ATOM      7  C   UNL     1     111.698 130.333 136.394  0.00  0.00    +0.000 A 
ATOM      8  C   UNL     1     112.510 130.186 136.413  0.00  0.00    +0.000 A 
ATOM      9  C   UNL     1     113.640 129.277 136.355  0.00  0.00    +0.000 A 
ATOM     10  C   UNL     1     112.546 127.983 136.147  0.00  0.00    +0.000 A 
ATOM     11  C   UNL     1     113.390 127.825 136.167  0.00  0.00    +0.000 A 
ATOM     12  C   UNL     1     113.941 128.476 136.271  0.00  0.00    +0.000 A 
ENDROOT
BRANCH   6  14
ATOM     13  O   UNL     1     107.922 130.289 136.212  0.00  0.00    +0.000 OA
ATOM     14  C   UNL     1     110.357 129.853 136.273  0.00  0.00    +0.000 A 
ATOM     15  C   UNL     1     109.914 129.816 136.968  0.00  0.00    +0.000 A 
ATOM     16  C   UNL     1     109.988 130.036 135.557  0.00  0.00    +0.000 A 
ATOM     17  C   UNL     1     109.102 129.961 136.947  0.00  0.00    +0.000 A 
ATOM     18  C   UNL     1     109.177 130.181 135.538  0.00  0.00    +0.000 A 
ATOM     19  C   UNL     1     108.733 130.144 136.232  0.00  0.00    +0.000 A 
BRANCH  17  20
ATOM     20  O   UNL     1     108.658 129.924 137.642  0.00  0.00    +0.000 OA
ATOM     21  C   UNL     1     109.021 130.059 138.371  0.00  0.00    +0.000 C 
ENDBRANCH  17  20
ENDBRANCH   6  14
BRANCH   7  22
ATOM     22  O   UNL     1     111.415 131.103 136.474  0.00  0.00    +0.000 OA
ATOM     23  C   UNL     1     111.871 131.671 136.862  0.00  0.00    +0.000 C 
ENDBRANCH   7  22
BRANCH  11  24
ATOM     24  O   UNL     1     113.669 127.053 136.085  0.00  0.00    +0.000 OA
BRANCH  24  25
ATOM     25  C   UNL     1     113.820 126.597 136.756  0.00  0.00    +0.000 C 
BRANCH  25  26
ATOM     26  C   UNL     1     114.171 125.854 136.680  0.00  0.00    +0.000 C 
ATOM     27  C   UNL     1     114.290 125.384 137.347  0.00  0.00    +0.000 C 
ATOM     28  C   UNL     1     114.641 124.641 137.270  0.00  0.00    +0.000 C 
ATOM     29  C   UNL     1     114.058 125.656 138.091  0.00  0.00    +0.000 C 
ENDBRANCH  25  26
ENDBRANCH  24  25
ENDBRANCH  11  24
TORSDOF 6
ENDMDL
MODEL 9
REMARK VINA RESULT:      -7.5      7.286      8.260
REMARK  Name = 44259689
REMARK  6 active torsions:
REMARK  status: ('A' for Active; 'I' for Inactive)
REMARK    1  A    between atoms: O_2  and  C_16
REMARK    2  A    between atoms: O_2  and  C_23
REMARK    3  A    between atoms: O_3  and  C_11
REMARK    4  A    between atoms: O_6  and  C_20
REMARK    5  A    between atoms: C_10  and  C_13
REMARK    6  A    between atoms: C_23  and  C_24
REMARK                            x       y       z     vdW  Elec       q    Type
REMARK                         _______ _______ _______ _____ _____    ______ ____
ROOT
ATOM      1  O   UNL     1     106.185 125.549 140.835  0.00  0.00    +0.000 OA
ATOM      2  O   UNL     1     104.818 123.174 141.753  0.00  0.00    +0.000 OA
ATOM      3  O   UNL     1     105.424 124.092 142.686  0.00  0.00    +0.000 OA
ATOM      4  C   UNL     1     105.509 124.374 141.288  0.00  0.00    +0.000 A 
ATOM      5  C   UNL     1     105.763 124.859 140.671  0.00  0.00    +0.000 A 
ATOM      6  C   UNL     1     106.354 125.752 141.617  0.00  0.00    +0.000 A 
ATOM      7  C   UNL     1     106.101 125.267 142.234  0.00  0.00    +0.000 A 
ATOM      8  C   UNL     1     105.678 124.578 142.069  0.00  0.00    +0.000 A 
ATOM      9  C   UNL     1     105.068 123.654 141.129  0.00  0.00    +0.000 A 
ATOM     10  C   UNL     1     105.593 124.658 139.853  0.00  0.00    +0.000 A 
ATOM     11  C   UNL     1     105.153 123.942 139.675  0.00  0.00    +0.000 A 
ATOM     12  C   UNL     1     104.889 123.436 140.318  0.00  0.00    +0.000 A 
ENDROOT
BRANCH   6  14
ATOM     13  O   UNL     1     108.043 128.510 142.272  0.00  0.00    +0.000 OA
ATOM     14  C   UNL     1     106.777 126.441 141.781  0.00  0.00    +0.000 A 
ATOM     15  C   UNL     1     107.601 126.421 141.820  0.00  0.00    +0.000 A 
ATOM     16  C   UNL     1     106.375 127.152 141.906  0.00  0.00    +0.000 A 
ATOM     17  C   UNL     1     108.023 127.111 141.984  0.00  0.00    +0.000 A 
ATOM     18  C   UNL     1     106.798 127.841 142.069  0.00  0.00    +0.000 A 
ATOM     19  C   UNL     1     107.621 127.821 142.108  0.00  0.00    +0.000 A 
BRANCH  17  20
ATOM     20  O   UNL     1     108.846 127.091 142.022  0.00  0.00    +0.000 OA
ATOM     21  C   UNL     1     109.280 126.743 141.413  0.00  0.00    +0.000 C 
ENDBRANCH  17  20
ENDBRANCH   6  14
BRANCH   7  22
ATOM     22  O   UNL     1     106.269 125.471 143.014  0.00  0.00    +0.000 OA
ATOM     23  C   UNL     1     105.953 125.027 143.634  0.00  0.00    +0.000 C 
ENDBRANCH   7  22
BRANCH  11  24
ATOM     24  O   UNL     1     104.986 123.741 138.892  0.00  0.00    +0.000 OA
BRANCH  24  25
ATOM     25  C   UNL     1     104.206 123.745 138.624  0.00  0.00    +0.000 C 
BRANCH  25  26
ATOM     26  C   UNL     1     104.030 123.480 137.862  0.00  0.00    +0.000 C 
ATOM     27  C   UNL     1     103.251 123.487 137.592  0.00  0.00    +0.000 C 
ATOM     28  C   UNL     1     103.076 123.222 136.831  0.00  0.00    +0.000 C 
ATOM     29  C   UNL     1     102.646 123.760 138.084  0.00  0.00    +0.000 C 
ENDBRANCH  25  26
ENDBRANCH  24  25
ENDBRANCH  11  24
TORSDOF 6
ENDMDL
MODEL 10
REMARK VINA RESULT:      -7.4      2.547      5.080
REMARK  Name = 44259689
REMARK  6 active torsions:
REMARK  status: ('A' for Active; 'I' for Inactive)
REMARK    1  A    between atoms: O_2  and  C_16
REMARK    2  A    between atoms: O_2  and  C_23
REMARK    3  A    between atoms: O_3  and  C_11
REMARK    4  A    between atoms: O_6  and  C_20
REMARK    5  A    between atoms: C_10  and  C_13
REMARK    6  A    between atoms: C_23  and  C_24
REMARK                            x       y       z     vdW  Elec       q    Type
REMARK                         _______ _______ _______ _____ _____    ______ ____
ROOT
ATOM      1  O   UNL     1     112.247 126.555 138.791  0.00  0.00    +0.000 OA
ATOM      2  O   UNL     1     111.551 126.897 141.575  0.00  0.00    +0.000 OA
ATOM      3  O   UNL     1     110.717 126.124 140.688  0.00  0.00    +0.000 OA
ATOM      4  C   UNL     1     111.904 126.725 140.168  0.00  0.00    +0.000 A 
ATOM      5  C   UNL     1     112.414 126.868 139.536  0.00  0.00    +0.000 A 
ATOM      6  C   UNL     1     111.569 126.097 138.679  0.00  0.00    +0.000 A 
ATOM      7  C   UNL     1     111.059 125.953 139.311  0.00  0.00    +0.000 A 
ATOM      8  C   UNL     1     111.227 126.267 140.056  0.00  0.00    +0.000 A 
ATOM      9  C   UNL     1     112.067 127.046 140.948  0.00  0.00    +0.000 A 
ATOM     10  C   UNL     1     113.123 127.344 139.640  0.00  0.00    +0.000 A 
ATOM     11  C   UNL     1     113.302 127.673 140.413  0.00  0.00    +0.000 A 
ATOM     12  C   UNL     1     112.771 127.524 141.071  0.00  0.00    +0.000 A 
ENDROOT
BRANCH   6  14
ATOM     13  O   UNL     1     110.901 124.845 135.701  0.00  0.00    +0.000 OA
ATOM     14  C   UNL     1     111.403 125.783 137.935  0.00  0.00    +0.000 A 
ATOM     15  C   UNL     1     111.686 125.036 137.728  0.00  0.00    +0.000 A 
ATOM     16  C   UNL     1     110.952 126.218 137.396  0.00  0.00    +0.000 A 
ATOM     17  C   UNL     1     111.518 124.724 136.983  0.00  0.00    +0.000 A 
ATOM     18  C   UNL     1     110.785 125.904 136.651  0.00  0.00    +0.000 A 
ATOM     19  C   UNL     1     111.068 125.157 136.445  0.00  0.00    +0.000 A 
BRANCH  17  20
ATOM     20  O   UNL     1     111.801 123.977 136.777  0.00  0.00    +0.000 OA
ATOM     21  C   UNL     1     112.586 123.775 136.933  0.00  0.00    +0.000 C 
ENDBRANCH  17  20
ENDBRANCH   6  14
BRANCH   7  22
ATOM     22  O   UNL     1     110.383 125.496 139.199  0.00  0.00    +0.000 OA
ATOM     23  C   UNL     1     109.713 125.631 139.661  0.00  0.00    +0.000 C 
ENDBRANCH   7  22
BRANCH  11  24
ATOM     24  O   UNL     1     113.981 128.131 140.521  0.00  0.00    +0.000 OA
BRANCH  24  25
ATOM     25  C   UNL     1     113.970 128.934 140.334  0.00  0.00    +0.000 C 
BRANCH  25  26
ATOM     26  C   UNL     1     114.546 129.437 140.643  0.00  0.00    +0.000 C 
ATOM     27  C   UNL     1     114.641 130.195 140.332  0.00  0.00    +0.000 C 
ATOM     28  C   UNL     1     115.218 130.698 140.642  0.00  0.00    +0.000 C 
ATOM     29  C   UNL     1     114.160 130.451 139.712  0.00  0.00    +0.000 C 
ENDBRANCH  25  26
ENDBRANCH  24  25
ENDBRANCH  11  24
TORSDOF 6
ENDMDL
