MODEL 1
REMARK VINA RESULT:      -9.9      0.000      0.000
REMARK  Name = 131835907
REMARK  11 active torsions:
REMARK  status: ('A' for Active; 'I' for Inactive)
REMARK    1  A    between atoms: O_2  and  C_16
REMARK    2  A    between atoms: O_2  and  C_19
REMARK    3  A    between atoms: C_17  and  C_18
REMARK    4  A    between atoms: C_21  and  C_27
REMARK    5  A    between atoms: C_25  and  C_29
REMARK    6  A    between atoms: C_27  and  C_31
REMARK    7  A    between atoms: C_28  and  C_30
REMARK    8  A    between atoms: C_29  and  C_32
REMARK    9  A    between atoms: C_33  and  C_35
REMARK   10  A    between atoms: C_35  and  C_38
REMARK   11  A    between atoms: C_38  and  C_45
REMARK                            x       y       z     vdW  Elec       q    Type
REMARK                         _______ _______ _______ _____ _____    ______ ____
ROOT
ATOM      1  O   UNL     1     105.533 128.674 144.095  0.00  0.00    +0.000 OA
ATOM      2  O   UNL     1     107.024 126.188 144.374  0.00  0.00    +0.000 OA
ATOM      3  O   UNL     1     104.481 127.832 142.019  0.00  0.00    +0.000 OA
ATOM      4  C   UNL     1     106.120 126.364 143.241  0.00  0.00    +0.000 A 
ATOM      5  C   UNL     1     106.485 126.657 143.961  0.00  0.00    +0.000 A 
ATOM      6  C   UNL     1     106.284 127.441 144.249  0.00  0.00    +0.000 A 
ATOM      7  C   UNL     1     105.371 127.641 143.121  0.00  0.00    +0.000 A 
ATOM      8  C   UNL     1     105.559 126.860 142.818  0.00  0.00    +0.000 A 
ATOM      9  C   UNL     1     105.721 127.922 143.813  0.00  0.00    +0.000 A 
ATOM     10  C   UNL     1     104.643 128.864 142.993  0.00  0.00    +0.000 A 
ATOM     11  C   UNL     1     104.832 128.112 142.711  0.00  0.00    +0.000 A 
ATOM     12  C   UNL     1     104.994 129.145 143.685  0.00  0.00    +0.000 A 
ENDROOT
BRANCH  12  15
ATOM     13  O   UNL     1     105.989 130.420 143.362  0.00  0.00    +0.000 OA
ATOM     14  O   UNL     1     104.241 132.154 144.813  0.00  0.00    +0.000 OA
ATOM     15  C   UNL     1     104.805 129.897 143.967  0.00  0.00    +0.000 A 
ATOM     16  C   UNL     1     105.303 130.535 143.806  0.00  0.00    +0.000 A 
ATOM     17  C   UNL     1     104.120 130.012 144.411  0.00  0.00    +0.000 A 
ATOM     18  C   UNL     1     105.115 131.288 144.087  0.00  0.00    +0.000 A 
ATOM     19  C   UNL     1     103.932 130.764 144.693  0.00  0.00    +0.000 A 
ATOM     20  C   UNL     1     104.429 131.402 144.531  0.00  0.00    +0.000 A 
ENDBRANCH  12  15
BRANCH   4  21
ATOM     21  O   UNL     1     106.307 125.612 142.956  0.00  0.00    +0.000 OA
BRANCH  21  29
ATOM     22  O   UNL     1     107.342 125.954 142.033  0.00  0.00    +0.000 OA
ATOM     23  O   UNL     1     106.356 124.421 140.359  0.00  0.00    +0.000 OA
ATOM     24  O   UNL     1     105.649 124.590 141.840  0.00  0.00    +0.000 OA
ATOM     25  O   UNL     1     107.720 125.273 139.994  0.00  0.00    +0.000 OA
ATOM     26  C   UNL     1     106.685 124.932 140.917  0.00  0.00    +0.000 C 
ATOM     27  C   UNL     1     106.331 125.017 141.658  0.00  0.00    +0.000 C 
ATOM     28  C   UNL     1     107.367 125.358 140.735  0.00  0.00    +0.000 C 
ATOM     29  C   UNL     1     106.660 125.528 142.216  0.00  0.00    +0.000 C 
ATOM     30  C   UNL     1     107.696 125.869 141.293  0.00  0.00    +0.000 C 
BRANCH  30  33
ATOM     31  O   UNL     1     108.322 127.008 140.699  0.00  0.00    +0.000 OA
ATOM     32  O   UNL     1     109.117 126.008 141.339  0.00  0.00    +0.000 OA
ATOM     33  C   UNL     1     108.378 126.295 141.110  0.00  0.00    +0.000 C 
ENDBRANCH  30  33
ENDBRANCH  21  29
ENDBRANCH   4  21
BRANCH   6  34
ATOM     34  C   UNL     1     106.630 127.730 144.940  0.00  0.00    +0.000 C 
BRANCH  34  35
ATOM     35  C   UNL     1     106.417 127.414 145.672  0.00  0.00    +0.000 C 
ATOM     36  C   UNL     1     106.742 127.720 146.366  0.00  0.00    +0.000 C 
ATOM     37  C   UNL     1     106.529 127.403 147.097  0.00  0.00    +0.000 C 
ATOM     38  C   UNL     1     107.281 128.342 146.328  0.00  0.00    +0.000 C 
ENDBRANCH  34  35
ENDBRANCH   6  34
BRANCH  10  39
ATOM     39  C   UNL     1     104.105 129.335 142.583  0.00  0.00    +0.000 C 
BRANCH  39  40
ATOM     40  C   UNL     1     103.889 129.139 141.811  0.00  0.00    +0.000 C 
ATOM     41  C   UNL     1     103.274 129.544 141.439  0.00  0.00    +0.000 C 
ATOM     42  C   UNL     1     103.058 129.348 140.668  0.00  0.00    +0.000 C 
BRANCH  41  43
ATOM     43  C   UNL     1     102.874 130.145 141.839  0.00  0.00    +0.000 C 
BRANCH  43  44
ATOM     44  C   UNL     1     102.452 130.712 141.415  0.00  0.00    +0.000 C 
BRANCH  44  45
ATOM     45  C   UNL     1     101.783 131.064 141.748  0.00  0.00    +0.000 C 
ATOM     46  C   UNL     1     101.705 131.886 141.747  0.00  0.00    +0.000 C 
ATOM     47  C   UNL     1     101.037 132.236 142.079  0.00  0.00    +0.000 C 
ATOM     48  C   UNL     1     102.296 132.356 141.413  0.00  0.00    +0.000 C 
ENDBRANCH  44  45
ENDBRANCH  43  44
ENDBRANCH  41  43
ENDBRANCH  39  40
ENDBRANCH  10  39
TORSDOF 11
ENDMDL
MODEL 2
REMARK VINA RESULT:      -9.8      6.057      9.787
REMARK  Name = 131835907
REMARK  11 active torsions:
REMARK  status: ('A' for Active; 'I' for Inactive)
REMARK    1  A    between atoms: O_2  and  C_16
REMARK    2  A    between atoms: O_2  and  C_19
REMARK    3  A    between atoms: C_17  and  C_18
REMARK    4  A    between atoms: C_21  and  C_27
REMARK    5  A    between atoms: C_25  and  C_29
REMARK    6  A    between atoms: C_27  and  C_31
REMARK    7  A    between atoms: C_28  and  C_30
REMARK    8  A    between atoms: C_29  and  C_32
REMARK    9  A    between atoms: C_33  and  C_35
REMARK   10  A    between atoms: C_35  and  C_38
REMARK   11  A    between atoms: C_38  and  C_45
REMARK                            x       y       z     vdW  Elec       q    Type
REMARK                         _______ _______ _______ _____ _____    ______ ____
ROOT
ATOM      1  O   UNL     1     111.778 130.307 137.904  0.00  0.00    +0.000 OA
ATOM      2  O   UNL     1     109.980 132.076 139.360  0.00  0.00    +0.000 OA
ATOM      3  O   UNL     1     111.619 128.627 139.715  0.00  0.00    +0.000 OA
ATOM      4  C   UNL     1     110.338 130.782 139.933  0.00  0.00    +0.000 A 
ATOM      5  C   UNL     1     110.394 131.364 139.304  0.00  0.00    +0.000 A 
ATOM      6  C   UNL     1     110.883 131.201 138.616  0.00  0.00    +0.000 A 
ATOM      7  C   UNL     1     111.257 129.897 139.170  0.00  0.00    +0.000 A 
ATOM      8  C   UNL     1     110.773 130.043 139.865  0.00  0.00    +0.000 A 
ATOM      9  C   UNL     1     111.310 130.457 138.567  0.00  0.00    +0.000 A 
ATOM     10  C   UNL     1     112.140 129.036 138.449  0.00  0.00    +0.000 A 
ATOM     11  C   UNL     1     111.672 129.187 139.111  0.00  0.00    +0.000 A 
ATOM     12  C   UNL     1     112.193 129.596 137.845  0.00  0.00    +0.000 A 
ENDROOT
BRANCH  12  15
ATOM     13  O   UNL     1     111.511 128.967 136.481  0.00  0.00    +0.000 OA
ATOM     14  O   UNL     1     114.063 128.993 135.194  0.00  0.00    +0.000 OA
ATOM     15  C   UNL     1     112.660 129.445 137.182  0.00  0.00    +0.000 A 
ATOM     16  C   UNL     1     112.320 129.131 136.500  0.00  0.00    +0.000 A 
ATOM     17  C   UNL     1     113.468 129.609 137.202  0.00  0.00    +0.000 A 
ATOM     18  C   UNL     1     112.787 128.980 135.837  0.00  0.00    +0.000 A 
ATOM     19  C   UNL     1     113.936 129.458 136.539  0.00  0.00    +0.000 A 
ATOM     20  C   UNL     1     113.595 129.143 135.857  0.00  0.00    +0.000 A 
ENDBRANCH  12  15
BRANCH   4  21
ATOM     21  O   UNL     1     109.871 130.930 140.596  0.00  0.00    +0.000 OA
BRANCH  21  29
ATOM     22  O   UNL     1     110.882 131.368 141.507  0.00  0.00    +0.000 OA
ATOM     23  O   UNL     1     109.876 129.978 143.291  0.00  0.00    +0.000 OA
ATOM     24  O   UNL     1     109.201 130.003 141.786  0.00  0.00    +0.000 OA
ATOM     25  O   UNL     1     111.220 130.879 143.607  0.00  0.00    +0.000 OA
ATOM     26  C   UNL     1     110.211 130.442 142.697  0.00  0.00    +0.000 C 
ATOM     27  C   UNL     1     109.873 130.454 141.943  0.00  0.00    +0.000 C 
ATOM     28  C   UNL     1     110.884 130.892 142.854  0.00  0.00    +0.000 C 
ATOM     29  C   UNL     1     110.209 130.917 141.349  0.00  0.00    +0.000 C 
ATOM     30  C   UNL     1     111.219 131.355 142.259  0.00  0.00    +0.000 C 
BRANCH  30  33
ATOM     31  O   UNL     1     112.641 131.471 142.338  0.00  0.00    +0.000 OA
ATOM     32  O   UNL     1     111.814 132.592 142.655  0.00  0.00    +0.000 OA
ATOM     33  C   UNL     1     111.891 131.806 142.417  0.00  0.00    +0.000 C 
ENDBRANCH  30  33
ENDBRANCH  21  29
ENDBRANCH   4  21
BRANCH   6  34
ATOM     34  C   UNL     1     110.941 131.755 138.008  0.00  0.00    +0.000 C 
BRANCH  34  35
ATOM     35  C   UNL     1     110.289 131.911 137.527  0.00  0.00    +0.000 C 
ATOM     36  C   UNL     1     110.352 132.453 136.908  0.00  0.00    +0.000 C 
ATOM     37  C   UNL     1     109.699 132.607 136.428  0.00  0.00    +0.000 C 
ATOM     38  C   UNL     1     111.066 132.839 136.770  0.00  0.00    +0.000 C 
ENDBRANCH  34  35
ENDBRANCH   6  34
BRANCH  10  39
ATOM     39  C   UNL     1     112.554 128.326 138.390  0.00  0.00    +0.000 C 
BRANCH  39  40
ATOM     40  C   UNL     1     112.922 128.006 139.056  0.00  0.00    +0.000 C 
ATOM     41  C   UNL     1     113.170 127.219 139.053  0.00  0.00    +0.000 C 
ATOM     42  C   UNL     1     113.537 126.899 139.718  0.00  0.00    +0.000 C 
BRANCH  41  43
ATOM     43  C   UNL     1     113.049 126.751 138.384  0.00  0.00    +0.000 C 
BRANCH  43  44
ATOM     44  C   UNL     1     113.526 126.092 138.250  0.00  0.00    +0.000 C 
BRANCH  44  45
ATOM     45  C   UNL     1     113.285 125.508 137.718  0.00  0.00    +0.000 C 
ATOM     46  C   UNL     1     113.847 125.034 137.342  0.00  0.00    +0.000 C 
ATOM     47  C   UNL     1     113.605 124.452 136.812  0.00  0.00    +0.000 C 
ATOM     48  C   UNL     1     114.650 125.145 137.498  0.00  0.00    +0.000 C 
ENDBRANCH  44  45
ENDBRANCH  43  44
ENDBRANCH  41  43
ENDBRANCH  39  40
ENDBRANCH  10  39
TORSDOF 11
ENDMDL
MODEL 3
REMARK VINA RESULT:      -9.7      7.414     10.500
REMARK  Name = 131835907
REMARK  11 active torsions:
REMARK  status: ('A' for Active; 'I' for Inactive)
REMARK    1  A    between atoms: O_2  and  C_16
REMARK    2  A    between atoms: O_2  and  C_19
REMARK    3  A    between atoms: C_17  and  C_18
REMARK    4  A    between atoms: C_21  and  C_27
REMARK    5  A    between atoms: C_25  and  C_29
REMARK    6  A    between atoms: C_27  and  C_31
REMARK    7  A    between atoms: C_28  and  C_30
REMARK    8  A    between atoms: C_29  and  C_32
REMARK    9  A    between atoms: C_33  and  C_35
REMARK   10  A    between atoms: C_35  and  C_38
REMARK   11  A    between atoms: C_38  and  C_45
REMARK                            x       y       z     vdW  Elec       q    Type
REMARK                         _______ _______ _______ _____ _____    ______ ____
ROOT
ATOM      1  O   UNL     1     111.344 128.712 136.439  0.00  0.00    +0.000 OA
ATOM      2  O   UNL     1     111.870 131.380 137.480  0.00  0.00    +0.000 OA
ATOM      3  O   UNL     1     113.407 127.866 137.513  0.00  0.00    +0.000 OA
ATOM      4  C   UNL     1     112.800 130.294 137.776  0.00  0.00    +0.000 A 
ATOM      5  C   UNL     1     112.083 130.586 137.403  0.00  0.00    +0.000 A 
ATOM      6  C   UNL     1     111.591 130.048 136.950  0.00  0.00    +0.000 A 
ATOM      7  C   UNL     1     112.509 128.942 137.233  0.00  0.00    +0.000 A 
ATOM      8  C   UNL     1     113.014 129.465 137.691  0.00  0.00    +0.000 A 
ATOM      9  C   UNL     1     111.821 129.224 136.875  0.00  0.00    +0.000 A 
ATOM     10  C   UNL     1     112.242 127.636 136.718  0.00  0.00    +0.000 A 
ATOM     11  C   UNL     1     112.719 128.148 137.155  0.00  0.00    +0.000 A 
ATOM     12  C   UNL     1     111.554 127.918 136.360  0.00  0.00    +0.000 A 
ENDROOT
BRANCH  12  15
ATOM     13  O   UNL     1     110.264 127.181 137.077  0.00  0.00    +0.000 OA
ATOM     14  O   UNL     1     109.645 125.869 134.614  0.00  0.00    +0.000 OA
ATOM     15  C   UNL     1     111.077 127.406 135.923  0.00  0.00    +0.000 A 
ATOM     16  C   UNL     1     110.432 127.037 136.282  0.00  0.00    +0.000 A 
ATOM     17  C   UNL     1     111.245 127.262 135.129  0.00  0.00    +0.000 A 
ATOM     18  C   UNL     1     109.954 126.525 135.846  0.00  0.00    +0.000 A 
ATOM     19  C   UNL     1     110.768 126.750 134.693  0.00  0.00    +0.000 A 
ATOM     20  C   UNL     1     110.122 126.381 135.051  0.00  0.00    +0.000 A 
ENDBRANCH  12  15
BRANCH   4  21
ATOM     21  O   UNL     1     113.279 130.804 138.213  0.00  0.00    +0.000 OA
BRANCH  21  29
ATOM     22  O   UNL     1     112.847 130.486 139.538  0.00  0.00    +0.000 OA
ATOM     23  O   UNL     1     115.205 130.397 140.285  0.00  0.00    +0.000 OA
ATOM     24  O   UNL     1     114.851 130.744 138.712  0.00  0.00    +0.000 OA
ATOM     25  O   UNL     1     113.987 130.109 141.360  0.00  0.00    +0.000 OA
ATOM     26  C   UNL     1     114.419 130.426 140.036  0.00  0.00    +0.000 C 
ATOM     27  C   UNL     1     114.241 130.600 139.249  0.00  0.00    +0.000 C 
ATOM     28  C   UNL     1     113.810 130.282 140.573  0.00  0.00    +0.000 C 
ATOM     29  C   UNL     1     113.455 130.630 139.000  0.00  0.00    +0.000 C 
ATOM     30  C   UNL     1     113.024 130.312 140.324  0.00  0.00    +0.000 C 
BRANCH  30  33
ATOM     31  O   UNL     1     112.045 130.798 141.245  0.00  0.00    +0.000 OA
ATOM     32  O   UNL     1     112.177 129.394 141.017  0.00  0.00    +0.000 OA
ATOM     33  C   UNL     1     112.415 130.168 140.862  0.00  0.00    +0.000 C 
ENDBRANCH  30  33
ENDBRANCH  21  29
ENDBRANCH   4  21
BRANCH   6  34
ATOM     34  C   UNL     1     110.901 130.321 136.589  0.00  0.00    +0.000 C 
BRANCH  34  35
ATOM     35  C   UNL     1     110.257 130.551 137.050  0.00  0.00    +0.000 C 
ATOM     36  C   UNL     1     109.551 130.779 136.689  0.00  0.00    +0.000 C 
ATOM     37  C   UNL     1     108.907 131.009 137.151  0.00  0.00    +0.000 C 
ATOM     38  C   UNL     1     109.488 130.776 135.867  0.00  0.00    +0.000 C 
ENDBRANCH  34  35
ENDBRANCH   6  34
BRANCH  10  39
ATOM     39  C   UNL     1     112.453 126.843 136.640  0.00  0.00    +0.000 C 
BRANCH  39  40
ATOM     40  C   UNL     1     113.241 126.636 136.508  0.00  0.00    +0.000 C 
ATOM     41  C   UNL     1     113.491 125.860 136.637  0.00  0.00    +0.000 C 
ATOM     42  C   UNL     1     114.279 125.653 136.505  0.00  0.00    +0.000 C 
BRANCH  41  43
ATOM     43  C   UNL     1     112.953 125.291 136.897  0.00  0.00    +0.000 C 
BRANCH  43  44
ATOM     44  C   UNL     1     113.046 124.502 136.674  0.00  0.00    +0.000 C 
BRANCH  44  45
ATOM     45  C   UNL     1     112.780 123.898 137.169  0.00  0.00    +0.000 C 
ATOM     46  C   UNL     1     112.239 123.342 136.888  0.00  0.00    +0.000 C 
ATOM     47  C   UNL     1     111.974 122.739 137.383  0.00  0.00    +0.000 C 
ATOM     48  C   UNL     1     111.964 123.390 136.112  0.00  0.00    +0.000 C 
ENDBRANCH  44  45
ENDBRANCH  43  44
ENDBRANCH  41  43
ENDBRANCH  39  40
ENDBRANCH  10  39
TORSDOF 11
ENDMDL
MODEL 4
REMARK VINA RESULT:      -9.7      3.311      4.886
REMARK  Name = 131835907
REMARK  11 active torsions:
REMARK  status: ('A' for Active; 'I' for Inactive)
REMARK    1  A    between atoms: O_2  and  C_16
REMARK    2  A    between atoms: O_2  and  C_19
REMARK    3  A    between atoms: C_17  and  C_18
REMARK    4  A    between atoms: C_21  and  C_27
REMARK    5  A    between atoms: C_25  and  C_29
REMARK    6  A    between atoms: C_27  and  C_31
REMARK    7  A    between atoms: C_28  and  C_30
REMARK    8  A    between atoms: C_29  and  C_32
REMARK    9  A    between atoms: C_33  and  C_35
REMARK   10  A    between atoms: C_35  and  C_38
REMARK   11  A    between atoms: C_38  and  C_45
REMARK                            x       y       z     vdW  Elec       q    Type
REMARK                         _______ _______ _______ _____ _____    ______ ____
ROOT
ATOM      1  O   UNL     1     106.040 126.461 146.583  0.00  0.00    +0.000 OA
ATOM      2  O   UNL     1     105.330 123.851 147.662  0.00  0.00    +0.000 OA
ATOM      3  O   UNL     1     104.805 125.956 144.499  0.00  0.00    +0.000 OA
ATOM      4  C   UNL     1     104.871 124.230 146.329  0.00  0.00    +0.000 A 
ATOM      5  C   UNL     1     105.299 124.406 147.052  0.00  0.00    +0.000 A 
ATOM      6  C   UNL     1     105.695 125.164 147.136  0.00  0.00    +0.000 A 
ATOM      7  C   UNL     1     105.246 125.567 145.801  0.00  0.00    +0.000 A 
ATOM      8  C   UNL     1     104.844 124.815 145.699  0.00  0.00    +0.000 A 
ATOM      9  C   UNL     1     105.657 125.736 146.496  0.00  0.00    +0.000 A 
ATOM     10  C   UNL     1     105.599 126.850 145.281  0.00  0.00    +0.000 A 
ATOM     11  C   UNL     1     105.217 126.124 145.194  0.00  0.00    +0.000 A 
ATOM     12  C   UNL     1     106.011 127.019 145.976  0.00  0.00    +0.000 A 
ENDROOT
BRANCH  12  15
ATOM     13  O   UNL     1     105.287 128.235 146.822  0.00  0.00    +0.000 OA
ATOM     14  O   UNL     1     107.539 129.922 146.325  0.00  0.00    +0.000 OA
ATOM     15  C   UNL     1     106.393 127.744 146.063  0.00  0.00    +0.000 A 
ATOM     16  C   UNL     1     106.031 128.353 146.486  0.00  0.00    +0.000 A 
ATOM     17  C   UNL     1     107.136 127.862 145.727  0.00  0.00    +0.000 A 
ATOM     18  C   UNL     1     106.413 129.079 146.574  0.00  0.00    +0.000 A 
ATOM     19  C   UNL     1     107.519 128.588 145.814  0.00  0.00    +0.000 A 
ATOM     20  C   UNL     1     107.157 129.196 146.237  0.00  0.00    +0.000 A 
ENDBRANCH  12  15
BRANCH   4  21
ATOM     21  O   UNL     1     104.487 123.505 146.239  0.00  0.00    +0.000 OA
BRANCH  21  29
ATOM     22  O   UNL     1     103.178 123.809 146.725  0.00  0.00    +0.000 OA
ATOM     23  O   UNL     1     102.187 122.749 144.721  0.00  0.00    +0.000 OA
ATOM     24  O   UNL     1     103.826 122.798 144.902  0.00  0.00    +0.000 OA
ATOM     25  O   UNL     1     101.210 123.406 145.875  0.00  0.00    +0.000 OA
ATOM     26  C   UNL     1     102.517 123.102 145.389  0.00  0.00    +0.000 C 
ATOM     27  C   UNL     1     103.338 123.127 145.480  0.00  0.00    +0.000 C 
ATOM     28  C   UNL     1     102.029 123.431 145.966  0.00  0.00    +0.000 C 
ATOM     29  C   UNL     1     103.668 123.480 146.148  0.00  0.00    +0.000 C 
ATOM     30  C   UNL     1     102.359 123.784 146.635  0.00  0.00    +0.000 C 
BRANCH  30  33
ATOM     31  O   UNL     1     101.853 123.790 147.971  0.00  0.00    +0.000 OA
ATOM     32  O   UNL     1     101.398 124.764 147.030  0.00  0.00    +0.000 OA
ATOM     33  C   UNL     1     101.871 124.112 147.212  0.00  0.00    +0.000 C 
ENDBRANCH  30  33
ENDBRANCH  21  29
ENDBRANCH   4  21
BRANCH   6  34
ATOM     34  C   UNL     1     106.109 125.341 147.827  0.00  0.00    +0.000 C 
BRANCH  34  35
ATOM     35  C   UNL     1     106.788 124.915 148.022  0.00  0.00    +0.000 C 
ATOM     36  C   UNL     1     107.178 125.062 148.735  0.00  0.00    +0.000 C 
ATOM     37  C   UNL     1     107.857 124.635 148.929  0.00  0.00    +0.000 C 
ATOM     38  C   UNL     1     106.889 125.634 149.252  0.00  0.00    +0.000 C 
ENDBRANCH  34  35
ENDBRANCH   6  34
BRANCH  10  39
ATOM     39  C   UNL     1     105.570 127.406 144.673  0.00  0.00    +0.000 C 
BRANCH  39  40
ATOM     40  C   UNL     1     105.656 127.166 143.888  0.00  0.00    +0.000 C 
ATOM     41  C   UNL     1     105.403 127.658 143.276  0.00  0.00    +0.000 C 
ATOM     42  C   UNL     1     105.489 127.418 142.492  0.00  0.00    +0.000 C 
BRANCH  41  43
ATOM     43  C   UNL     1     105.064 128.391 143.449  0.00  0.00    +0.000 C 
BRANCH  43  44
ATOM     44  C   UNL     1     104.603 128.776 142.883  0.00  0.00    +0.000 C 
BRANCH  44  45
ATOM     45  C   UNL     1     104.212 129.476 143.075  0.00  0.00    +0.000 C 
ATOM     46  C   UNL     1     103.678 129.811 142.542  0.00  0.00    +0.000 C 
ATOM     47  C   UNL     1     103.288 130.511 142.735  0.00  0.00    +0.000 C 
ATOM     48  C   UNL     1     103.536 129.445 141.816  0.00  0.00    +0.000 C 
ENDBRANCH  44  45
ENDBRANCH  43  44
ENDBRANCH  41  43
ENDBRANCH  39  40
ENDBRANCH  10  39
TORSDOF 11
ENDMDL
MODEL 5
REMARK VINA RESULT:      -9.7      5.250      8.351
REMARK  Name = 131835907
REMARK  11 active torsions:
REMARK  status: ('A' for Active; 'I' for Inactive)
REMARK    1  A    between atoms: O_2  and  C_16
REMARK    2  A    between atoms: O_2  and  C_19
REMARK    3  A    between atoms: C_17  and  C_18
REMARK    4  A    between atoms: C_21  and  C_27
REMARK    5  A    between atoms: C_25  and  C_29
REMARK    6  A    between atoms: C_27  and  C_31
REMARK    7  A    between atoms: C_28  and  C_30
REMARK    8  A    between atoms: C_29  and  C_32
REMARK    9  A    between atoms: C_33  and  C_35
REMARK   10  A    between atoms: C_35  and  C_38
REMARK   11  A    between atoms: C_38  and  C_45
REMARK                            x       y       z     vdW  Elec       q    Type
REMARK                         _______ _______ _______ _____ _____    ______ ____
ROOT
ATOM      1  O   UNL     1     111.617 127.323 137.120  0.00  0.00    +0.000 OA
ATOM      2  O   UNL     1     111.068 125.066 138.875  0.00  0.00    +0.000 OA
ATOM      3  O   UNL     1     109.500 128.401 137.813  0.00  0.00    +0.000 OA
ATOM      4  C   UNL     1     110.116 126.171 138.802  0.00  0.00    +0.000 A 
ATOM      5  C   UNL     1     110.851 125.798 138.560  0.00  0.00    +0.000 A 
ATOM      6  C   UNL     1     111.359 126.190 137.990  0.00  0.00    +0.000 A 
ATOM      7  C   UNL     1     110.419 127.311 137.898  0.00  0.00    +0.000 A 
ATOM      8  C   UNL     1     109.899 126.933 138.468  0.00  0.00    +0.000 A 
ATOM      9  C   UNL     1     111.125 126.951 137.667  0.00  0.00    +0.000 A 
ATOM     10  C   UNL     1     110.698 128.414 137.034  0.00  0.00    +0.000 A 
ATOM     11  C   UNL     1     110.206 128.042 137.582  0.00  0.00    +0.000 A 
ATOM     12  C   UNL     1     111.404 128.055 136.803  0.00  0.00    +0.000 A 
ENDROOT
BRANCH  12  15
ATOM     13  O   UNL     1     112.710 128.918 137.321  0.00  0.00    +0.000 OA
ATOM     14  O   UNL     1     113.373 129.543 134.612  0.00  0.00    +0.000 OA
ATOM     15  C   UNL     1     111.896 128.426 136.255  0.00  0.00    +0.000 A 
ATOM     16  C   UNL     1     112.549 128.858 136.514  0.00  0.00    +0.000 A 
ATOM     17  C   UNL     1     111.735 128.367 135.449  0.00  0.00    +0.000 A 
ATOM     18  C   UNL     1     113.042 129.231 135.967  0.00  0.00    +0.000 A 
ATOM     19  C   UNL     1     112.227 128.739 134.901  0.00  0.00    +0.000 A 
ATOM     20  C   UNL     1     112.881 129.171 135.160  0.00  0.00    +0.000 A 
ENDBRANCH  12  15
BRANCH   4  21
ATOM     21  O   UNL     1     109.622 125.801 139.349  0.00  0.00    +0.000 OA
BRANCH  21  29
ATOM     22  O   UNL     1     110.026 126.565 140.488  0.00  0.00    +0.000 OA
ATOM     23  O   UNL     1     107.697 126.546 141.326  0.00  0.00    +0.000 OA
ATOM     24  O   UNL     1     108.069 125.789 139.908  0.00  0.00    +0.000 OA
ATOM     25  O   UNL     1     108.877 127.315 142.185  0.00  0.00    +0.000 OA
ATOM     26  C   UNL     1     108.473 126.553 141.047  0.00  0.00    +0.000 C 
ATOM     27  C   UNL     1     108.660 126.174 140.337  0.00  0.00    +0.000 C 
ATOM     28  C   UNL     1     109.064 126.937 141.476  0.00  0.00    +0.000 C 
ATOM     29  C   UNL     1     109.436 126.180 140.058  0.00  0.00    +0.000 C 
ATOM     30  C   UNL     1     109.840 126.943 141.196  0.00  0.00    +0.000 C 
BRANCH  30  33
ATOM     31  O   UNL     1     110.948 126.892 142.097  0.00  0.00    +0.000 OA
ATOM     32  O   UNL     1     110.501 128.148 141.584  0.00  0.00    +0.000 OA
ATOM     33  C   UNL     1     110.430 127.327 141.626  0.00  0.00    +0.000 C 
ENDBRANCH  30  33
ENDBRANCH  21  29
ENDBRANCH   4  21
BRANCH   6  34
ATOM     34  C   UNL     1     112.066 125.838 137.753  0.00  0.00    +0.000 C 
BRANCH  34  35
ATOM     35  C   UNL     1     112.053 125.156 137.289  0.00  0.00    +0.000 C 
ATOM     36  C   UNL     1     112.760 124.819 137.028  0.00  0.00    +0.000 C 
ATOM     37  C   UNL     1     112.745 124.138 136.563  0.00  0.00    +0.000 C 
ATOM     38  C   UNL     1     113.480 125.165 137.231  0.00  0.00    +0.000 C 
ENDBRANCH  34  35
ENDBRANCH   6  34
BRANCH  10  39
ATOM     39  C   UNL     1     110.484 129.145 136.718  0.00  0.00    +0.000 C 
BRANCH  39  40
ATOM     40  C   UNL     1     109.693 129.306 136.549  0.00  0.00    +0.000 C 
ATOM     41  C   UNL     1     109.448 130.084 136.426  0.00  0.00    +0.000 C 
ATOM     42  C   UNL     1     108.656 130.246 136.257  0.00  0.00    +0.000 C 
BRANCH  41  43
ATOM     43  C   UNL     1     109.994 130.701 136.471  0.00  0.00    +0.000 C 
BRANCH  43  44
ATOM     44  C   UNL     1     109.744 131.458 136.682  0.00  0.00    +0.000 C 
BRANCH  44  45
ATOM     45  C   UNL     1     110.168 132.119 136.429  0.00  0.00    +0.000 C 
ATOM     46  C   UNL     1     110.231 132.782 136.916  0.00  0.00    +0.000 C 
ATOM     47  C   UNL     1     110.654 133.442 136.662  0.00  0.00    +0.000 C 
ATOM     48  C   UNL     1     109.868 132.784 137.658  0.00  0.00    +0.000 C 
ENDBRANCH  44  45
ENDBRANCH  43  44
ENDBRANCH  41  43
ENDBRANCH  39  40
ENDBRANCH  10  39
TORSDOF 11
ENDMDL
MODEL 6
REMARK VINA RESULT:      -9.6      6.108      9.520
REMARK  Name = 131835907
REMARK  11 active torsions:
REMARK  status: ('A' for Active; 'I' for Inactive)
REMARK    1  A    between atoms: O_2  and  C_16
REMARK    2  A    between atoms: O_2  and  C_19
REMARK    3  A    between atoms: C_17  and  C_18
REMARK    4  A    between atoms: C_21  and  C_27
REMARK    5  A    between atoms: C_25  and  C_29
REMARK    6  A    between atoms: C_27  and  C_31
REMARK    7  A    between atoms: C_28  and  C_30
REMARK    8  A    between atoms: C_29  and  C_32
REMARK    9  A    between atoms: C_33  and  C_35
REMARK   10  A    between atoms: C_35  and  C_38
REMARK   11  A    between atoms: C_38  and  C_45
REMARK                            x       y       z     vdW  Elec       q    Type
REMARK                         _______ _______ _______ _____ _____    ______ ____
ROOT
ATOM      1  O   UNL     1     111.075 129.633 139.113  0.00  0.00    +0.000 OA
ATOM      2  O   UNL     1     109.534 132.100 138.976  0.00  0.00    +0.000 OA
ATOM      3  O   UNL     1     111.659 129.844 136.717  0.00  0.00    +0.000 OA
ATOM      4  C   UNL     1     110.210 131.605 137.780  0.00  0.00    +0.000 A 
ATOM      5  C   UNL     1     110.008 131.531 138.612  0.00  0.00    +0.000 A 
ATOM      6  C   UNL     1     110.302 130.861 139.062  0.00  0.00    +0.000 A 
ATOM      7  C   UNL     1     110.990 130.345 137.876  0.00  0.00    +0.000 A 
ATOM      8  C   UNL     1     110.705 131.007 137.410  0.00  0.00    +0.000 A 
ATOM      9  C   UNL     1     110.795 130.274 138.675  0.00  0.00    +0.000 A 
ATOM     10  C   UNL     1     111.744 129.133 137.953  0.00  0.00    +0.000 A 
ATOM     11  C   UNL     1     111.465 129.774 137.515  0.00  0.00    +0.000 A 
ATOM     12  C   UNL     1     111.550 129.063 138.752  0.00  0.00    +0.000 A 
ENDROOT
BRANCH  12  15
ATOM     13  O   UNL     1     110.606 127.724 138.947  0.00  0.00    +0.000 OA
ATOM     14  O   UNL     1     112.668 126.499 140.503  0.00  0.00    +0.000 OA
ATOM     15  C   UNL     1     111.829 128.422 139.190  0.00  0.00    +0.000 A 
ATOM     16  C   UNL     1     111.358 127.752 139.288  0.00  0.00    +0.000 A 
ATOM     17  C   UNL     1     112.580 128.451 139.529  0.00  0.00    +0.000 A 
ATOM     18  C   UNL     1     111.637 127.111 139.725  0.00  0.00    +0.000 A 
ATOM     19  C   UNL     1     112.860 127.810 139.967  0.00  0.00    +0.000 A 
ATOM     20  C   UNL     1     112.388 127.140 140.065  0.00  0.00    +0.000 A 
ENDBRANCH  12  15
BRANCH   4  21
ATOM     21  O   UNL     1     109.932 132.245 137.340  0.00  0.00    +0.000 OA
BRANCH  21  29
ATOM     22  O   UNL     1     108.878 131.550 136.671  0.00  0.00    +0.000 OA
ATOM     23  O   UNL     1     109.329 132.848 134.612  0.00  0.00    +0.000 OA
ATOM     24  O   UNL     1     110.233 133.110 135.968  0.00  0.00    +0.000 OA
ATOM     25  O   UNL     1     108.125 131.721 134.629  0.00  0.00    +0.000 OA
ATOM     26  C   UNL     1     109.179 132.415 135.298  0.00  0.00    +0.000 C 
ATOM     27  C   UNL     1     109.631 132.546 135.977  0.00  0.00    +0.000 C 
ATOM     28  C   UNL     1     108.577 131.852 135.307  0.00  0.00    +0.000 C 
ATOM     29  C   UNL     1     109.480 132.114 136.663  0.00  0.00    +0.000 C 
ATOM     30  C   UNL     1     108.426 131.419 135.994  0.00  0.00    +0.000 C 
BRANCH  30  33
ATOM     31  O   UNL     1     107.053 131.078 136.193  0.00  0.00    +0.000 OA
ATOM     32  O   UNL     1     107.993 130.070 135.818  0.00  0.00    +0.000 OA
ATOM     33  C   UNL     1     107.824 130.856 136.002  0.00  0.00    +0.000 C 
ENDBRANCH  30  33
ENDBRANCH  21  29
ENDBRANCH   4  21
BRANCH   6  34
ATOM     34  C   UNL     1     110.113 130.783 139.861  0.00  0.00    +0.000 C 
BRANCH  34  35
ATOM     35  C   UNL     1     109.338 130.612 140.086  0.00  0.00    +0.000 C 
ATOM     36  C   UNL     1     109.153 130.504 140.883  0.00  0.00    +0.000 C 
ATOM     37  C   UNL     1     108.378 130.334 141.108  0.00  0.00    +0.000 C 
ATOM     38  C   UNL     1     109.744 130.567 141.455  0.00  0.00    +0.000 C 
ENDBRANCH  34  35
ENDBRANCH   6  34
BRANCH  10  39
ATOM     39  C   UNL     1     112.218 128.563 137.592  0.00  0.00    +0.000 C 
BRANCH  39  40
ATOM     40  C   UNL     1     112.785 128.789 137.036  0.00  0.00    +0.000 C 
ATOM     41  C   UNL     1     113.137 128.221 136.552  0.00  0.00    +0.000 C 
ATOM     42  C   UNL     1     113.703 128.447 135.996  0.00  0.00    +0.000 C 
BRANCH  41  43
ATOM     43  C   UNL     1     112.922 127.428 136.623  0.00  0.00    +0.000 C 
BRANCH  43  44
ATOM     44  C   UNL     1     113.480 126.836 136.486  0.00  0.00    +0.000 C 
BRANCH  44  45
ATOM     45  C   UNL     1     113.243 126.047 136.440  0.00  0.00    +0.000 C 
ATOM     46  C   UNL     1     113.770 125.444 136.639  0.00  0.00    +0.000 C 
ATOM     47  C   UNL     1     113.532 124.657 136.593  0.00  0.00    +0.000 C 
ATOM     48  C   UNL     1     114.535 125.631 136.885  0.00  0.00    +0.000 C 
ENDBRANCH  44  45
ENDBRANCH  43  44
ENDBRANCH  41  43
ENDBRANCH  39  40
ENDBRANCH  10  39
TORSDOF 11
ENDMDL
MODEL 7
REMARK VINA RESULT:      -9.5      1.717      4.945
REMARK  Name = 131835907
REMARK  11 active torsions:
REMARK  status: ('A' for Active; 'I' for Inactive)
REMARK    1  A    between atoms: O_2  and  C_16
REMARK    2  A    between atoms: O_2  and  C_19
REMARK    3  A    between atoms: C_17  and  C_18
REMARK    4  A    between atoms: C_21  and  C_27
REMARK    5  A    between atoms: C_25  and  C_29
REMARK    6  A    between atoms: C_27  and  C_31
REMARK    7  A    between atoms: C_28  and  C_30
REMARK    8  A    between atoms: C_29  and  C_32
REMARK    9  A    between atoms: C_33  and  C_35
REMARK   10  A    between atoms: C_35  and  C_38
REMARK   11  A    between atoms: C_38  and  C_45
REMARK                            x       y       z     vdW  Elec       q    Type
REMARK                         _______ _______ _______ _____ _____    ______ ____
ROOT
ATOM      1  O   UNL     1     105.434 127.836 144.534  0.00  0.00    +0.000 OA
ATOM      2  O   UNL     1     105.361 127.868 141.624  0.00  0.00    +0.000 OA
ATOM      3  O   UNL     1     106.020 125.432 144.511  0.00  0.00    +0.000 OA
ATOM      4  C   UNL     1     105.680 126.627 142.323  0.00  0.00    +0.000 A 
ATOM      5  C   UNL     1     105.476 127.462 142.332  0.00  0.00    +0.000 A 
ATOM      6  C   UNL     1     105.393 127.870 143.084  0.00  0.00    +0.000 A 
ATOM      7  C   UNL     1     105.711 126.637 143.808  0.00  0.00    +0.000 A 
ATOM      8  C   UNL     1     105.798 126.212 143.067  0.00  0.00    +0.000 A 
ATOM      9  C   UNL     1     105.515 127.438 143.816  0.00  0.00    +0.000 A 
ATOM     10  C   UNL     1     105.744 126.631 145.237  0.00  0.00    +0.000 A 
ATOM     11  C   UNL     1     105.825 126.233 144.519  0.00  0.00    +0.000 A 
ATOM     12  C   UNL     1     105.549 127.432 145.245  0.00  0.00    +0.000 A 
ENDROOT
BRANCH  12  15
ATOM     13  O   UNL     1     106.812 128.302 145.852  0.00  0.00    +0.000 OA
ATOM     14  O   UNL     1     105.226 129.024 148.118  0.00  0.00    +0.000 OA
ATOM     15  C   UNL     1     105.468 127.830 145.963  0.00  0.00    +0.000 A 
ATOM     16  C   UNL     1     106.099 128.265 146.267  0.00  0.00    +0.000 A 
ATOM     17  C   UNL     1     104.756 127.793 146.377  0.00  0.00    +0.000 A 
ATOM     18  C   UNL     1     106.019 128.663 146.985  0.00  0.00    +0.000 A 
ATOM     19  C   UNL     1     104.675 128.191 147.096  0.00  0.00    +0.000 A 
ATOM     20  C   UNL     1     105.307 128.626 147.400  0.00  0.00    +0.000 A 
ENDBRANCH  12  15
BRANCH   4  21
ATOM     21  O   UNL     1     105.761 126.227 141.606  0.00  0.00    +0.000 OA
BRANCH  21  29
ATOM     22  O   UNL     1     107.173 126.312 141.401  0.00  0.00    +0.000 OA
ATOM     23  O   UNL     1     107.240 123.896 140.865  0.00  0.00    +0.000 OA
ATOM     24  O   UNL     1     105.806 124.616 141.249  0.00  0.00    +0.000 OA
ATOM     25  O   UNL     1     108.628 124.787 140.838  0.00  0.00    +0.000 OA
ATOM     26  C   UNL     1     107.218 124.702 141.044  0.00  0.00    +0.000 C 
ATOM     27  C   UNL     1     106.500 125.062 141.236  0.00  0.00    +0.000 C 
ATOM     28  C   UNL     1     107.912 125.147 141.030  0.00  0.00    +0.000 C 
ATOM     29  C   UNL     1     106.478 125.867 141.415  0.00  0.00    +0.000 C 
ATOM     30  C   UNL     1     107.889 125.952 141.209  0.00  0.00    +0.000 C 
BRANCH  30  33
ATOM     31  O   UNL     1     109.074 126.417 141.858  0.00  0.00    +0.000 OA
ATOM     32  O   UNL     1     108.787 126.822 140.519  0.00  0.00    +0.000 OA
ATOM     33  C   UNL     1     108.583 126.397 141.195  0.00  0.00    +0.000 C 
ENDBRANCH  30  33
ENDBRANCH  21  29
ENDBRANCH   4  21
BRANCH   6  34
ATOM     34  C   UNL     1     105.198 128.671 143.101  0.00  0.00    +0.000 C 
BRANCH  34  35
ATOM     35  C   UNL     1     104.437 128.915 142.898  0.00  0.00    +0.000 C 
ATOM     36  C   UNL     1     104.225 129.710 142.965  0.00  0.00    +0.000 C 
ATOM     37  C   UNL     1     103.464 129.953 142.762  0.00  0.00    +0.000 C 
ATOM     38  C   UNL     1     104.776 130.261 143.235  0.00  0.00    +0.000 C 
ENDBRANCH  34  35
ENDBRANCH   6  34
BRANCH  10  39
ATOM     39  C   UNL     1     105.859 126.227 145.947  0.00  0.00    +0.000 C 
BRANCH  39  40
ATOM     40  C   UNL     1     105.461 125.518 146.087  0.00  0.00    +0.000 C 
ATOM     41  C   UNL     1     105.718 125.012 146.686  0.00  0.00    +0.000 C 
ATOM     42  C   UNL     1     105.321 124.303 146.827  0.00  0.00    +0.000 C 
BRANCH  41  43
ATOM     43  C   UNL     1     106.373 125.215 147.145  0.00  0.00    +0.000 C 
BRANCH  43  44
ATOM     44  C   UNL     1     106.502 124.841 147.869  0.00  0.00    +0.000 C 
BRANCH  44  45
ATOM     45  C   UNL     1     107.263 124.808 148.187  0.00  0.00    +0.000 C 
ATOM     46  C   UNL     1     107.370 124.614 148.982  0.00  0.00    +0.000 C 
ATOM     47  C   UNL     1     108.130 124.581 149.299  0.00  0.00    +0.000 C 
ATOM     48  C   UNL     1     106.716 124.453 149.459  0.00  0.00    +0.000 C 
ENDBRANCH  44  45
ENDBRANCH  43  44
ENDBRANCH  41  43
ENDBRANCH  39  40
ENDBRANCH  10  39
TORSDOF 11
ENDMDL
MODEL 8
REMARK VINA RESULT:      -9.5      7.348      8.233
REMARK  Name = 131835907
REMARK  11 active torsions:
REMARK  status: ('A' for Active; 'I' for Inactive)
REMARK    1  A    between atoms: O_2  and  C_16
REMARK    2  A    between atoms: O_2  and  C_19
REMARK    3  A    between atoms: C_17  and  C_18
REMARK    4  A    between atoms: C_21  and  C_27
REMARK    5  A    between atoms: C_25  and  C_29
REMARK    6  A    between atoms: C_27  and  C_31
REMARK    7  A    between atoms: C_28  and  C_30
REMARK    8  A    between atoms: C_29  and  C_32
REMARK    9  A    between atoms: C_33  and  C_35
REMARK   10  A    between atoms: C_35  and  C_38
REMARK   11  A    between atoms: C_38  and  C_45
REMARK                            x       y       z     vdW  Elec       q    Type
REMARK                         _______ _______ _______ _____ _____    ______ ____
ROOT
ATOM      1  O   UNL     1     111.554 128.929 138.629  0.00  0.00    +0.000 OA
ATOM      2  O   UNL     1     112.527 126.484 139.876  0.00  0.00    +0.000 OA
ATOM      3  O   UNL     1     110.656 127.624 136.728  0.00  0.00    +0.000 OA
ATOM      4  C   UNL     1     111.828 126.412 138.596  0.00  0.00    +0.000 A 
ATOM      5  C   UNL     1     112.139 126.866 139.255  0.00  0.00    +0.000 A 
ATOM      6  C   UNL     1     112.045 127.720 139.265  0.00  0.00    +0.000 A 
ATOM      7  C   UNL     1     111.342 127.674 137.981  0.00  0.00    +0.000 A 
ATOM      8  C   UNL     1     111.426 126.820 137.954  0.00  0.00    +0.000 A 
ATOM      9  C   UNL     1     111.641 128.109 138.614  0.00  0.00    +0.000 A 
ATOM     10  C   UNL     1     110.868 128.879 137.376  0.00  0.00    +0.000 A 
ATOM     11  C   UNL     1     110.955 128.059 137.362  0.00  0.00    +0.000 A 
ATOM     12  C   UNL     1     111.167 129.314 138.010  0.00  0.00    +0.000 A 
ENDROOT
BRANCH  12  15
ATOM     13  O   UNL     1     109.936 129.997 138.871  0.00  0.00    +0.000 OA
ATOM     14  O   UNL     1     110.817 132.595 138.070  0.00  0.00    +0.000 OA
ATOM     15  C   UNL     1     111.080 130.135 138.025  0.00  0.00    +0.000 A 
ATOM     16  C   UNL     1     110.464 130.476 138.456  0.00  0.00    +0.000 A 
ATOM     17  C   UNL     1     111.607 130.613 137.610  0.00  0.00    +0.000 A 
ATOM     18  C   UNL     1     110.376 131.297 138.471  0.00  0.00    +0.000 A 
ATOM     19  C   UNL     1     111.520 131.433 137.625  0.00  0.00    +0.000 A 
ATOM     20  C   UNL     1     110.904 131.775 138.055  0.00  0.00    +0.000 A 
ENDBRANCH  12  15
BRANCH   4  21
ATOM     21  O   UNL     1     111.914 125.592 138.578  0.00  0.00    +0.000 OA
BRANCH  21  29
ATOM     22  O   UNL     1     113.097 125.491 137.782  0.00  0.00    +0.000 OA
ATOM     23  O   UNL     1     112.069 123.648 136.489  0.00  0.00    +0.000 OA
ATOM     24  O   UNL     1     111.229 124.364 137.716  0.00  0.00    +0.000 OA
ATOM     25  O   UNL     1     113.593 124.161 136.125  0.00  0.00    +0.000 OA
ATOM     26  C   UNL     1     112.411 124.262 136.920  0.00  0.00    +0.000 C 
ATOM     27  C   UNL     1     111.991 124.620 137.534  0.00  0.00    +0.000 C 
ATOM     28  C   UNL     1     113.174 124.519 136.739  0.00  0.00    +0.000 C 
ATOM     29  C   UNL     1     112.334 125.235 137.965  0.00  0.00    +0.000 C 
ATOM     30  C   UNL     1     113.516 125.134 137.170  0.00  0.00    +0.000 C 
BRANCH  30  33
ATOM     31  O   UNL     1     114.389 126.026 136.473  0.00  0.00    +0.000 OA
ATOM     32  O   UNL     1     114.931 125.010 137.319  0.00  0.00    +0.000 OA
ATOM     33  C   UNL     1     114.278 125.390 136.987  0.00  0.00    +0.000 C 
ENDBRANCH  30  33
ENDBRANCH  21  29
ENDBRANCH   4  21
BRANCH   6  34
ATOM     34  C   UNL     1     112.341 128.163 139.894  0.00  0.00    +0.000 C 
BRANCH  34  35
ATOM     35  C   UNL     1     113.151 128.314 139.949  0.00  0.00    +0.000 C 
ATOM     36  C   UNL     1     113.445 128.775 140.566  0.00  0.00    +0.000 C 
ATOM     37  C   UNL     1     114.255 128.925 140.620  0.00  0.00    +0.000 C 
ATOM     38  C   UNL     1     112.930 129.087 141.129  0.00  0.00    +0.000 C 
ENDBRANCH  34  35
ENDBRANCH   6  34
BRANCH  10  39
ATOM     39  C   UNL     1     110.481 129.263 136.757  0.00  0.00    +0.000 C 
BRANCH  39  40
ATOM     40  C   UNL     1     110.572 128.994 135.983  0.00  0.00    +0.000 C 
ATOM     41  C   UNL     1     110.065 129.263 135.391  0.00  0.00    +0.000 C 
ATOM     42  C   UNL     1     110.156 128.993 134.616  0.00  0.00    +0.000 C 
BRANCH  41  43
ATOM     43  C   UNL     1     109.467 129.801 135.572  0.00  0.00    +0.000 C 
BRANCH  43  44
ATOM     44  C   UNL     1     109.269 130.396 135.035  0.00  0.00    +0.000 C 
BRANCH  44  45
ATOM     45  C   UNL     1     108.577 130.833 135.138  0.00  0.00    +0.000 C 
ATOM     46  C   UNL     1     108.556 131.630 134.927  0.00  0.00    +0.000 C 
ATOM     47  C   UNL     1     107.864 132.065 135.030  0.00  0.00    +0.000 C 
ATOM     48  C   UNL     1     109.229 131.991 134.612  0.00  0.00    +0.000 C 
ENDBRANCH  44  45
ENDBRANCH  43  44
ENDBRANCH  41  43
ENDBRANCH  39  40
ENDBRANCH  10  39
TORSDOF 11
ENDMDL
MODEL 9
REMARK VINA RESULT:      -9.5      6.742      8.934
REMARK  Name = 131835907
REMARK  11 active torsions:
REMARK  status: ('A' for Active; 'I' for Inactive)
REMARK    1  A    between atoms: O_2  and  C_16
REMARK    2  A    between atoms: O_2  and  C_19
REMARK    3  A    between atoms: C_17  and  C_18
REMARK    4  A    between atoms: C_21  and  C_27
REMARK    5  A    between atoms: C_25  and  C_29
REMARK    6  A    between atoms: C_27  and  C_31
REMARK    7  A    between atoms: C_28  and  C_30
REMARK    8  A    between atoms: C_29  and  C_32
REMARK    9  A    between atoms: C_33  and  C_35
REMARK   10  A    between atoms: C_35  and  C_38
REMARK   11  A    between atoms: C_38  and  C_45
REMARK                            x       y       z     vdW  Elec       q    Type
REMARK                         _______ _______ _______ _____ _____    ______ ____
ROOT
ATOM      1  O   UNL     1     111.795 128.577 137.880  0.00  0.00    +0.000 OA
ATOM      2  O   UNL     1     113.568 127.881 140.083  0.00  0.00    +0.000 OA
ATOM      3  O   UNL     1     111.835 130.952 138.575  0.00  0.00    +0.000 OA
ATOM      4  C   UNL     1     113.155 129.269 139.901  0.00  0.00    +0.000 A 
ATOM      5  C   UNL     1     113.141 128.445 139.659  0.00  0.00    +0.000 A 
ATOM      6  C   UNL     1     112.679 128.212 138.973  0.00  0.00    +0.000 A 
ATOM      7  C   UNL     1     112.250 129.598 138.770  0.00  0.00    +0.000 A 
ATOM      8  C   UNL     1     112.706 129.850 139.453  0.00  0.00    +0.000 A 
ATOM      9  C   UNL     1     112.237 128.807 138.538  0.00  0.00    +0.000 A 
ATOM     10  C   UNL     1     111.379 129.930 137.686  0.00  0.00    +0.000 A 
ATOM     11  C   UNL     1     111.821 130.160 138.344  0.00  0.00    +0.000 A 
ATOM     12  C   UNL     1     111.366 129.138 137.454  0.00  0.00    +0.000 A 
ENDROOT
BRANCH  12  15
ATOM     13  O   UNL     1     109.858 128.501 137.657  0.00  0.00    +0.000 OA
ATOM     14  O   UNL     1     109.598 128.218 134.825  0.00  0.00    +0.000 OA
ATOM     15  C   UNL     1     110.924 128.908 136.797  0.00  0.00    +0.000 A 
ATOM     16  C   UNL     1     110.170 128.589 136.898  0.00  0.00    +0.000 A 
ATOM     17  C   UNL     1     111.236 128.997 136.039  0.00  0.00    +0.000 A 
ATOM     18  C   UNL     1     109.727 128.359 136.241  0.00  0.00    +0.000 A 
ATOM     19  C   UNL     1     110.794 128.767 135.381  0.00  0.00    +0.000 A 
ATOM     20  C   UNL     1     110.040 128.448 135.482  0.00  0.00    +0.000 A 
ENDBRANCH  12  15
BRANCH   4  21
ATOM     21  O   UNL     1     113.596 129.502 140.558  0.00  0.00    +0.000 OA
BRANCH  21  29
ATOM     22  O   UNL     1     112.590 129.475 141.572  0.00  0.00    +0.000 OA
ATOM     23  O   UNL     1     113.359 131.679 142.395  0.00  0.00    +0.000 OA
ATOM     24  O   UNL     1     114.109 130.971 141.107  0.00  0.00    +0.000 OA
ATOM     25  O   UNL     1     112.097 130.917 143.134  0.00  0.00    +0.000 OA
ATOM     26  C   UNL     1     113.102 130.944 142.121  0.00  0.00    +0.000 C 
ATOM     27  C   UNL     1     113.478 130.590 141.476  0.00  0.00    +0.000 C 
ATOM     28  C   UNL     1     112.471 130.563 142.490  0.00  0.00    +0.000 C 
ATOM     29  C   UNL     1     113.221 129.855 141.202  0.00  0.00    +0.000 C 
ATOM     30  C   UNL     1     112.215 129.828 142.215  0.00  0.00    +0.000 C 
BRANCH  30  33
ATOM     31  O   UNL     1     111.727 128.884 143.171  0.00  0.00    +0.000 OA
ATOM     32  O   UNL     1     110.809 129.630 142.370  0.00  0.00    +0.000 OA
ATOM     33  C   UNL     1     111.584 129.448 142.585  0.00  0.00    +0.000 C 
ENDBRANCH  30  33
ENDBRANCH  21  29
ENDBRANCH   4  21
BRANCH   6  34
ATOM     34  C   UNL     1     112.660 127.423 138.734  0.00  0.00    +0.000 C 
BRANCH  34  35
ATOM     35  C   UNL     1     113.329 127.077 138.398  0.00  0.00    +0.000 C 
ATOM     36  C   UNL     1     113.302 126.296 138.133  0.00  0.00    +0.000 C 
ATOM     37  C   UNL     1     113.972 125.951 137.797  0.00  0.00    +0.000 C 
ATOM     38  C   UNL     1     112.606 125.861 138.205  0.00  0.00    +0.000 C 
ENDBRANCH  34  35
ENDBRANCH   6  34
BRANCH  10  39
ATOM     39  C   UNL     1     110.951 130.492 137.261  0.00  0.00    +0.000 C 
BRANCH  39  40
ATOM     40  C   UNL     1     111.221 131.271 137.217  0.00  0.00    +0.000 C 
ATOM     41  C   UNL     1     110.715 131.868 136.957  0.00  0.00    +0.000 C 
ATOM     42  C   UNL     1     110.984 132.647 136.913  0.00  0.00    +0.000 C 
BRANCH  41  43
ATOM     43  C   UNL     1     109.940 131.687 136.740  0.00  0.00    +0.000 C 
BRANCH  43  44
ATOM     44  C   UNL     1     109.566 132.119 136.144  0.00  0.00    +0.000 C 
BRANCH  44  45
ATOM     45  C   UNL     1     108.749 132.065 136.045  0.00  0.00    +0.000 C 
ATOM     46  C   UNL     1     108.423 132.081 135.287  0.00  0.00    +0.000 C 
ATOM     47  C   UNL     1     107.606 132.027 135.189  0.00  0.00    +0.000 C 
ATOM     48  C   UNL     1     108.915 132.150 134.628  0.00  0.00    +0.000 C 
ENDBRANCH  44  45
ENDBRANCH  43  44
ENDBRANCH  41  43
ENDBRANCH  39  40
ENDBRANCH  10  39
TORSDOF 11
ENDMDL
MODEL 10
REMARK VINA RESULT:      -9.5      6.862      9.246
REMARK  Name = 131835907
REMARK  11 active torsions:
REMARK  status: ('A' for Active; 'I' for Inactive)
REMARK    1  A    between atoms: O_2  and  C_16
REMARK    2  A    between atoms: O_2  and  C_19
REMARK    3  A    between atoms: C_17  and  C_18
REMARK    4  A    between atoms: C_21  and  C_27
REMARK    5  A    between atoms: C_25  and  C_29
REMARK    6  A    between atoms: C_27  and  C_31
REMARK    7  A    between atoms: C_28  and  C_30
REMARK    8  A    between atoms: C_29  and  C_32
REMARK    9  A    between atoms: C_33  and  C_35
REMARK   10  A    between atoms: C_35  and  C_38
REMARK   11  A    between atoms: C_38  and  C_45
REMARK                            x       y       z     vdW  Elec       q    Type
REMARK                         _______ _______ _______ _____ _____    ______ ____
ROOT
ATOM      1  O   UNL     1     113.003 127.632 138.345  0.00  0.00    +0.000 OA
ATOM      2  O   UNL     1     112.387 127.560 135.500  0.00  0.00    +0.000 OA
ATOM      3  O   UNL     1     111.303 129.397 138.687  0.00  0.00    +0.000 OA
ATOM      4  C   UNL     1     111.665 128.483 136.371  0.00  0.00    +0.000 A 
ATOM      5  C   UNL     1     112.256 127.871 136.253  0.00  0.00    +0.000 A 
ATOM      6  C   UNL     1     112.708 127.583 136.924  0.00  0.00    +0.000 A 
ATOM      7  C   UNL     1     111.998 128.500 137.819  0.00  0.00    +0.000 A 
ATOM      8  C   UNL     1     111.536 128.800 137.160  0.00  0.00    +0.000 A 
ATOM      9  C   UNL     1     112.565 127.912 137.705  0.00  0.00    +0.000 A 
ATOM     10  C   UNL     1     112.308 128.528 139.214  0.00  0.00    +0.000 A 
ATOM     11  C   UNL     1     111.869 128.808 138.573  0.00  0.00    +0.000 A 
ATOM     12  C   UNL     1     112.874 127.940 139.100  0.00  0.00    +0.000 A 
ENDROOT
BRANCH  12  15
ATOM     13  O   UNL     1     112.416 126.554 139.869  0.00  0.00    +0.000 OA
ATOM     14  O   UNL     1     114.626 126.818 141.661  0.00  0.00    +0.000 OA
ATOM     15  C   UNL     1     113.312 127.659 139.740  0.00  0.00    +0.000 A 
ATOM     16  C   UNL     1     113.083 126.966 140.125  0.00  0.00    +0.000 A 
ATOM     17  C   UNL     1     113.979 128.071 139.995  0.00  0.00    +0.000 A 
ATOM     18  C   UNL     1     113.521 126.685 140.765  0.00  0.00    +0.000 A 
ATOM     19  C   UNL     1     114.417 127.791 140.636  0.00  0.00    +0.000 A 
ATOM     20  C   UNL     1     114.188 127.098 141.021  0.00  0.00    +0.000 A 
ENDBRANCH  12  15
BRANCH   4  21
ATOM     21  O   UNL     1     111.225 128.766 135.733  0.00  0.00    +0.000 OA
BRANCH  21  29
ATOM     22  O   UNL     1     110.047 127.981 135.925  0.00  0.00    +0.000 OA
ATOM     23  O   UNL     1     108.648 129.947 135.377  0.00  0.00    +0.000 OA
ATOM     24  O   UNL     1     110.293 130.077 135.368  0.00  0.00    +0.000 OA
ATOM     25  O   UNL     1     107.936 128.507 135.752  0.00  0.00    +0.000 OA
ATOM     26  C   UNL     1     109.114 129.292 135.560  0.00  0.00    +0.000 C 
ATOM     27  C   UNL     1     109.937 129.356 135.555  0.00  0.00    +0.000 C 
ATOM     28  C   UNL     1     108.759 128.571 135.747  0.00  0.00    +0.000 C 
ATOM     29  C   UNL     1     110.404 128.701 135.738  0.00  0.00    +0.000 C 
ATOM     30  C   UNL     1     109.225 127.916 135.929  0.00  0.00    +0.000 C 
BRANCH  30  33
ATOM     31  O   UNL     1     108.623 127.045 136.889  0.00  0.00    +0.000 OA
ATOM     32  O   UNL     1     108.759 126.626 135.530  0.00  0.00    +0.000 OA
ATOM     33  C   UNL     1     108.869 127.196 136.116  0.00  0.00    +0.000 C 
ENDBRANCH  30  33
ENDBRANCH  21  29
ENDBRANCH   4  21
BRANCH   6  34
ATOM     34  C   UNL     1     113.277 126.995 136.819  0.00  0.00    +0.000 C 
BRANCH  34  35
ATOM     35  C   UNL     1     113.044 126.219 136.660  0.00  0.00    +0.000 C 
ATOM     36  C   UNL     1     113.611 125.622 136.600  0.00  0.00    +0.000 C 
ATOM     37  C   UNL     1     113.377 124.847 136.441  0.00  0.00    +0.000 C 
ATOM     38  C   UNL     1     114.409 125.800 136.699  0.00  0.00    +0.000 C 
ENDBRANCH  34  35
ENDBRANCH   6  34
BRANCH  10  39
ATOM     39  C   UNL     1     112.178 128.837 139.967  0.00  0.00    +0.000 C 
BRANCH  39  40
ATOM     40  C   UNL     1     111.907 129.611 140.056  0.00  0.00    +0.000 C 
ATOM     41  C   UNL     1     111.637 129.871 140.791  0.00  0.00    +0.000 C 
ATOM     42  C   UNL     1     111.366 130.645 140.880  0.00  0.00    +0.000 C 
BRANCH  41  43
ATOM     43  C   UNL     1     111.639 129.358 141.437  0.00  0.00    +0.000 C 
BRANCH  43  44
ATOM     44  C   UNL     1     111.602 129.660 142.204  0.00  0.00    +0.000 C 
BRANCH  44  45
ATOM     45  C   UNL     1     111.615 129.148 142.851  0.00  0.00    +0.000 C 
ATOM     46  C   UNL     1     111.677 129.451 143.616  0.00  0.00    +0.000 C 
ATOM     47  C   UNL     1     111.691 128.939 144.262  0.00  0.00    +0.000 C 
ATOM     48  C   UNL     1     111.726 130.266 143.734  0.00  0.00    +0.000 C 
ENDBRANCH  44  45
ENDBRANCH  43  44
ENDBRANCH  41  43
ENDBRANCH  39  40
ENDBRANCH  10  39
TORSDOF 11
ENDMDL
