MODEL 1
REMARK VINA RESULT:      -9.0      0.000      0.000
REMARK  Name = 24208689
REMARK  8 active torsions:
REMARK  status: ('A' for Active; 'I' for Inactive)
REMARK    1  A    between atoms: O_3  and  C_17
REMARK    2  A    between atoms: O_3  and  C_19
REMARK    3  A    between atoms: O_6  and  C_18
REMARK    4  A    between atoms: O_6  and  C_24
REMARK    5  A    between atoms: O_11  and  C_34
REMARK    6  A    between atoms: C_15  and  C_18
REMARK    7  A    between atoms: C_24  and  C_28
REMARK    8  A    between atoms: C_27  and  C_30
REMARK                            x       y       z     vdW  Elec       q    Type
REMARK                         _______ _______ _______ _____ _____    ______ ____
ROOT
ATOM      1  O   UNL     1     112.126 126.676 136.179  0.00  0.00    +0.000 OA
ATOM      2  O   UNL     1     109.623 125.913 134.956  0.00  0.00    +0.000 OA
ATOM      3  O   UNL     1     110.537 124.919 135.463  0.00  0.00    +0.000 OA
ATOM      4  C   UNL     1     110.506 127.942 135.303  0.00  0.00    +0.000 A 
ATOM      5  C   UNL     1     111.243 127.717 135.684  0.00  0.00    +0.000 A 
ATOM      6  C   UNL     1     109.954 127.332 135.055  0.00  0.00    +0.000 A 
ATOM      7  C   UNL     1     111.418 126.886 135.812  0.00  0.00    +0.000 A 
ATOM      8  C   UNL     1     110.888 126.300 135.574  0.00  0.00    +0.000 A 
ATOM      9  C   UNL     1     110.146 126.506 135.191  0.00  0.00    +0.000 A 
ATOM     10  C   UNL     1     111.066 125.505 135.702  0.00  0.00    +0.000 A 
ATOM     11  C   UNL     1     112.305 125.881 136.307  0.00  0.00    +0.000 A 
ATOM     12  C   UNL     1     111.775 125.296 136.068  0.00  0.00    +0.000 A 
ENDROOT
BRANCH  11  14
ATOM     13  O   UNL     1     115.140 125.043 137.773  0.00  0.00    +0.000 OA
ATOM     14  C   UNL     1     113.014 125.671 136.673  0.00  0.00    +0.000 A 
ATOM     15  C   UNL     1     113.127 125.834 137.475  0.00  0.00    +0.000 A 
ATOM     16  C   UNL     1     113.609 125.300 136.239  0.00  0.00    +0.000 A 
ATOM     17  C   UNL     1     113.836 125.624 137.841  0.00  0.00    +0.000 A 
ATOM     18  C   UNL     1     114.317 125.091 136.606  0.00  0.00    +0.000 A 
ATOM     19  C   UNL     1     114.431 125.253 137.407  0.00  0.00    +0.000 A 
BRANCH  17  20
ATOM     20  O   UNL     1     113.950 125.786 138.642  0.00  0.00    +0.000 OA
ATOM     21  C   UNL     1     113.625 126.467 138.976  0.00  0.00    +0.000 C 
ENDBRANCH  17  20
ENDBRANCH  11  14
BRANCH   4  22
ATOM     22  O   UNL     1     110.329 128.738 135.176  0.00  0.00    +0.000 OA
BRANCH  22  31
ATOM     23  O   UNL     1     109.889 128.987 136.513  0.00  0.00    +0.000 OA
ATOM     24  O   UNL     1     108.370 130.350 137.286  0.00  0.00    +0.000 OA
ATOM     25  O   UNL     1     108.271 130.658 135.668  0.00  0.00    +0.000 OA
ATOM     26  O   UNL     1     109.251 129.852 134.613  0.00  0.00    +0.000 OA
ATOM     27  C   UNL     1     108.860 129.947 136.758  0.00  0.00    +0.000 C 
ATOM     28  C   UNL     1     108.810 130.101 135.950  0.00  0.00    +0.000 C 
ATOM     29  C   UNL     1     109.399 129.390 137.040  0.00  0.00    +0.000 C 
ATOM     30  C   UNL     1     109.300 129.698 135.422  0.00  0.00    +0.000 C 
ATOM     31  C   UNL     1     109.840 129.141 135.703  0.00  0.00    +0.000 C 
BRANCH  29  32
ATOM     32  C   UNL     1     109.448 129.236 137.849  0.00  0.00    +0.000 C 
BRANCH  32  33
ATOM     33  O   UNL     1     109.409 128.460 138.125  0.00  0.00    +0.000 OA
BRANCH  33  35
ATOM     34  O   UNL     1     109.471 128.811 139.509  0.00  0.00    +0.000 OA
ATOM     35  C   UNL     1     109.641 128.284 138.897  0.00  0.00    +0.000 C 
BRANCH  35  36
ATOM     36  C   UNL     1     110.043 127.582 139.058  0.00  0.00    +0.000 C 
ATOM     37  C   UNL     1     109.620 126.892 139.222  0.00  0.00    +0.000 C 
ATOM     38  C   UNL     1     110.022 126.190 139.382  0.00  0.00    +0.000 C 
ENDBRANCH  35  36
ENDBRANCH  33  35
ENDBRANCH  32  33
ENDBRANCH  29  32
ENDBRANCH  22  31
ENDBRANCH   4  22
TORSDOF 8
ENDMDL
MODEL 2
REMARK VINA RESULT:      -8.9      1.330      2.171
REMARK  Name = 24208689
REMARK  8 active torsions:
REMARK  status: ('A' for Active; 'I' for Inactive)
REMARK    1  A    between atoms: O_3  and  C_17
REMARK    2  A    between atoms: O_3  and  C_19
REMARK    3  A    between atoms: O_6  and  C_18
REMARK    4  A    between atoms: O_6  and  C_24
REMARK    5  A    between atoms: O_11  and  C_34
REMARK    6  A    between atoms: C_15  and  C_18
REMARK    7  A    between atoms: C_24  and  C_28
REMARK    8  A    between atoms: C_27  and  C_30
REMARK                            x       y       z     vdW  Elec       q    Type
REMARK                         _______ _______ _______ _____ _____    ______ ____
ROOT
ATOM      1  O   UNL     1     111.442 126.470 136.777  0.00  0.00    +0.000 OA
ATOM      2  O   UNL     1     109.306 125.856 134.931  0.00  0.00    +0.000 OA
ATOM      3  O   UNL     1     110.477 125.018 135.020  0.00  0.00    +0.000 OA
ATOM      4  C   UNL     1     109.519 127.542 136.391  0.00  0.00    +0.000 A 
ATOM      5  C   UNL     1     110.286 127.347 136.728  0.00  0.00    +0.000 A 
ATOM      6  C   UNL     1     109.184 127.037 135.781  0.00  0.00    +0.000 A 
ATOM      7  C   UNL     1     110.706 126.652 136.450  0.00  0.00    +0.000 A 
ATOM      8  C   UNL     1     110.385 126.168 135.864  0.00  0.00    +0.000 A 
ATOM      9  C   UNL     1     109.620 126.346 135.516  0.00  0.00    +0.000 A 
ATOM     10  C   UNL     1     110.798 125.503 135.606  0.00  0.00    +0.000 A 
ATOM     11  C   UNL     1     111.856 125.805 136.518  0.00  0.00    +0.000 A 
ATOM     12  C   UNL     1     111.534 125.321 135.933  0.00  0.00    +0.000 A 
ENDROOT
BRANCH  11  14
ATOM     13  O   UNL     1     114.797 125.080 137.826  0.00  0.00    +0.000 OA
ATOM     14  C   UNL     1     112.591 125.624 136.845  0.00  0.00    +0.000 A 
ATOM     15  C   UNL     1     112.756 125.828 137.628  0.00  0.00    +0.000 A 
ATOM     16  C   UNL     1     113.161 125.239 136.390  0.00  0.00    +0.000 A 
ATOM     17  C   UNL     1     113.491 125.646 137.955  0.00  0.00    +0.000 A 
ATOM     18  C   UNL     1     113.896 125.057 136.717  0.00  0.00    +0.000 A 
ATOM     19  C   UNL     1     114.061 125.261 137.499  0.00  0.00    +0.000 A 
BRANCH  17  20
ATOM     20  O   UNL     1     113.656 125.850 138.737  0.00  0.00    +0.000 OA
ATOM     21  C   UNL     1     113.419 126.583 139.032  0.00  0.00    +0.000 C 
ENDBRANCH  17  20
ENDBRANCH  11  14
BRANCH   4  22
ATOM     22  O   UNL     1     109.107 128.208 136.651  0.00  0.00    +0.000 OA
BRANCH  22  31
ATOM     23  O   UNL     1     110.034 129.226 136.267  0.00  0.00    +0.000 OA
ATOM     24  O   UNL     1     109.715 131.156 135.299  0.00  0.00    +0.000 OA
ATOM     25  O   UNL     1     108.166 130.594 135.391  0.00  0.00    +0.000 OA
ATOM     26  O   UNL     1     107.862 129.120 136.067  0.00  0.00    +0.000 OA
ATOM     27  C   UNL     1     109.563 130.418 135.637  0.00  0.00    +0.000 C 
ATOM     28  C   UNL     1     108.789 130.138 135.683  0.00  0.00    +0.000 C 
ATOM     29  C   UNL     1     110.186 129.962 135.929  0.00  0.00    +0.000 C 
ATOM     30  C   UNL     1     108.637 129.400 136.021  0.00  0.00    +0.000 C 
ATOM     31  C   UNL     1     109.259 128.944 136.313  0.00  0.00    +0.000 C 
BRANCH  29  32
ATOM     32  C   UNL     1     110.960 130.244 135.882  0.00  0.00    +0.000 C 
BRANCH  32  33
ATOM     33  O   UNL     1     111.557 129.885 136.324  0.00  0.00    +0.000 OA
BRANCH  33  35
ATOM     34  O   UNL     1     112.612 130.830 136.509  0.00  0.00    +0.000 OA
ATOM     35  C   UNL     1     112.343 130.109 136.213  0.00  0.00    +0.000 C 
BRANCH  35  36
ATOM     36  C   UNL     1     112.861 129.612 135.807  0.00  0.00    +0.000 C 
ATOM     37  C   UNL     1     113.550 129.344 136.173  0.00  0.00    +0.000 C 
ATOM     38  C   UNL     1     114.067 128.847 135.767  0.00  0.00    +0.000 C 
ENDBRANCH  35  36
ENDBRANCH  33  35
ENDBRANCH  32  33
ENDBRANCH  29  32
ENDBRANCH  22  31
ENDBRANCH   4  22
TORSDOF 8
ENDMDL
MODEL 3
REMARK VINA RESULT:      -8.9      2.668      4.979
REMARK  Name = 24208689
REMARK  8 active torsions:
REMARK  status: ('A' for Active; 'I' for Inactive)
REMARK    1  A    between atoms: O_3  and  C_17
REMARK    2  A    between atoms: O_3  and  C_19
REMARK    3  A    between atoms: O_6  and  C_18
REMARK    4  A    between atoms: O_6  and  C_24
REMARK    5  A    between atoms: O_11  and  C_34
REMARK    6  A    between atoms: C_15  and  C_18
REMARK    7  A    between atoms: C_24  and  C_28
REMARK    8  A    between atoms: C_27  and  C_30
REMARK                            x       y       z     vdW  Elec       q    Type
REMARK                         _______ _______ _______ _____ _____    ______ ____
ROOT
ATOM      1  O   UNL     1     112.018 126.683 137.589  0.00  0.00    +0.000 OA
ATOM      2  O   UNL     1     114.524 126.071 138.889  0.00  0.00    +0.000 OA
ATOM      3  O   UNL     1     114.102 125.353 137.711  0.00  0.00    +0.000 OA
ATOM      4  C   UNL     1     112.959 127.589 139.404  0.00  0.00    +0.000 A 
ATOM      5  C   UNL     1     112.395 127.436 138.772  0.00  0.00    +0.000 A 
ATOM      6  C   UNL     1     113.682 127.127 139.445  0.00  0.00    +0.000 A 
ATOM      7  C   UNL     1     112.563 126.825 138.193  0.00  0.00    +0.000 A 
ATOM      8  C   UNL     1     113.257 126.382 138.234  0.00  0.00    +0.000 A 
ATOM      9  C   UNL     1     113.832 126.519 138.857  0.00  0.00    +0.000 A 
ATOM     10  C   UNL     1     113.407 125.797 137.671  0.00  0.00    +0.000 A 
ATOM     11  C   UNL     1     112.168 126.099 137.027  0.00  0.00    +0.000 A 
ATOM     12  C   UNL     1     112.862 125.656 137.068  0.00  0.00    +0.000 A 
ENDROOT
BRANCH  11  14
ATOM     13  O   UNL     1     109.989 125.534 134.614  0.00  0.00    +0.000 OA
ATOM     14  C   UNL     1     111.623 125.957 136.424  0.00  0.00    +0.000 A 
ATOM     15  C   UNL     1     111.502 126.525 135.837  0.00  0.00    +0.000 A 
ATOM     16  C   UNL     1     111.200 125.249 136.408  0.00  0.00    +0.000 A 
ATOM     17  C   UNL     1     110.957 126.383 135.233  0.00  0.00    +0.000 A 
ATOM     18  C   UNL     1     110.656 125.108 135.804  0.00  0.00    +0.000 A 
ATOM     19  C   UNL     1     110.534 125.675 135.217  0.00  0.00    +0.000 A 
BRANCH  17  20
ATOM     20  O   UNL     1     110.835 126.950 134.646  0.00  0.00    +0.000 OA
ATOM     21  C   UNL     1     110.640 127.724 134.854  0.00  0.00    +0.000 C 
ENDBRANCH  17  20
ENDBRANCH  11  14
BRANCH   4  22
ATOM     22  O   UNL     1     112.807 128.174 139.965  0.00  0.00    +0.000 OA
BRANCH  22  31
ATOM     23  O   UNL     1     113.357 129.246 139.198  0.00  0.00    +0.000 OA
ATOM     24  O   UNL     1     114.408 131.055 139.820  0.00  0.00    +0.000 OA
ATOM     25  O   UNL     1     114.108 130.351 141.282  0.00  0.00    +0.000 OA
ATOM     26  O   UNL     1     113.307 128.910 141.354  0.00  0.00    +0.000 OA
ATOM     27  C   UNL     1     114.008 130.334 139.856  0.00  0.00    +0.000 C 
ATOM     28  C   UNL     1     113.858 129.983 140.587  0.00  0.00    +0.000 C 
ATOM     29  C   UNL     1     113.758 129.966 139.162  0.00  0.00    +0.000 C 
ATOM     30  C   UNL     1     113.457 129.262 140.623  0.00  0.00    +0.000 C 
ATOM     31  C   UNL     1     113.207 128.894 139.928  0.00  0.00    +0.000 C 
BRANCH  29  32
ATOM     32  C   UNL     1     113.908 130.319 138.431  0.00  0.00    +0.000 C 
BRANCH  32  33
ATOM     33  O   UNL     1     113.533 130.040 137.752  0.00  0.00    +0.000 OA
BRANCH  33  35
ATOM     34  O   UNL     1     113.593 131.112 136.810  0.00  0.00    +0.000 OA
ATOM     35  C   UNL     1     113.752 130.328 137.011  0.00  0.00    +0.000 C 
BRANCH  35  36
ATOM     36  C   UNL     1     114.129 129.833 136.470  0.00  0.00    +0.000 C 
ATOM     37  C   UNL     1     113.711 129.529 135.827  0.00  0.00    +0.000 C 
ATOM     38  C   UNL     1     114.088 129.033 135.286  0.00  0.00    +0.000 C 
ENDBRANCH  35  36
ENDBRANCH  33  35
ENDBRANCH  32  33
ENDBRANCH  29  32
ENDBRANCH  22  31
ENDBRANCH   4  22
TORSDOF 8
ENDMDL
MODEL 4
REMARK VINA RESULT:      -8.7      1.753      2.469
REMARK  Name = 24208689
REMARK  8 active torsions:
REMARK  status: ('A' for Active; 'I' for Inactive)
REMARK    1  A    between atoms: O_3  and  C_17
REMARK    2  A    between atoms: O_3  and  C_19
REMARK    3  A    between atoms: O_6  and  C_18
REMARK    4  A    between atoms: O_6  and  C_24
REMARK    5  A    between atoms: O_11  and  C_34
REMARK    6  A    between atoms: C_15  and  C_18
REMARK    7  A    between atoms: C_24  and  C_28
REMARK    8  A    between atoms: C_27  and  C_30
REMARK                            x       y       z     vdW  Elec       q    Type
REMARK                         _______ _______ _______ _____ _____    ______ ____
ROOT
ATOM      1  O   UNL     1     111.603 127.162 136.141  0.00  0.00    +0.000 OA
ATOM      2  O   UNL     1     113.477 129.289 135.581  0.00  0.00    +0.000 OA
ATOM      3  O   UNL     1     113.923 128.027 136.119  0.00  0.00    +0.000 OA
ATOM      4  C   UNL     1     111.254 129.210 135.316  0.00  0.00    +0.000 A 
ATOM      5  C   UNL     1     111.101 128.413 135.599  0.00  0.00    +0.000 A 
ATOM      6  C   UNL     1     112.059 129.510 135.309  0.00  0.00    +0.000 A 
ATOM      7  C   UNL     1     111.756 127.927 135.871  0.00  0.00    +0.000 A 
ATOM      8  C   UNL     1     112.529 128.215 135.863  0.00  0.00    +0.000 A 
ATOM      9  C   UNL     1     112.700 129.009 135.584  0.00  0.00    +0.000 A 
ATOM     10  C   UNL     1     113.149 127.739 136.126  0.00  0.00    +0.000 A 
ATOM     11  C   UNL     1     112.224 126.686 136.404  0.00  0.00    +0.000 A 
ATOM     12  C   UNL     1     112.997 126.975 136.397  0.00  0.00    +0.000 A 
ENDROOT
BRANCH  11  14
ATOM     13  O   UNL     1     111.614 123.629 137.486  0.00  0.00    +0.000 OA
ATOM     14  C   UNL     1     112.071 125.922 136.674  0.00  0.00    +0.000 A 
ATOM     15  C   UNL     1     111.727 125.808 137.416  0.00  0.00    +0.000 A 
ATOM     16  C   UNL     1     112.263 125.272 136.204  0.00  0.00    +0.000 A 
ATOM     17  C   UNL     1     111.575 125.044 137.686  0.00  0.00    +0.000 A 
ATOM     18  C   UNL     1     112.110 124.508 136.475  0.00  0.00    +0.000 A 
ATOM     19  C   UNL     1     111.766 124.394 137.216  0.00  0.00    +0.000 A 
BRANCH  17  20
ATOM     20  O   UNL     1     111.231 124.929 138.427  0.00  0.00    +0.000 OA
ATOM     21  C   UNL     1     110.811 125.542 138.787  0.00  0.00    +0.000 C 
ENDBRANCH  17  20
ENDBRANCH  11  14
BRANCH   4  22
ATOM     22  O   UNL     1     110.631 129.684 135.054  0.00  0.00    +0.000 OA
BRANCH  22  31
ATOM     23  O   UNL     1     110.328 130.219 136.344  0.00  0.00    +0.000 OA
ATOM     24  O   UNL     1     108.434 130.866 137.214  0.00  0.00    +0.000 OA
ATOM     25  O   UNL     1     107.941 130.388 135.713  0.00  0.00    +0.000 OA
ATOM     26  O   UNL     1     109.040 129.797 134.633  0.00  0.00    +0.000 OA
ATOM     27  C   UNL     1     108.984 130.571 136.673  0.00  0.00    +0.000 C 
ATOM     28  C   UNL     1     108.737 130.332 135.924  0.00  0.00    +0.000 C 
ATOM     29  C   UNL     1     109.780 130.514 136.884  0.00  0.00    +0.000 C 
ATOM     30  C   UNL     1     109.287 130.036 135.383  0.00  0.00    +0.000 C 
ATOM     31  C   UNL     1     110.083 129.979 135.594  0.00  0.00    +0.000 C 
BRANCH  29  32
ATOM     32  C   UNL     1     110.026 130.753 137.634  0.00  0.00    +0.000 C 
BRANCH  32  33
ATOM     33  O   UNL     1     110.829 130.772 137.819  0.00  0.00    +0.000 OA
BRANCH  33  35
ATOM     34  O   UNL     1     110.898 131.508 139.042  0.00  0.00    +0.000 OA
ATOM     35  C   UNL     1     111.070 130.828 138.606  0.00  0.00    +0.000 C 
BRANCH  35  36
ATOM     36  C   UNL     1     111.483 130.207 138.957  0.00  0.00    +0.000 C 
ATOM     37  C   UNL     1     112.293 130.276 139.098  0.00  0.00    +0.000 C 
ATOM     38  C   UNL     1     112.706 129.655 139.449  0.00  0.00    +0.000 C 
ENDBRANCH  35  36
ENDBRANCH  33  35
ENDBRANCH  32  33
ENDBRANCH  29  32
ENDBRANCH  22  31
ENDBRANCH   4  22
TORSDOF 8
ENDMDL
MODEL 5
REMARK VINA RESULT:      -8.7      1.944      5.481
REMARK  Name = 24208689
REMARK  8 active torsions:
REMARK  status: ('A' for Active; 'I' for Inactive)
REMARK    1  A    between atoms: O_3  and  C_17
REMARK    2  A    between atoms: O_3  and  C_19
REMARK    3  A    between atoms: O_6  and  C_18
REMARK    4  A    between atoms: O_6  and  C_24
REMARK    5  A    between atoms: O_11  and  C_34
REMARK    6  A    between atoms: C_15  and  C_18
REMARK    7  A    between atoms: C_24  and  C_28
REMARK    8  A    between atoms: C_27  and  C_30
REMARK                            x       y       z     vdW  Elec       q    Type
REMARK                         _______ _______ _______ _____ _____    ______ ____
ROOT
ATOM      1  O   UNL     1     112.193 129.129 136.974  0.00  0.00    +0.000 OA
ATOM      2  O   UNL     1     114.406 128.050 135.463  0.00  0.00    +0.000 OA
ATOM      3  O   UNL     1     113.906 129.378 135.205  0.00  0.00    +0.000 OA
ATOM      4  C   UNL     1     113.200 127.138 137.116  0.00  0.00    +0.000 A 
ATOM      5  C   UNL     1     112.657 127.786 137.275  0.00  0.00    +0.000 A 
ATOM      6  C   UNL     1     113.794 127.225 136.502  0.00  0.00    +0.000 A 
ATOM      7  C   UNL     1     112.716 128.511 136.818  0.00  0.00    +0.000 A 
ATOM      8  C   UNL     1     113.287 128.593 136.228  0.00  0.00    +0.000 A 
ATOM      9  C   UNL     1     113.838 127.957 136.055  0.00  0.00    +0.000 A 
ATOM     10  C   UNL     1     113.335 129.294 135.795  0.00  0.00    +0.000 A 
ATOM     11  C   UNL     1     112.240 129.830 136.542  0.00  0.00    +0.000 A 
ATOM     12  C   UNL     1     112.812 129.912 135.952  0.00  0.00    +0.000 A 
ENDROOT
BRANCH  11  14
ATOM     13  O   UNL     1     110.146 132.301 137.169  0.00  0.00    +0.000 OA
ATOM     14  C   UNL     1     111.717 130.448 136.699  0.00  0.00    +0.000 A 
ATOM     15  C   UNL     1     110.967 130.450 136.353  0.00  0.00    +0.000 A 
ATOM     16  C   UNL     1     111.943 131.062 137.200  0.00  0.00    +0.000 A 
ATOM     17  C   UNL     1     110.443 131.068 136.510  0.00  0.00    +0.000 A 
ATOM     18  C   UNL     1     111.419 131.680 137.357  0.00  0.00    +0.000 A 
ATOM     19  C   UNL     1     110.669 131.683 137.012  0.00  0.00    +0.000 A 
BRANCH  17  20
ATOM     20  O   UNL     1     109.694 131.071 136.166  0.00  0.00    +0.000 OA
ATOM     21  C   UNL     1     109.616 131.009 135.347  0.00  0.00    +0.000 C 
ENDBRANCH  17  20
ENDBRANCH  11  14
BRANCH   4  22
ATOM     22  O   UNL     1     113.150 126.438 137.550  0.00  0.00    +0.000 OA
BRANCH  22  31
ATOM     23  O   UNL     1     112.117 125.807 136.790  0.00  0.00    +0.000 OA
ATOM     24  O   UNL     1     111.866 123.729 136.171  0.00  0.00    +0.000 OA
ATOM     25  O   UNL     1     113.289 123.637 137.001  0.00  0.00    +0.000 OA
ATOM     26  O   UNL     1     113.931 124.992 137.690  0.00  0.00    +0.000 OA
ATOM     27  C   UNL     1     112.187 124.407 136.516  0.00  0.00    +0.000 C 
ATOM     28  C   UNL     1     112.898 124.360 136.931  0.00  0.00    +0.000 C 
ATOM     29  C   UNL     1     111.796 125.130 136.446  0.00  0.00    +0.000 C 
ATOM     30  C   UNL     1     113.219 125.038 137.276  0.00  0.00    +0.000 C 
ATOM     31  C   UNL     1     112.829 125.762 137.206  0.00  0.00    +0.000 C 
BRANCH  29  32
ATOM     32  C   UNL     1     111.084 125.176 136.031  0.00  0.00    +0.000 C 
BRANCH  32  33
ATOM     33  O   UNL     1     110.802 125.906 135.773  0.00  0.00    +0.000 OA
BRANCH  33  35
ATOM     34  O   UNL     1     109.850 125.543 134.772  0.00  0.00    +0.000 OA
ATOM     35  C   UNL     1     110.044 125.967 135.453  0.00  0.00    +0.000 C 
BRANCH  35  36
ATOM     36  C   UNL     1     109.482 126.450 135.812  0.00  0.00    +0.000 C 
ATOM     37  C   UNL     1     109.245 127.151 135.447  0.00  0.00    +0.000 C 
ATOM     38  C   UNL     1     108.682 127.634 135.806  0.00  0.00    +0.000 C 
ENDBRANCH  35  36
ENDBRANCH  33  35
ENDBRANCH  32  33
ENDBRANCH  29  32
ENDBRANCH  22  31
ENDBRANCH   4  22
TORSDOF 8
ENDMDL
MODEL 6
REMARK VINA RESULT:      -8.7      1.917      2.973
REMARK  Name = 24208689
REMARK  8 active torsions:
REMARK  status: ('A' for Active; 'I' for Inactive)
REMARK    1  A    between atoms: O_3  and  C_17
REMARK    2  A    between atoms: O_3  and  C_19
REMARK    3  A    between atoms: O_6  and  C_18
REMARK    4  A    between atoms: O_6  and  C_24
REMARK    5  A    between atoms: O_11  and  C_34
REMARK    6  A    between atoms: C_15  and  C_18
REMARK    7  A    between atoms: C_24  and  C_28
REMARK    8  A    between atoms: C_27  and  C_30
REMARK                            x       y       z     vdW  Elec       q    Type
REMARK                         _______ _______ _______ _____ _____    ______ ____
ROOT
ATOM      1  O   UNL     1     110.855 126.837 136.880  0.00  0.00    +0.000 OA
ATOM      2  O   UNL     1     109.390 128.637 135.159  0.00  0.00    +0.000 OA
ATOM      3  O   UNL     1     110.128 127.523 134.615  0.00  0.00    +0.000 OA
ATOM      4  C   UNL     1     109.626 128.634 137.387  0.00  0.00    +0.000 A 
ATOM      5  C   UNL     1     110.129 127.943 137.479  0.00  0.00    +0.000 A 
ATOM      6  C   UNL     1     109.374 128.872 136.600  0.00  0.00    +0.000 A 
ATOM      7  C   UNL     1     110.373 127.499 136.785  0.00  0.00    +0.000 A 
ATOM      8  C   UNL     1     110.130 127.728 136.030  0.00  0.00    +0.000 A 
ATOM      9  C   UNL     1     109.628 128.416 135.918  0.00  0.00    +0.000 A 
ATOM     10  C   UNL     1     110.370 127.295 135.370  0.00  0.00    +0.000 A 
ATOM     11  C   UNL     1     111.095 126.404 136.220  0.00  0.00    +0.000 A 
ATOM     12  C   UNL     1     110.853 126.633 135.465  0.00  0.00    +0.000 A 
ENDROOT
BRANCH  11  14
ATOM     13  O   UNL     1     113.026 123.755 136.600  0.00  0.00    +0.000 OA
ATOM     14  C   UNL     1     111.578 125.741 136.315  0.00  0.00    +0.000 A 
ATOM     15  C   UNL     1     112.395 125.834 136.387  0.00  0.00    +0.000 A 
ATOM     16  C   UNL     1     111.244 124.987 136.338  0.00  0.00    +0.000 A 
ATOM     17  C   UNL     1     112.878 125.171 136.482  0.00  0.00    +0.000 A 
ATOM     18  C   UNL     1     111.727 124.326 136.433  0.00  0.00    +0.000 A 
ATOM     19  C   UNL     1     112.544 124.417 136.505  0.00  0.00    +0.000 A 
BRANCH  17  20
ATOM     20  O   UNL     1     113.695 125.263 136.554  0.00  0.00    +0.000 OA
ATOM     21  C   UNL     1     114.003 125.814 137.085  0.00  0.00    +0.000 C 
ENDBRANCH  17  20
ENDBRANCH  11  14
BRANCH   4  22
ATOM     22  O   UNL     1     109.387 129.066 138.048  0.00  0.00    +0.000 OA
BRANCH  22  31
ATOM     23  O   UNL     1     110.561 129.881 138.084  0.00  0.00    +0.000 OA
ATOM     24  O   UNL     1     110.854 131.934 138.763  0.00  0.00    +0.000 OA
ATOM     25  O   UNL     1     109.241 131.738 139.049  0.00  0.00    +0.000 OA
ATOM     26  O   UNL     1     108.507 130.304 138.691  0.00  0.00    +0.000 OA
ATOM     27  C   UNL     1     110.487 131.216 138.584  0.00  0.00    +0.000 C 
ATOM     28  C   UNL     1     109.681 131.119 138.727  0.00  0.00    +0.000 C 
ATOM     29  C   UNL     1     110.927 130.597 138.263  0.00  0.00    +0.000 C 
ATOM     30  C   UNL     1     109.314 130.401 138.548  0.00  0.00    +0.000 C 
ATOM     31  C   UNL     1     109.754 129.782 138.226  0.00  0.00    +0.000 C 
BRANCH  29  32
ATOM     32  C   UNL     1     111.734 130.695 138.120  0.00  0.00    +0.000 C 
BRANCH  32  33
ATOM     33  O   UNL     1     112.047 130.518 137.378  0.00  0.00    +0.000 OA
BRANCH  33  35
ATOM     34  O   UNL     1     113.359 131.052 137.560  0.00  0.00    +0.000 OA
ATOM     35  C   UNL     1     112.864 130.456 137.278  0.00  0.00    +0.000 C 
BRANCH  35  36
ATOM     36  C   UNL     1     113.185 129.799 136.897  0.00  0.00    +0.000 C 
ATOM     37  C   UNL     1     113.438 129.858 136.114  0.00  0.00    +0.000 C 
ATOM     38  C   UNL     1     113.759 129.201 135.733  0.00  0.00    +0.000 C 
ENDBRANCH  35  36
ENDBRANCH  33  35
ENDBRANCH  32  33
ENDBRANCH  29  32
ENDBRANCH  22  31
ENDBRANCH   4  22
TORSDOF 8
ENDMDL
MODEL 7
REMARK VINA RESULT:      -8.7      2.330      3.359
REMARK  Name = 24208689
REMARK  8 active torsions:
REMARK  status: ('A' for Active; 'I' for Inactive)
REMARK    1  A    between atoms: O_3  and  C_17
REMARK    2  A    between atoms: O_3  and  C_19
REMARK    3  A    between atoms: O_6  and  C_18
REMARK    4  A    between atoms: O_6  and  C_24
REMARK    5  A    between atoms: O_11  and  C_34
REMARK    6  A    between atoms: C_15  and  C_18
REMARK    7  A    between atoms: C_24  and  C_28
REMARK    8  A    between atoms: C_27  and  C_30
REMARK                            x       y       z     vdW  Elec       q    Type
REMARK                         _______ _______ _______ _____ _____    ______ ____
ROOT
ATOM      1  O   UNL     1     112.689 127.110 137.246  0.00  0.00    +0.000 OA
ATOM      2  O   UNL     1     113.236 129.668 136.020  0.00  0.00    +0.000 OA
ATOM      3  O   UNL     1     114.069 128.521 135.752  0.00  0.00    +0.000 OA
ATOM      4  C   UNL     1     111.615 129.061 137.441  0.00  0.00    +0.000 A 
ATOM      5  C   UNL     1     111.819 128.232 137.549  0.00  0.00    +0.000 A 
ATOM      6  C   UNL     1     112.094 129.550 136.923  0.00  0.00    +0.000 A 
ATOM      7  C   UNL     1     112.498 127.906 137.138  0.00  0.00    +0.000 A 
ATOM      8  C   UNL     1     112.958 128.376 136.640  0.00  0.00    +0.000 A 
ATOM      9  C   UNL     1     112.770 129.205 136.520  0.00  0.00    +0.000 A 
ATOM     10  C   UNL     1     113.609 128.051 136.250  0.00  0.00    +0.000 A 
ATOM     11  C   UNL     1     113.339 126.785 136.856  0.00  0.00    +0.000 A 
ATOM     12  C   UNL     1     113.799 127.255 136.358  0.00  0.00    +0.000 A 
ENDROOT
BRANCH  11  14
ATOM     13  O   UNL     1     114.100 123.603 137.287  0.00  0.00    +0.000 OA
ATOM     14  C   UNL     1     113.530 125.989 136.964  0.00  0.00    +0.000 A 
ATOM     15  C   UNL     1     113.053 125.403 136.631  0.00  0.00    +0.000 A 
ATOM     16  C   UNL     1     114.196 125.781 137.404  0.00  0.00    +0.000 A 
ATOM     17  C   UNL     1     113.244 124.607 136.739  0.00  0.00    +0.000 A 
ATOM     18  C   UNL     1     114.385 124.986 137.511  0.00  0.00    +0.000 A 
ATOM     19  C   UNL     1     113.910 124.399 137.179  0.00  0.00    +0.000 A 
BRANCH  17  20
ATOM     20  O   UNL     1     112.769 124.021 136.407  0.00  0.00    +0.000 OA
ATOM     21  C   UNL     1     111.948 124.068 136.475  0.00  0.00    +0.000 C 
ENDBRANCH  17  20
ENDBRANCH  11  14
BRANCH   4  22
ATOM     22  O   UNL     1     110.964 129.383 137.832  0.00  0.00    +0.000 OA
BRANCH  22  31
ATOM     23  O   UNL     1     111.547 129.513 139.130  0.00  0.00    +0.000 OA
ATOM     24  O   UNL     1     111.398 131.111 140.610  0.00  0.00    +0.000 OA
ATOM     25  O   UNL     1     110.449 131.715 139.402  0.00  0.00    +0.000 OA
ATOM     26  O   UNL     1     110.232 130.851 138.013  0.00  0.00    +0.000 OA
ATOM     27  C   UNL     1     111.289 130.679 139.915  0.00  0.00    +0.000 C 
ATOM     28  C   UNL     1     110.815 130.981 139.312  0.00  0.00    +0.000 C 
ATOM     29  C   UNL     1     111.655 129.945 139.824  0.00  0.00    +0.000 C 
ATOM     30  C   UNL     1     110.707 130.549 138.617  0.00  0.00    +0.000 C 
ATOM     31  C   UNL     1     111.073 129.815 138.526  0.00  0.00    +0.000 C 
BRANCH  29  32
ATOM     32  C   UNL     1     112.130 129.644 140.429  0.00  0.00    +0.000 C 
BRANCH  32  33
ATOM     33  O   UNL     1     112.409 128.869 140.387  0.00  0.00    +0.000 OA
BRANCH  33  35
ATOM     34  O   UNL     1     112.726 128.618 141.758  0.00  0.00    +0.000 OA
ATOM     35  C   UNL     1     112.932 128.587 140.960  0.00  0.00    +0.000 C 
BRANCH  35  36
ATOM     36  C   UNL     1     113.661 128.275 140.734  0.00  0.00    +0.000 C 
ATOM     37  C   UNL     1     113.853 127.495 140.925  0.00  0.00    +0.000 C 
ATOM     38  C   UNL     1     114.582 127.182 140.700  0.00  0.00    +0.000 C 
ENDBRANCH  35  36
ENDBRANCH  33  35
ENDBRANCH  32  33
ENDBRANCH  29  32
ENDBRANCH  22  31
ENDBRANCH   4  22
TORSDOF 8
ENDMDL
MODEL 8
REMARK VINA RESULT:      -8.7      2.026      3.035
REMARK  Name = 24208689
REMARK  8 active torsions:
REMARK  status: ('A' for Active; 'I' for Inactive)
REMARK    1  A    between atoms: O_3  and  C_17
REMARK    2  A    between atoms: O_3  and  C_19
REMARK    3  A    between atoms: O_6  and  C_18
REMARK    4  A    between atoms: O_6  and  C_24
REMARK    5  A    between atoms: O_11  and  C_34
REMARK    6  A    between atoms: C_15  and  C_18
REMARK    7  A    between atoms: C_24  and  C_28
REMARK    8  A    between atoms: C_27  and  C_30
REMARK                            x       y       z     vdW  Elec       q    Type
REMARK                         _______ _______ _______ _____ _____    ______ ____
ROOT
ATOM      1  O   UNL     1     110.354 127.831 135.870  0.00  0.00    +0.000 OA
ATOM      2  O   UNL     1     107.835 129.239 135.737  0.00  0.00    +0.000 OA
ATOM      3  O   UNL     1     107.879 127.802 135.847  0.00  0.00    +0.000 OA
ATOM      4  C   UNL     1     109.935 130.019 135.699  0.00  0.00    +0.000 A 
ATOM      5  C   UNL     1     110.367 129.278 135.760  0.00  0.00    +0.000 A 
ATOM      6  C   UNL     1     109.076 130.009 135.691  0.00  0.00    +0.000 A 
ATOM      7  C   UNL     1     109.934 128.538 135.812  0.00  0.00    +0.000 A 
ATOM      8  C   UNL     1     109.109 128.529 135.804  0.00  0.00    +0.000 A 
ATOM      9  C   UNL     1     108.660 129.259 135.744  0.00  0.00    +0.000 A 
ATOM     10  C   UNL     1     108.704 127.812 135.855  0.00  0.00    +0.000 A 
ATOM     11  C   UNL     1     109.949 127.114 135.921  0.00  0.00    +0.000 A 
ATOM     12  C   UNL     1     109.124 127.104 135.913  0.00  0.00    +0.000 A 
ENDROOT
BRANCH  11  14
ATOM     13  O   UNL     1     111.629 124.283 136.155  0.00  0.00    +0.000 OA
ATOM     14  C   UNL     1     110.369 126.406 135.979  0.00  0.00    +0.000 A 
ATOM     15  C   UNL     1     110.638 126.146 136.715  0.00  0.00    +0.000 A 
ATOM     16  C   UNL     1     110.519 125.958 135.303  0.00  0.00    +0.000 A 
ATOM     17  C   UNL     1     111.058 125.438 136.773  0.00  0.00    +0.000 A 
ATOM     18  C   UNL     1     110.939 125.251 135.362  0.00  0.00    +0.000 A 
ATOM     19  C   UNL     1     111.209 124.991 136.097  0.00  0.00    +0.000 A 
BRANCH  17  20
ATOM     20  O   UNL     1     111.328 125.178 137.508  0.00  0.00    +0.000 OA
ATOM     21  C   UNL     1     110.906 125.365 138.193  0.00  0.00    +0.000 C 
ENDBRANCH  17  20
ENDBRANCH  11  14
BRANCH   4  22
ATOM     22  O   UNL     1     110.342 130.735 135.649  0.00  0.00    +0.000 OA
BRANCH  22  31
ATOM     23  O   UNL     1     110.855 130.863 136.976  0.00  0.00    +0.000 OA
ATOM     24  O   UNL     1     110.832 132.549 138.362  0.00  0.00    +0.000 OA
ATOM     25  O   UNL     1     110.051 133.202 137.063  0.00  0.00    +0.000 OA
ATOM     26  O   UNL     1     109.806 132.294 135.706  0.00  0.00    +0.000 OA
ATOM     27  C   UNL     1     110.709 132.095 137.683  0.00  0.00    +0.000 C 
ATOM     28  C   UNL     1     110.319 132.422 137.034  0.00  0.00    +0.000 C 
ATOM     29  C   UNL     1     110.977 131.316 137.654  0.00  0.00    +0.000 C 
ATOM     30  C   UNL     1     110.196 131.968 136.355  0.00  0.00    +0.000 C 
ATOM     31  C   UNL     1     110.465 131.188 136.326  0.00  0.00    +0.000 C 
BRANCH  29  32
ATOM     32  C   UNL     1     111.368 130.990 138.304  0.00  0.00    +0.000 C 
BRANCH  32  33
ATOM     33  O   UNL     1     112.000 130.473 138.190  0.00  0.00    +0.000 OA
BRANCH  33  35
ATOM     34  O   UNL     1     112.633 130.495 139.471  0.00  0.00    +0.000 OA
ATOM     35  C   UNL     1     112.327 130.072 138.832  0.00  0.00    +0.000 C 
BRANCH  35  36
ATOM     36  C   UNL     1     112.348 129.248 138.837  0.00  0.00    +0.000 C 
ATOM     37  C   UNL     1     113.064 128.853 138.944  0.00  0.00    +0.000 C 
ATOM     38  C   UNL     1     113.085 128.029 138.949  0.00  0.00    +0.000 C 
ENDBRANCH  35  36
ENDBRANCH  33  35
ENDBRANCH  32  33
ENDBRANCH  29  32
ENDBRANCH  22  31
ENDBRANCH   4  22
TORSDOF 8
ENDMDL
MODEL 9
REMARK VINA RESULT:      -8.6      2.774      5.468
REMARK  Name = 24208689
REMARK  8 active torsions:
REMARK  status: ('A' for Active; 'I' for Inactive)
REMARK    1  A    between atoms: O_3  and  C_17
REMARK    2  A    between atoms: O_3  and  C_19
REMARK    3  A    between atoms: O_6  and  C_18
REMARK    4  A    between atoms: O_6  and  C_24
REMARK    5  A    between atoms: O_11  and  C_34
REMARK    6  A    between atoms: C_15  and  C_18
REMARK    7  A    between atoms: C_24  and  C_28
REMARK    8  A    between atoms: C_27  and  C_30
REMARK                            x       y       z     vdW  Elec       q    Type
REMARK                         _______ _______ _______ _____ _____    ______ ____
ROOT
ATOM      1  O   UNL     1     111.285 129.608 136.983  0.00  0.00    +0.000 OA
ATOM      2  O   UNL     1     113.972 130.045 136.015  0.00  0.00    +0.000 OA
ATOM      3  O   UNL     1     112.948 129.510 135.152  0.00  0.00    +0.000 OA
ATOM      4  C   UNL     1     113.084 130.411 138.039  0.00  0.00    +0.000 A 
ATOM      5  C   UNL     1     112.278 130.150 137.894  0.00  0.00    +0.000 A 
ATOM      6  C   UNL     1     113.661 130.377 137.403  0.00  0.00    +0.000 A 
ATOM      7  C   UNL     1     112.060 129.858 137.116  0.00  0.00    +0.000 A 
ATOM      8  C   UNL     1     112.615 129.825 136.506  0.00  0.00    +0.000 A 
ATOM      9  C   UNL     1     113.425 130.082 136.632  0.00  0.00    +0.000 A 
ATOM     10  C   UNL     1     112.394 129.543 135.763  0.00  0.00    +0.000 A 
ATOM     11  C   UNL     1     111.064 129.326 136.240  0.00  0.00    +0.000 A 
ATOM     12  C   UNL     1     111.619 129.293 135.630  0.00  0.00    +0.000 A 
ENDROOT
BRANCH  11  14
ATOM     13  O   UNL     1     107.964 128.329 135.707  0.00  0.00    +0.000 OA
ATOM     14  C   UNL     1     110.289 129.076 136.107  0.00  0.00    +0.000 A 
ATOM     15  C   UNL     1     109.703 129.630 135.932  0.00  0.00    +0.000 A 
ATOM     16  C   UNL     1     110.101 128.274 136.148  0.00  0.00    +0.000 A 
ATOM     17  C   UNL     1     108.928 129.381 135.798  0.00  0.00    +0.000 A 
ATOM     18  C   UNL     1     109.327 128.026 136.015  0.00  0.00    +0.000 A 
ATOM     19  C   UNL     1     108.739 128.578 135.840  0.00  0.00    +0.000 A 
BRANCH  17  20
ATOM     20  O   UNL     1     108.341 129.933 135.623  0.00  0.00    +0.000 OA
ATOM     21  C   UNL     1     108.308 130.646 136.038  0.00  0.00    +0.000 C 
ENDBRANCH  17  20
ENDBRANCH  11  14
BRANCH   4  22
ATOM     22  O   UNL     1     113.302 130.693 138.783  0.00  0.00    +0.000 OA
BRANCH  22  31
ATOM     23  O   UNL     1     113.395 129.404 139.393  0.00  0.00    +0.000 OA
ATOM     24  O   UNL     1     114.707 128.661 140.971  0.00  0.00    +0.000 OA
ATOM     25  O   UNL     1     115.223 130.223 140.846  0.00  0.00    +0.000 OA
ATOM     26  O   UNL     1     114.521 131.239 139.752  0.00  0.00    +0.000 OA
ATOM     27  C   UNL     1     114.355 129.169 140.424  0.00  0.00    +0.000 C 
ATOM     28  C   UNL     1     114.614 129.950 140.362  0.00  0.00    +0.000 C 
ATOM     29  C   UNL     1     113.745 128.896 139.939  0.00  0.00    +0.000 C 
ATOM     30  C   UNL     1     114.262 130.458 139.814  0.00  0.00    +0.000 C 
ATOM     31  C   UNL     1     113.653 130.185 139.330  0.00  0.00    +0.000 C 
BRANCH  29  32
ATOM     32  C   UNL     1     113.488 128.115 140.002  0.00  0.00    +0.000 C 
BRANCH  32  33
ATOM     33  O   UNL     1     113.503 127.620 139.343  0.00  0.00    +0.000 OA
BRANCH  33  35
ATOM     34  O   UNL     1     112.651 126.693 140.017  0.00  0.00    +0.000 OA
ATOM     35  C   UNL     1     113.081 126.911 139.348  0.00  0.00    +0.000 C 
BRANCH  35  36
ATOM     36  C   UNL     1     113.088 126.422 138.685  0.00  0.00    +0.000 C 
ATOM     37  C   UNL     1     112.379 126.209 138.320  0.00  0.00    +0.000 C 
ATOM     38  C   UNL     1     112.387 125.719 137.657  0.00  0.00    +0.000 C 
ENDBRANCH  35  36
ENDBRANCH  33  35
ENDBRANCH  32  33
ENDBRANCH  29  32
ENDBRANCH  22  31
ENDBRANCH   4  22
TORSDOF 8
ENDMDL
MODEL 10
REMARK VINA RESULT:      -8.6      1.921      3.123
REMARK  Name = 24208689
REMARK  8 active torsions:
REMARK  status: ('A' for Active; 'I' for Inactive)
REMARK    1  A    between atoms: O_3  and  C_17
REMARK    2  A    between atoms: O_3  and  C_19
REMARK    3  A    between atoms: O_6  and  C_18
REMARK    4  A    between atoms: O_6  and  C_24
REMARK    5  A    between atoms: O_11  and  C_34
REMARK    6  A    between atoms: C_15  and  C_18
REMARK    7  A    between atoms: C_24  and  C_28
REMARK    8  A    between atoms: C_27  and  C_30
REMARK                            x       y       z     vdW  Elec       q    Type
REMARK                         _______ _______ _______ _____ _____    ______ ____
ROOT
ATOM      1  O   UNL     1     112.404 128.397 137.796  0.00  0.00    +0.000 OA
ATOM      2  O   UNL     1     113.354 128.749 135.091  0.00  0.00    +0.000 OA
ATOM      3  O   UNL     1     114.154 128.065 136.077  0.00  0.00    +0.000 OA
ATOM      4  C   UNL     1     111.433 129.394 136.047  0.00  0.00    +0.000 A 
ATOM      5  C   UNL     1     111.559 129.094 136.843  0.00  0.00    +0.000 A 
ATOM      6  C   UNL     1     112.041 129.278 135.451  0.00  0.00    +0.000 A 
ATOM      7  C   UNL     1     112.289 128.683 137.031  0.00  0.00    +0.000 A 
ATOM      8  C   UNL     1     112.872 128.572 136.458  0.00  0.00    +0.000 A 
ATOM      9  C   UNL     1     112.765 128.865 135.657  0.00  0.00    +0.000 A 
ATOM     10  C   UNL     1     113.570 128.176 136.650  0.00  0.00    +0.000 A 
ATOM     11  C   UNL     1     113.101 128.001 137.989  0.00  0.00    +0.000 A 
ATOM     12  C   UNL     1     113.684 127.890 137.415  0.00  0.00    +0.000 A 
ENDROOT
BRANCH  11  14
ATOM     13  O   UNL     1     113.560 126.859 141.050  0.00  0.00    +0.000 OA
ATOM     14  C   UNL     1     113.216 127.715 138.754  0.00  0.00    +0.000 A 
ATOM     15  C   UNL     1     113.386 128.239 139.368  0.00  0.00    +0.000 A 
ATOM     16  C   UNL     1     113.161 126.906 138.905  0.00  0.00    +0.000 A 
ATOM     17  C   UNL     1     113.501 127.954 140.134  0.00  0.00    +0.000 A 
ATOM     18  C   UNL     1     113.275 126.621 139.670  0.00  0.00    +0.000 A 
ATOM     19  C   UNL     1     113.445 127.144 140.285  0.00  0.00    +0.000 A 
BRANCH  17  20
ATOM     20  O   UNL     1     113.671 128.477 140.749  0.00  0.00    +0.000 OA
ATOM     21  C   UNL     1     114.234 129.071 140.641  0.00  0.00    +0.000 C 
ENDBRANCH  17  20
ENDBRANCH  11  14
BRANCH   4  22
ATOM     22  O   UNL     1     110.735 129.790 135.857  0.00  0.00    +0.000 OA
BRANCH  22  31
ATOM     23  O   UNL     1     110.024 128.588 135.551  0.00  0.00    +0.000 OA
ATOM     24  O   UNL     1     107.895 128.121 135.656  0.00  0.00    +0.000 OA
ATOM     25  O   UNL     1     107.896 129.690 136.168  0.00  0.00    +0.000 OA
ATOM     26  O   UNL     1     109.316 130.524 136.269  0.00  0.00    +0.000 OA
ATOM     27  C   UNL     1     108.606 128.539 135.707  0.00  0.00    +0.000 C 
ATOM     28  C   UNL     1     108.605 129.323 135.963  0.00  0.00    +0.000 C 
ATOM     29  C   UNL     1     109.315 128.171 135.501  0.00  0.00    +0.000 C 
ATOM     30  C   UNL     1     109.316 129.740 136.013  0.00  0.00    +0.000 C 
ATOM     31  C   UNL     1     110.026 129.373 135.807  0.00  0.00    +0.000 C 
BRANCH  29  32
ATOM     32  C   UNL     1     109.314 127.387 135.245  0.00  0.00    +0.000 C 
BRANCH  32  33
ATOM     33  O   UNL     1     109.770 126.824 135.638  0.00  0.00    +0.000 OA
BRANCH  33  35
ATOM     34  O   UNL     1     109.379 125.725 134.813  0.00  0.00    +0.000 OA
ATOM     35  C   UNL     1     109.949 126.107 135.270  0.00  0.00    +0.000 C 
BRANCH  35  36
ATOM     36  C   UNL     1     110.698 125.773 135.360  0.00  0.00    +0.000 C 
ATOM     37  C   UNL     1     110.840 125.235 135.969  0.00  0.00    +0.000 C 
ATOM     38  C   UNL     1     111.588 124.901 136.058  0.00  0.00    +0.000 C 
ENDBRANCH  35  36
ENDBRANCH  33  35
ENDBRANCH  32  33
ENDBRANCH  29  32
ENDBRANCH  22  31
ENDBRANCH   4  22
TORSDOF 8
ENDMDL
