MODEL 1
REMARK VINA RESULT:      -9.4      0.000      0.000
REMARK  Name = 44259052
REMARK  3 active torsions:
REMARK  status: ('A' for Active; 'I' for Inactive)
REMARK    1  A    between atoms: S_1  and  O_3
REMARK    2  A    between atoms: O_3  and  C_14
REMARK    3  A    between atoms: C_12  and  C_16
REMARK                            x       y       z     vdW  Elec       q    Type
REMARK                         _______ _______ _______ _____ _____    ______ ____
ROOT
ATOM      1  O   UNL     1     105.636 124.397 147.659  0.00  0.00    +0.000 OA
ATOM      2  O   UNL     1     108.186 125.579 146.992  0.00  0.00    +0.000 OA
ATOM      3  O   UNL     1     107.094 125.584 146.050  0.00  0.00    +0.000 OA
ATOM      4  O   UNL     1     107.796 124.350 149.612  0.00  0.00    +0.000 OA
ATOM      5  C   UNL     1     106.897 124.981 147.330  0.00  0.00    +0.000 A 
ATOM      6  C   UNL     1     105.345 124.603 146.915  0.00  0.00    +0.000 A 
ATOM      7  C   UNL     1     106.411 124.585 147.867  0.00  0.00    +0.000 A 
ATOM      8  C   UNL     1     105.831 124.999 146.379  0.00  0.00    +0.000 A 
ATOM      9  C   UNL     1     106.608 125.188 146.586  0.00  0.00    +0.000 A 
ATOM     10  C   UNL     1     107.707 125.183 147.535  0.00  0.00    +0.000 A 
ATOM     11  C   UNL     1     106.702 124.364 148.645  0.00  0.00    +0.000 A 
ATOM     12  C   UNL     1     108.015 124.970 148.308  0.00  0.00    +0.000 A 
ATOM     13  C   UNL     1     107.509 124.558 148.867  0.00  0.00    +0.000 A 
ENDROOT
BRANCH   6  15
ATOM     14  O   UNL     1     102.242 123.849 146.085  0.00  0.00    +0.000 OA
ATOM     15  C   UNL     1     104.570 124.415 146.708  0.00  0.00    +0.000 A 
ATOM     16  C   UNL     1     104.406 123.701 146.327  0.00  0.00    +0.000 A 
ATOM     17  C   UNL     1     103.958 124.940 146.881  0.00  0.00    +0.000 A 
ATOM     18  C   UNL     1     103.631 123.513 146.119  0.00  0.00    +0.000 A 
ATOM     19  C   UNL     1     103.181 124.751 146.673  0.00  0.00    +0.000 A 
ATOM     20  C   UNL     1     103.018 124.038 146.292  0.00  0.00    +0.000 A 
ENDBRANCH   6  15
BRANCH   8  21
ATOM     21  O   UNL     1     105.542 125.206 145.635  0.00  0.00    +0.000 OA
BRANCH  21  22
ATOM     22  S   UNL     1     106.060 125.470 145.049  0.00  0.00    +0.000 S 
ATOM     23  O   UNL     1     106.577 125.734 144.463  0.00  0.00    +0.000 OA
ATOM     24  O   UNL     1     106.256 124.689 144.870  0.00  0.00    +0.000 OA
ATOM     25  O   UNL     1     105.863 126.251 145.228  0.00  0.00    +0.000 OA
ENDBRANCH  21  22
ENDBRANCH   8  21
TORSDOF 3
ENDMDL
MODEL 2
REMARK VINA RESULT:      -8.7      7.194      8.253
REMARK  Name = 44259052
REMARK  3 active torsions:
REMARK  status: ('A' for Active; 'I' for Inactive)
REMARK    1  A    between atoms: S_1  and  O_3
REMARK    2  A    between atoms: O_3  and  C_14
REMARK    3  A    between atoms: C_12  and  C_16
REMARK                            x       y       z     vdW  Elec       q    Type
REMARK                         _______ _______ _______ _____ _____    ______ ____
ROOT
ATOM      1  O   UNL     1     103.303 130.260 142.365  0.00  0.00    +0.000 OA
ATOM      2  O   UNL     1     104.245 127.917 140.962  0.00  0.00    +0.000 OA
ATOM      3  O   UNL     1     103.252 128.786 140.378  0.00  0.00    +0.000 OA
ATOM      4  O   UNL     1     105.309 128.552 143.606  0.00  0.00    +0.000 OA
ATOM      5  C   UNL     1     103.769 129.101 141.672  0.00  0.00    +0.000 A 
ATOM      6  C   UNL     1     102.802 130.437 141.733  0.00  0.00    +0.000 A 
ATOM      7  C   UNL     1     103.786 129.593 142.334  0.00  0.00    +0.000 A 
ATOM      8  C   UNL     1     102.785 129.945 141.071  0.00  0.00    +0.000 A 
ATOM      9  C   UNL     1     103.269 129.277 141.040  0.00  0.00    +0.000 A 
ATOM     10  C   UNL     1     104.268 128.403 141.628  0.00  0.00    +0.000 A 
ATOM     11  C   UNL     1     104.303 129.419 142.999  0.00  0.00    +0.000 A 
ATOM     12  C   UNL     1     104.791 128.214 142.283  0.00  0.00    +0.000 A 
ATOM     13  C   UNL     1     104.809 128.726 142.973  0.00  0.00    +0.000 A 
ENDROOT
BRANCH   6  15
ATOM     14  O   UNL     1     100.867 133.107 141.856  0.00  0.00    +0.000 OA
ATOM     15  C   UNL     1     102.319 131.104 141.764  0.00  0.00    +0.000 A 
ATOM     16  C   UNL     1     102.619 131.842 141.548  0.00  0.00    +0.000 A 
ATOM     17  C   UNL     1     101.535 131.034 142.011  0.00  0.00    +0.000 A 
ATOM     18  C   UNL     1     102.135 132.509 141.579  0.00  0.00    +0.000 A 
ATOM     19  C   UNL     1     101.050 131.702 142.041  0.00  0.00    +0.000 A 
ATOM     20  C   UNL     1     101.351 132.439 141.825  0.00  0.00    +0.000 A 
ENDBRANCH   6  15
BRANCH   8  21
ATOM     21  O   UNL     1     102.285 130.121 140.439  0.00  0.00    +0.000 OA
BRANCH  21  22
ATOM     22  S   UNL     1     102.398 129.755 139.708  0.00  0.00    +0.000 S 
ATOM     23  O   UNL     1     102.512 129.390 138.978  0.00  0.00    +0.000 OA
ATOM     24  O   UNL     1     101.824 129.195 139.899  0.00  0.00    +0.000 OA
ATOM     25  O   UNL     1     102.973 130.316 139.517  0.00  0.00    +0.000 OA
ENDBRANCH  21  22
ENDBRANCH   8  21
TORSDOF 3
ENDMDL
MODEL 3
REMARK VINA RESULT:      -8.4      1.426      3.901
REMARK  Name = 44259052
REMARK  3 active torsions:
REMARK  status: ('A' for Active; 'I' for Inactive)
REMARK    1  A    between atoms: S_1  and  O_3
REMARK    2  A    between atoms: O_3  and  C_14
REMARK    3  A    between atoms: C_12  and  C_16
REMARK                            x       y       z     vdW  Elec       q    Type
REMARK                         _______ _______ _______ _____ _____    ______ ____
ROOT
ATOM      1  O   UNL     1     103.654 124.137 147.413  0.00  0.00    +0.000 OA
ATOM      2  O   UNL     1     102.890 122.966 144.885  0.00  0.00    +0.000 OA
ATOM      3  O   UNL     1     104.143 123.665 145.033  0.00  0.00    +0.000 OA
ATOM      4  O   UNL     1     101.109 122.739 147.188  0.00  0.00    +0.000 OA
ATOM      5  C   UNL     1     103.275 123.558 146.163  0.00  0.00    +0.000 A 
ATOM      6  C   UNL     1     104.359 124.403 147.076  0.00  0.00    +0.000 A 
ATOM      7  C   UNL     1     103.112 123.715 146.957  0.00  0.00    +0.000 A 
ATOM      8  C   UNL     1     104.522 124.246 146.283  0.00  0.00    +0.000 A 
ATOM      9  C   UNL     1     103.980 123.823 145.826  0.00  0.00    +0.000 A 
ATOM     10  C   UNL     1     102.718 123.118 145.678  0.00  0.00    +0.000 A 
ATOM     11  C   UNL     1     102.381 123.444 147.319  0.00  0.00    +0.000 A 
ATOM     12  C   UNL     1     101.983 122.840 146.023  0.00  0.00    +0.000 A 
ATOM     13  C   UNL     1     101.813 123.003 146.849  0.00  0.00    +0.000 A 
ENDROOT
BRANCH   6  15
ATOM     14  O   UNL     1     106.527 126.093 148.902  0.00  0.00    +0.000 OA
ATOM     15  C   UNL     1     104.900 124.825 147.532  0.00  0.00    +0.000 A 
ATOM     16  C   UNL     1     104.800 125.636 147.648  0.00  0.00    +0.000 A 
ATOM     17  C   UNL     1     105.543 124.437 147.874  0.00  0.00    +0.000 A 
ATOM     18  C   UNL     1     105.342 126.059 148.103  0.00  0.00    +0.000 A 
ATOM     19  C   UNL     1     106.086 124.860 148.331  0.00  0.00    +0.000 A 
ATOM     20  C   UNL     1     105.985 125.671 148.445  0.00  0.00    +0.000 A 
ENDBRANCH   6  15
BRANCH   8  21
ATOM     21  O   UNL     1     105.226 124.511 145.946  0.00  0.00    +0.000 OA
BRANCH  21  22
ATOM     22  S   UNL     1     105.280 124.614 145.129  0.00  0.00    +0.000 S 
ATOM     23  O   UNL     1     105.334 124.717 144.312  0.00  0.00    +0.000 OA
ATOM     24  O   UNL     1     105.724 123.921 145.071  0.00  0.00    +0.000 OA
ATOM     25  O   UNL     1     104.836 125.307 145.187  0.00  0.00    +0.000 OA
ENDBRANCH  21  22
ENDBRANCH   8  21
TORSDOF 3
ENDMDL
MODEL 4
REMARK VINA RESULT:      -8.4     12.237     13.112
REMARK  Name = 44259052
REMARK  3 active torsions:
REMARK  status: ('A' for Active; 'I' for Inactive)
REMARK    1  A    between atoms: S_1  and  O_3
REMARK    2  A    between atoms: O_3  and  C_14
REMARK    3  A    between atoms: C_12  and  C_16
REMARK                            x       y       z     vdW  Elec       q    Type
REMARK                         _______ _______ _______ _____ _____    ______ ____
ROOT
ATOM      1  O   UNL     1     112.001 125.752 136.018  0.00  0.00    +0.000 OA
ATOM      2  O   UNL     1     110.616 128.190 135.321  0.00  0.00    +0.000 OA
ATOM      3  O   UNL     1     111.879 128.224 136.017  0.00  0.00    +0.000 OA
ATOM      4  O   UNL     1     109.455 125.606 134.612  0.00  0.00    +0.000 OA
ATOM      5  C   UNL     1     111.315 126.957 135.673  0.00  0.00    +0.000 A 
ATOM      6  C   UNL     1     112.606 126.195 136.363  0.00  0.00    +0.000 A 
ATOM      7  C   UNL     1     111.356 126.133 135.673  0.00  0.00    +0.000 A 
ATOM      8  C   UNL     1     112.565 127.019 136.363  0.00  0.00    +0.000 A 
ATOM      9  C   UNL     1     111.919 127.400 136.017  0.00  0.00    +0.000 A 
ATOM     10  C   UNL     1     110.648 127.365 135.317  0.00  0.00    +0.000 A 
ATOM     11  C   UNL     1     110.732 125.660 135.317  0.00  0.00    +0.000 A 
ATOM     12  C   UNL     1     110.015 126.909 134.956  0.00  0.00    +0.000 A 
ATOM     13  C   UNL     1     110.058 126.051 134.956  0.00  0.00    +0.000 A 
ENDROOT
BRANCH   6  15
ATOM     14  O   UNL     1     115.188 124.672 137.742  0.00  0.00    +0.000 OA
ATOM     15  C   UNL     1     113.251 125.815 136.708  0.00  0.00    +0.000 A 
ATOM     16  C   UNL     1     113.257 125.665 137.519  0.00  0.00    +0.000 A 
ATOM     17  C   UNL     1     113.891 125.583 136.241  0.00  0.00    +0.000 A 
ATOM     18  C   UNL     1     113.902 125.285 137.864  0.00  0.00    +0.000 A 
ATOM     19  C   UNL     1     114.537 125.202 136.586  0.00  0.00    +0.000 A 
ATOM     20  C   UNL     1     114.542 125.053 137.397  0.00  0.00    +0.000 A 
ENDBRANCH   6  15
BRANCH   8  21
ATOM     21  O   UNL     1     113.169 127.463 136.707  0.00  0.00    +0.000 OA
BRANCH  21  22
ATOM     22  S   UNL     1     113.236 128.268 136.543  0.00  0.00    +0.000 S 
ATOM     23  O   UNL     1     113.302 129.074 136.378  0.00  0.00    +0.000 OA
ATOM     24  O   UNL     1     113.611 128.092 135.829  0.00  0.00    +0.000 OA
ATOM     25  O   UNL     1     112.860 128.445 137.256  0.00  0.00    +0.000 OA
ENDBRANCH  21  22
ENDBRANCH   8  21
TORSDOF 3
ENDMDL
MODEL 5
REMARK VINA RESULT:      -8.3     10.036     11.491
REMARK  Name = 44259052
REMARK  3 active torsions:
REMARK  status: ('A' for Active; 'I' for Inactive)
REMARK    1  A    between atoms: S_1  and  O_3
REMARK    2  A    between atoms: O_3  and  C_14
REMARK    3  A    between atoms: C_12  and  C_16
REMARK                            x       y       z     vdW  Elec       q    Type
REMARK                         _______ _______ _______ _____ _____    ______ ____
ROOT
ATOM      1  O   UNL     1     113.769 126.368 138.845  0.00  0.00    +0.000 OA
ATOM      2  O   UNL     1     111.200 126.334 140.165  0.00  0.00    +0.000 OA
ATOM      3  O   UNL     1     111.386 125.699 138.884  0.00  0.00    +0.000 OA
ATOM      4  O   UNL     1     113.466 127.671 141.432  0.00  0.00    +0.000 OA
ATOM      5  C   UNL     1     112.499 126.351 139.499  0.00  0.00    +0.000 A 
ATOM      6  C   UNL     1     113.451 125.937 138.217  0.00  0.00    +0.000 A 
ATOM      7  C   UNL     1     113.293 126.574 139.486  0.00  0.00    +0.000 A 
ATOM      8  C   UNL     1     112.657 125.714 138.230  0.00  0.00    +0.000 A 
ATOM      9  C   UNL     1     112.181 125.922 138.871  0.00  0.00    +0.000 A 
ATOM     10  C   UNL     1     111.993 126.561 140.161  0.00  0.00    +0.000 A 
ATOM     11  C   UNL     1     113.636 127.023 140.135  0.00  0.00    +0.000 A 
ATOM     12  C   UNL     1     112.318 127.009 140.818  0.00  0.00    +0.000 A 
ATOM     13  C   UNL     1     113.145 127.241 140.805  0.00  0.00    +0.000 A 
ENDROOT
BRANCH   6  15
ATOM     14  O   UNL     1     115.356 125.110 135.652  0.00  0.00    +0.000 OA
ATOM     15  C   UNL     1     113.927 125.730 137.576  0.00  0.00    +0.000 A 
ATOM     16  C   UNL     1     114.305 124.997 137.562  0.00  0.00    +0.000 A 
ATOM     17  C   UNL     1     114.026 126.257 136.949  0.00  0.00    +0.000 A 
ATOM     18  C   UNL     1     114.781 124.790 136.921  0.00  0.00    +0.000 A 
ATOM     19  C   UNL     1     114.502 126.050 136.307  0.00  0.00    +0.000 A 
ATOM     20  C   UNL     1     114.879 125.316 136.294  0.00  0.00    +0.000 A 
ENDBRANCH   6  15
BRANCH   8  21
ATOM     21  O   UNL     1     112.339 125.284 137.602  0.00  0.00    +0.000 OA
BRANCH  21  22
ATOM     22  S   UNL     1     111.523 125.272 137.482  0.00  0.00    +0.000 S 
ATOM     23  O   UNL     1     110.707 125.259 137.362  0.00  0.00    +0.000 OA
ATOM     24  O   UNL     1     111.560 126.027 137.151  0.00  0.00    +0.000 OA
ATOM     25  O   UNL     1     111.486 124.517 137.813  0.00  0.00    +0.000 OA
ENDBRANCH  21  22
ENDBRANCH   8  21
TORSDOF 3
ENDMDL
MODEL 6
REMARK VINA RESULT:      -8.3     12.062     12.710
REMARK  Name = 44259052
REMARK  3 active torsions:
REMARK  status: ('A' for Active; 'I' for Inactive)
REMARK    1  A    between atoms: S_1  and  O_3
REMARK    2  A    between atoms: O_3  and  C_14
REMARK    3  A    between atoms: C_12  and  C_16
REMARK                            x       y       z     vdW  Elec       q    Type
REMARK                         _______ _______ _______ _____ _____    ______ ____
ROOT
ATOM      1  O   UNL     1     112.989 126.650 136.564  0.00  0.00    +0.000 OA
ATOM      2  O   UNL     1     112.239 123.865 136.405  0.00  0.00    +0.000 OA
ATOM      3  O   UNL     1     111.320 124.906 136.016  0.00  0.00    +0.000 OA
ATOM      4  O   UNL     1     114.896 124.601 137.366  0.00  0.00    +0.000 OA
ATOM      5  C   UNL     1     112.619 125.273 136.485  0.00  0.00    +0.000 A 
ATOM      6  C   UNL     1     112.247 126.866 136.276  0.00  0.00    +0.000 A 
ATOM      7  C   UNL     1     113.176 125.854 136.668  0.00  0.00    +0.000 A 
ATOM      8  C   UNL     1     111.690 126.285 136.094  0.00  0.00    +0.000 A 
ATOM      9  C   UNL     1     111.877 125.487 136.198  0.00  0.00    +0.000 A 
ATOM     10  C   UNL     1     112.802 124.439 136.590  0.00  0.00    +0.000 A 
ATOM     11  C   UNL     1     113.953 125.641 136.968  0.00  0.00    +0.000 A 
ATOM     12  C   UNL     1     113.573 124.208 136.889  0.00  0.00    +0.000 A 
ATOM     13  C   UNL     1     114.153 124.814 137.079  0.00  0.00    +0.000 A 
ENDROOT
BRANCH   6  15
ATOM     14  O   UNL     1     111.500 130.053 135.857  0.00  0.00    +0.000 OA
ATOM     15  C   UNL     1     112.060 127.662 136.172  0.00  0.00    +0.000 A 
ATOM     16  C   UNL     1     111.665 128.076 136.767  0.00  0.00    +0.000 A 
ATOM     17  C   UNL     1     112.268 128.046 135.472  0.00  0.00    +0.000 A 
ATOM     18  C   UNL     1     111.479 128.872 136.662  0.00  0.00    +0.000 A 
ATOM     19  C   UNL     1     112.082 128.844 135.367  0.00  0.00    +0.000 A 
ATOM     20  C   UNL     1     111.687 129.256 135.962  0.00  0.00    +0.000 A 
ENDBRANCH   6  15
BRANCH   8  21
ATOM     21  O   UNL     1     110.947 126.500 135.806  0.00  0.00    +0.000 OA
BRANCH  21  22
ATOM     22  S   UNL     1     110.463 125.935 135.449  0.00  0.00    +0.000 S 
ATOM     23  O   UNL     1     109.979 125.371 135.092  0.00  0.00    +0.000 OA
ATOM     24  O   UNL     1     110.039 125.854 136.152  0.00  0.00    +0.000 OA
ATOM     25  O   UNL     1     110.887 126.016 134.746  0.00  0.00    +0.000 OA
ENDBRANCH  21  22
ENDBRANCH   8  21
TORSDOF 3
ENDMDL
MODEL 7
REMARK VINA RESULT:      -8.2      1.626      4.259
REMARK  Name = 44259052
REMARK  3 active torsions:
REMARK  status: ('A' for Active; 'I' for Inactive)
REMARK    1  A    between atoms: S_1  and  O_3
REMARK    2  A    between atoms: O_3  and  C_14
REMARK    3  A    between atoms: C_12  and  C_16
REMARK                            x       y       z     vdW  Elec       q    Type
REMARK                         _______ _______ _______ _____ _____    ______ ____
ROOT
ATOM      1  O   UNL     1     105.057 124.348 146.928  0.00  0.00    +0.000 OA
ATOM      2  O   UNL     1     102.370 125.017 147.751  0.00  0.00    +0.000 OA
ATOM      3  O   UNL     1     103.516 125.600 148.405  0.00  0.00    +0.000 OA
ATOM      4  O   UNL     1     102.791 123.132 145.561  0.00  0.00    +0.000 OA
ATOM      5  C   UNL     1     103.728 124.678 147.334  0.00  0.00    +0.000 A 
ATOM      6  C   UNL     1     105.360 124.852 147.507  0.00  0.00    +0.000 A 
ATOM      7  C   UNL     1     104.242 124.260 146.842  0.00  0.00    +0.000 A 
ATOM      8  C   UNL     1     104.846 125.270 147.999  0.00  0.00    +0.000 A 
ATOM      9  C   UNL     1     104.030 125.183 147.913  0.00  0.00    +0.000 A 
ATOM     10  C   UNL     1     102.876 124.596 147.254  0.00  0.00    +0.000 A 
ATOM     11  C   UNL     1     103.939 123.732 146.235  0.00  0.00    +0.000 A 
ATOM     12  C   UNL     1     102.556 124.072 146.653  0.00  0.00    +0.000 A 
ATOM     13  C   UNL     1     103.091 123.637 146.141  0.00  0.00    +0.000 A 
ENDROOT
BRANCH   6  15
ATOM     14  O   UNL     1     108.623 125.200 147.853  0.00  0.00    +0.000 OA
ATOM     15  C   UNL     1     106.175 124.939 147.593  0.00  0.00    +0.000 A 
ATOM     16  C   UNL     1     106.593 125.440 147.087  0.00  0.00    +0.000 A 
ATOM     17  C   UNL     1     106.574 124.525 148.185  0.00  0.00    +0.000 A 
ATOM     18  C   UNL     1     107.408 125.527 147.174  0.00  0.00    +0.000 A 
ATOM     19  C   UNL     1     107.390 124.612 148.272  0.00  0.00    +0.000 A 
ATOM     20  C   UNL     1     107.807 125.113 147.766  0.00  0.00    +0.000 A 
ENDBRANCH   6  15
BRANCH   8  21
ATOM     21  O   UNL     1     105.148 125.774 148.578  0.00  0.00    +0.000 OA
BRANCH  21  22
ATOM     22  S   UNL     1     104.655 126.327 148.941  0.00  0.00    +0.000 S 
ATOM     23  O   UNL     1     104.162 126.880 149.305  0.00  0.00    +0.000 OA
ATOM     24  O   UNL     1     104.744 126.831 148.294  0.00  0.00    +0.000 OA
ATOM     25  O   UNL     1     104.566 125.822 149.588  0.00  0.00    +0.000 OA
ENDBRANCH  21  22
ENDBRANCH   8  21
TORSDOF 3
ENDMDL
MODEL 8
REMARK VINA RESULT:      -8.1      1.757      3.706
REMARK  Name = 44259052
REMARK  3 active torsions:
REMARK  status: ('A' for Active; 'I' for Inactive)
REMARK    1  A    between atoms: S_1  and  O_3
REMARK    2  A    between atoms: O_3  and  C_14
REMARK    3  A    between atoms: C_12  and  C_16
REMARK                            x       y       z     vdW  Elec       q    Type
REMARK                         _______ _______ _______ _____ _____    ______ ____
ROOT
ATOM      1  O   UNL     1     106.682 126.851 147.095  0.00  0.00    +0.000 OA
ATOM      2  O   UNL     1     105.185 127.064 144.633  0.00  0.00    +0.000 OA
ATOM      3  O   UNL     1     105.479 125.778 145.216  0.00  0.00    +0.000 OA
ATOM      4  O   UNL     1     106.124 129.481 145.976  0.00  0.00    +0.000 OA
ATOM      5  C   UNL     1     105.942 126.958 145.878  0.00  0.00    +0.000 A 
ATOM      6  C   UNL     1     106.621 126.029 147.060  0.00  0.00    +0.000 A 
ATOM      7  C   UNL     1     106.342 127.315 146.504  0.00  0.00    +0.000 A 
ATOM      8  C   UNL     1     106.220 125.671 146.434  0.00  0.00    +0.000 A 
ATOM      9  C   UNL     1     105.880 126.136 145.842  0.00  0.00    +0.000 A 
ATOM     10  C   UNL     1     105.584 127.431 145.256  0.00  0.00    +0.000 A 
ATOM     11  C   UNL     1     106.413 128.171 146.551  0.00  0.00    +0.000 A 
ATOM     12  C   UNL     1     105.644 128.287 145.286  0.00  0.00    +0.000 A 
ATOM     13  C   UNL     1     106.062 128.659 145.938  0.00  0.00    +0.000 A 
ENDROOT
BRANCH   6  15
ATOM     14  O   UNL     1     107.979 124.171 149.425  0.00  0.00    +0.000 OA
ATOM     15  C   UNL     1     106.960 125.565 147.651  0.00  0.00    +0.000 A 
ATOM     16  C   UNL     1     106.512 125.335 148.305  0.00  0.00    +0.000 A 
ATOM     17  C   UNL     1     107.748 125.329 147.589  0.00  0.00    +0.000 A 
ATOM     18  C   UNL     1     106.851 124.871 148.896  0.00  0.00    +0.000 A 
ATOM     19  C   UNL     1     108.088 124.864 148.181  0.00  0.00    +0.000 A 
ATOM     20  C   UNL     1     107.639 124.635 148.834  0.00  0.00    +0.000 A 
ENDBRANCH   6  15
BRANCH   8  21
ATOM     21  O   UNL     1     106.158 124.849 146.399  0.00  0.00    +0.000 OA
BRANCH  21  22
ATOM     22  S   UNL     1     105.887 124.485 145.710  0.00  0.00    +0.000 S 
ATOM     23  O   UNL     1     105.616 124.120 145.022  0.00  0.00    +0.000 OA
ATOM     24  O   UNL     1     106.634 124.571 145.370  0.00  0.00    +0.000 OA
ATOM     25  O   UNL     1     105.140 124.398 146.050  0.00  0.00    +0.000 OA
ENDBRANCH  21  22
ENDBRANCH   8  21
TORSDOF 3
ENDMDL
MODEL 9
REMARK VINA RESULT:      -8.1      1.572      2.003
REMARK  Name = 44259052
REMARK  3 active torsions:
REMARK  status: ('A' for Active; 'I' for Inactive)
REMARK    1  A    between atoms: S_1  and  O_3
REMARK    2  A    between atoms: O_3  and  C_14
REMARK    3  A    between atoms: C_12  and  C_16
REMARK                            x       y       z     vdW  Elec       q    Type
REMARK                         _______ _______ _______ _____ _____    ______ ____
ROOT
ATOM      1  O   UNL     1     104.462 124.752 148.528  0.00  0.00    +0.000 OA
ATOM      2  O   UNL     1     106.765 124.649 146.787  0.00  0.00    +0.000 OA
ATOM      3  O   UNL     1     105.440 124.381 146.285  0.00  0.00    +0.000 OA
ATOM      4  O   UNL     1     107.108 125.306 149.611  0.00  0.00    +0.000 OA
ATOM      5  C   UNL     1     105.601 124.702 147.668  0.00  0.00    +0.000 A 
ATOM      6  C   UNL     1     103.973 124.555 147.893  0.00  0.00    +0.000 A 
ATOM      7  C   UNL     1     105.276 124.826 148.416  0.00  0.00    +0.000 A 
ATOM      8  C   UNL     1     104.299 124.431 147.145  0.00  0.00    +0.000 A 
ATOM      9  C   UNL     1     105.114 124.505 147.032  0.00  0.00    +0.000 A 
ATOM     10  C   UNL     1     106.448 124.775 147.538  0.00  0.00    +0.000 A 
ATOM     11  C   UNL     1     105.774 125.031 149.085  0.00  0.00    +0.000 A 
ATOM     12  C   UNL     1     106.961 124.980 148.196  0.00  0.00    +0.000 A 
ATOM     13  C   UNL     1     106.622 125.109 148.974  0.00  0.00    +0.000 A 
ENDROOT
BRANCH   6  15
ATOM     14  O   UNL     1     100.717 124.262 148.342  0.00  0.00    +0.000 OA
ATOM     15  C   UNL     1     103.160 124.482 148.005  0.00  0.00    +0.000 A 
ATOM     16  C   UNL     1     102.841 123.766 148.264  0.00  0.00    +0.000 A 
ATOM     17  C   UNL     1     102.664 125.125 147.858  0.00  0.00    +0.000 A 
ATOM     18  C   UNL     1     102.028 123.693 148.376  0.00  0.00    +0.000 A 
ATOM     19  C   UNL     1     101.849 125.051 147.970  0.00  0.00    +0.000 A 
ATOM     20  C   UNL     1     101.532 124.336 148.229  0.00  0.00    +0.000 A 
ENDBRANCH   6  15
BRANCH   8  21
ATOM     21  O   UNL     1     103.812 124.234 146.510  0.00  0.00    +0.000 OA
BRANCH  21  22
ATOM     22  S   UNL     1     104.142 123.948 145.809  0.00  0.00    +0.000 S 
ATOM     23  O   UNL     1     104.471 123.663 145.109  0.00  0.00    +0.000 OA
ATOM     24  O   UNL     1     104.188 123.194 146.139  0.00  0.00    +0.000 OA
ATOM     25  O   UNL     1     104.095 124.703 145.480  0.00  0.00    +0.000 OA
ENDBRANCH  21  22
ENDBRANCH   8  21
TORSDOF 3
ENDMDL
MODEL 10
REMARK VINA RESULT:      -8.0     11.273     12.659
REMARK  Name = 44259052
REMARK  3 active torsions:
REMARK  status: ('A' for Active; 'I' for Inactive)
REMARK    1  A    between atoms: S_1  and  O_3
REMARK    2  A    between atoms: O_3  and  C_14
REMARK    3  A    between atoms: C_12  and  C_16
REMARK                            x       y       z     vdW  Elec       q    Type
REMARK                         _______ _______ _______ _____ _____    ______ ____
ROOT
ATOM      1  O   UNL     1     112.609 126.499 136.442  0.00  0.00    +0.000 OA
ATOM      2  O   UNL     1     111.284 128.633 135.017  0.00  0.00    +0.000 OA
ATOM      3  O   UNL     1     110.648 127.351 135.197  0.00  0.00    +0.000 OA
ATOM      4  O   UNL     1     113.954 129.062 136.118  0.00  0.00    +0.000 OA
ATOM      5  C   UNL     1     111.955 127.555 135.738  0.00  0.00    +0.000 A 
ATOM      6  C   UNL     1     111.957 126.010 136.317  0.00  0.00    +0.000 A 
ATOM      7  C   UNL     1     112.609 127.271 136.153  0.00  0.00    +0.000 A 
ATOM      8  C   UNL     1     111.303 126.294 135.902  0.00  0.00    +0.000 A 
ATOM      9  C   UNL     1     111.302 127.067 135.612  0.00  0.00    +0.000 A 
ATOM     10  C   UNL     1     111.942 128.358 135.431  0.00  0.00    +0.000 A 
ATOM     11  C   UNL     1     113.295 127.771 136.290  0.00  0.00    +0.000 A 
ATOM     12  C   UNL     1     112.619 128.871 135.559  0.00  0.00    +0.000 A 
ATOM     13  C   UNL     1     113.300 128.576 135.991  0.00  0.00    +0.000 A 
ENDROOT
BRANCH   6  15
ATOM     14  O   UNL     1     111.959 122.920 137.476  0.00  0.00    +0.000 OA
ATOM     15  C   UNL     1     111.957 125.238 136.606  0.00  0.00    +0.000 A 
ATOM     16  C   UNL     1     112.330 124.638 136.181  0.00  0.00    +0.000 A 
ATOM     17  C   UNL     1     111.585 125.066 137.322  0.00  0.00    +0.000 A 
ATOM     18  C   UNL     1     112.331 123.866 136.470  0.00  0.00    +0.000 A 
ATOM     19  C   UNL     1     111.586 124.293 137.613  0.00  0.00    +0.000 A 
ATOM     20  C   UNL     1     111.959 123.693 137.186  0.00  0.00    +0.000 A 
ENDBRANCH   6  15
BRANCH   8  21
ATOM     21  O   UNL     1     110.650 125.806 135.776  0.00  0.00    +0.000 OA
BRANCH  21  22
ATOM     22  S   UNL     1     110.087 126.008 135.207  0.00  0.00    +0.000 S 
ATOM     23  O   UNL     1     109.525 126.209 134.638  0.00  0.00    +0.000 OA
ATOM     24  O   UNL     1     110.579 125.710 134.615  0.00  0.00    +0.000 OA
ATOM     25  O   UNL     1     109.596 126.306 135.798  0.00  0.00    +0.000 OA
ENDBRANCH  21  22
ENDBRANCH   8  21
TORSDOF 3
ENDMDL
