MODEL 1
REMARK VINA RESULT:      -7.4      0.000      0.000
REMARK  Name = 21813969
REMARK  4 active torsions:
REMARK  status: ('A' for Active; 'I' for Inactive)
REMARK    1  A    between atoms: O_2  and  C_11
REMARK    2  A    between atoms: O_3  and  C_16
REMARK    3  A    between atoms: O_4  and  C_19
REMARK    4  A    between atoms: C_5  and  C_10
REMARK                            x       y       z     vdW  Elec       q    Type
REMARK                         _______ _______ _______ _____ _____    ______ ____
ROOT
ATOM      1  O   UNL     1     112.283 127.262 135.964  0.00  0.00    +0.000 OA
ATOM      2  C   UNL     1     113.059 127.406 136.307  0.00  0.00    +0.000 C 
ATOM      3  C   UNL     1     113.486 126.760 136.677  0.00  0.00    +0.000 C 
ATOM      4  C   UNL     1     113.133 125.976 136.700  0.00  0.00    +0.000 C 
ATOM      5  C   UNL     1     112.357 125.851 136.353  0.00  0.00    +0.000 A 
ATOM      6  C   UNL     1     111.947 126.472 135.997  0.00  0.00    +0.000 A 
ATOM      7  C   UNL     1     112.023 125.097 136.378  0.00  0.00    +0.000 A 
ATOM      8  C   UNL     1     111.202 126.339 135.667  0.00  0.00    +0.000 A 
ATOM      9  C   UNL     1     111.279 124.964 136.048  0.00  0.00    +0.000 A 
ATOM     10  C   UNL     1     110.869 125.585 135.693  0.00  0.00    +0.000 A 
ENDROOT
BRANCH   2  11
ATOM     11  C   UNL     1     113.390 128.162 136.280  0.00  0.00    +0.000 A 
ATOM     12  C   UNL     1     113.228 128.705 136.879  0.00  0.00    +0.000 A 
ATOM     13  C   UNL     1     113.882 128.374 135.653  0.00  0.00    +0.000 A 
ATOM     14  C   UNL     1     113.559 129.460 136.852  0.00  0.00    +0.000 A 
ATOM     15  C   UNL     1     114.213 129.128 135.625  0.00  0.00    +0.000 A 
ATOM     16  C   UNL     1     114.052 129.672 136.224  0.00  0.00    +0.000 A 
BRANCH  16  17
ATOM     17  O   UNL     1     114.383 130.427 136.197  0.00  0.00    +0.000 OA
ATOM     18  C   UNL     1     115.051 130.568 135.734  0.00  0.00    +0.000 C 
ENDBRANCH  16  17
ENDBRANCH   2  11
BRANCH   7  19
ATOM     19  O   UNL     1     112.433 124.476 136.734  0.00  0.00    +0.000 OA
ATOM     20  C   UNL     1     112.097 123.723 136.765  0.00  0.00    +0.000 C 
ENDBRANCH   7  19
BRANCH  10  21
ATOM     21  O   UNL     1     110.124 125.452 135.362  0.00  0.00    +0.000 OA
ATOM     22  C   UNL     1     109.909 125.834 134.663  0.00  0.00    +0.000 C 
ENDBRANCH  10  21
TORSDOF 4
ENDMDL
MODEL 2
REMARK VINA RESULT:      -7.2      1.096      2.213
REMARK  Name = 21813969
REMARK  4 active torsions:
REMARK  status: ('A' for Active; 'I' for Inactive)
REMARK    1  A    between atoms: O_2  and  C_11
REMARK    2  A    between atoms: O_3  and  C_16
REMARK    3  A    between atoms: O_4  and  C_19
REMARK    4  A    between atoms: C_5  and  C_10
REMARK                            x       y       z     vdW  Elec       q    Type
REMARK                         _______ _______ _______ _____ _____    ______ ____
ROOT
ATOM      1  O   UNL     1     113.971 127.441 136.238  0.00  0.00    +0.000 OA
ATOM      2  C   UNL     1     113.492 128.129 136.044  0.00  0.00    +0.000 C 
ATOM      3  C   UNL     1     112.638 128.051 135.996  0.00  0.00    +0.000 C 
ATOM      4  C   UNL     1     112.272 127.287 136.142  0.00  0.00    +0.000 C 
ATOM      5  C   UNL     1     112.766 126.611 136.334  0.00  0.00    +0.000 A 
ATOM      6  C   UNL     1     113.587 126.686 136.381  0.00  0.00    +0.000 A 
ATOM      7  C   UNL     1     112.411 125.880 136.474  0.00  0.00    +0.000 A 
ATOM      8  C   UNL     1     114.051 126.029 136.566  0.00  0.00    +0.000 A 
ATOM      9  C   UNL     1     112.874 125.224 136.659  0.00  0.00    +0.000 A 
ATOM     10  C   UNL     1     113.694 125.298 136.706  0.00  0.00    +0.000 A 
ENDROOT
BRANCH   2  11
ATOM     11  C   UNL     1     113.852 128.859 135.905  0.00  0.00    +0.000 A 
ATOM     12  C   UNL     1     114.183 129.021 135.167  0.00  0.00    +0.000 A 
ATOM     13  C   UNL     1     113.879 129.425 136.504  0.00  0.00    +0.000 A 
ATOM     14  C   UNL     1     114.543 129.751 135.029  0.00  0.00    +0.000 A 
ATOM     15  C   UNL     1     114.239 130.154 136.366  0.00  0.00    +0.000 A 
ATOM     16  C   UNL     1     114.571 130.317 135.628  0.00  0.00    +0.000 A 
BRANCH  16  17
ATOM     17  O   UNL     1     114.931 131.047 135.489  0.00  0.00    +0.000 OA
ATOM     18  C   UNL     1     115.605 131.090 135.016  0.00  0.00    +0.000 C 
ENDBRANCH  16  17
ENDBRANCH   2  11
BRANCH   7  19
ATOM     19  O   UNL     1     111.590 125.806 136.428  0.00  0.00    +0.000 OA
ATOM     20  C   UNL     1     111.244 125.057 136.401  0.00  0.00    +0.000 C 
ENDBRANCH   7  19
BRANCH  10  21
ATOM     21  O   UNL     1     114.159 124.641 136.891  0.00  0.00    +0.000 OA
ATOM     22  C   UNL     1     114.719 124.691 137.495  0.00  0.00    +0.000 C 
ENDBRANCH  10  21
TORSDOF 4
ENDMDL
MODEL 3
REMARK VINA RESULT:      -7.2      2.147      3.151
REMARK  Name = 21813969
REMARK  4 active torsions:
REMARK  status: ('A' for Active; 'I' for Inactive)
REMARK    1  A    between atoms: O_2  and  C_11
REMARK    2  A    between atoms: O_3  and  C_16
REMARK    3  A    between atoms: O_4  and  C_19
REMARK    4  A    between atoms: C_5  and  C_10
REMARK                            x       y       z     vdW  Elec       q    Type
REMARK                         _______ _______ _______ _____ _____    ______ ____
ROOT
ATOM      1  O   UNL     1     112.261 126.204 136.072  0.00  0.00    +0.000 OA
ATOM      2  C   UNL     1     111.432 126.320 135.875  0.00  0.00    +0.000 C 
ATOM      3  C   UNL     1     110.876 125.674 135.983  0.00  0.00    +0.000 C 
ATOM      4  C   UNL     1     111.155 124.920 136.287  0.00  0.00    +0.000 C 
ATOM      5  C   UNL     1     111.987 124.823 136.478  0.00  0.00    +0.000 A 
ATOM      6  C   UNL     1     112.521 125.443 136.374  0.00  0.00    +0.000 A 
ATOM      7  C   UNL     1     112.250 124.097 136.769  0.00  0.00    +0.000 A 
ATOM      8  C   UNL     1     113.318 125.337 136.562  0.00  0.00    +0.000 A 
ATOM      9  C   UNL     1     113.046 123.991 136.956  0.00  0.00    +0.000 A 
ATOM     10  C   UNL     1     113.580 124.611 136.853  0.00  0.00    +0.000 A 
ENDROOT
BRANCH   2  11
ATOM     11  C   UNL     1     111.173 127.048 135.584  0.00  0.00    +0.000 A 
ATOM     12  C   UNL     1     110.709 127.078 134.903  0.00  0.00    +0.000 A 
ATOM     13  C   UNL     1     111.378 127.745 135.976  0.00  0.00    +0.000 A 
ATOM     14  C   UNL     1     110.450 127.806 134.613  0.00  0.00    +0.000 A 
ATOM     15  C   UNL     1     111.120 128.471 135.686  0.00  0.00    +0.000 A 
ATOM     16  C   UNL     1     110.656 128.502 135.004  0.00  0.00    +0.000 A 
BRANCH  16  17
ATOM     17  O   UNL     1     110.397 129.230 134.713  0.00  0.00    +0.000 OA
ATOM     18  C   UNL     1     109.703 129.567 135.006  0.00  0.00    +0.000 C 
ENDBRANCH  16  17
ENDBRANCH   2  11
BRANCH   7  19
ATOM     19  O   UNL     1     111.716 123.476 136.873  0.00  0.00    +0.000 OA
ATOM     20  C   UNL     1     111.960 122.778 137.237  0.00  0.00    +0.000 C 
ENDBRANCH   7  19
BRANCH  10  21
ATOM     21  O   UNL     1     114.377 124.505 137.040  0.00  0.00    +0.000 OA
ATOM     22  C   UNL     1     114.734 124.985 137.608  0.00  0.00    +0.000 C 
ENDBRANCH  10  21
TORSDOF 4
ENDMDL
MODEL 4
REMARK VINA RESULT:      -7.2     12.682     14.261
REMARK  Name = 21813969
REMARK  4 active torsions:
REMARK  status: ('A' for Active; 'I' for Inactive)
REMARK    1  A    between atoms: O_2  and  C_11
REMARK    2  A    between atoms: O_3  and  C_16
REMARK    3  A    between atoms: O_4  and  C_19
REMARK    4  A    between atoms: C_5  and  C_10
REMARK                            x       y       z     vdW  Elec       q    Type
REMARK                         _______ _______ _______ _____ _____    ______ ____
ROOT
ATOM      1  O   UNL     1     104.902 124.261 147.321  0.00  0.00    +0.000 OA
ATOM      2  C   UNL     1     104.526 124.337 146.550  0.00  0.00    +0.000 C 
ATOM      3  C   UNL     1     104.889 124.830 145.948  0.00  0.00    +0.000 C 
ATOM      4  C   UNL     1     105.623 125.243 146.123  0.00  0.00    +0.000 C 
ATOM      5  C   UNL     1     105.984 125.155 146.897  0.00  0.00    +0.000 A 
ATOM      6  C   UNL     1     105.636 124.681 147.476  0.00  0.00    +0.000 A 
ATOM      7  C   UNL     1     106.688 125.553 147.059  0.00  0.00    +0.000 A 
ATOM      8  C   UNL     1     105.992 124.605 148.217  0.00  0.00    +0.000 A 
ATOM      9  C   UNL     1     107.044 125.477 147.799  0.00  0.00    +0.000 A 
ATOM     10  C   UNL     1     106.696 125.003 148.377  0.00  0.00    +0.000 A 
ENDROOT
BRANCH   2  11
ATOM     11  C   UNL     1     103.822 123.937 146.392  0.00  0.00    +0.000 A 
ATOM     12  C   UNL     1     103.830 123.252 145.932  0.00  0.00    +0.000 A 
ATOM     13  C   UNL     1     103.109 124.223 146.695  0.00  0.00    +0.000 A 
ATOM     14  C   UNL     1     103.126 122.853 145.775  0.00  0.00    +0.000 A 
ATOM     15  C   UNL     1     102.405 123.824 146.537  0.00  0.00    +0.000 A 
ATOM     16  C   UNL     1     102.413 123.139 146.077  0.00  0.00    +0.000 A 
BRANCH  16  17
ATOM     17  O   UNL     1     101.709 122.739 145.919  0.00  0.00    +0.000 OA
ATOM     18  C   UNL     1     101.197 123.021 145.336  0.00  0.00    +0.000 C 
ENDBRANCH  16  17
ENDBRANCH   2  11
BRANCH   7  19
ATOM     19  O   UNL     1     107.036 126.027 146.481  0.00  0.00    +0.000 OA
ATOM     20  C   UNL     1     107.443 126.712 146.697  0.00  0.00    +0.000 C 
ENDBRANCH   7  19
BRANCH  10  21
ATOM     21  O   UNL     1     107.053 124.927 149.118  0.00  0.00    +0.000 OA
ATOM     22  C   UNL     1     107.524 124.270 149.283  0.00  0.00    +0.000 C 
ENDBRANCH  10  21
TORSDOF 4
ENDMDL
MODEL 5
REMARK VINA RESULT:      -7.2     12.479     14.019
REMARK  Name = 21813969
REMARK  4 active torsions:
REMARK  status: ('A' for Active; 'I' for Inactive)
REMARK    1  A    between atoms: O_2  and  C_11
REMARK    2  A    between atoms: O_3  and  C_16
REMARK    3  A    between atoms: O_4  and  C_19
REMARK    4  A    between atoms: C_5  and  C_10
REMARK                            x       y       z     vdW  Elec       q    Type
REMARK                         _______ _______ _______ _____ _____    ______ ____
ROOT
ATOM      1  O   UNL     1     104.478 124.537 145.951  0.00  0.00    +0.000 OA
ATOM      2  C   UNL     1     104.040 124.148 146.581  0.00  0.00    +0.000 C 
ATOM      3  C   UNL     1     104.377 124.107 147.370  0.00  0.00    +0.000 C 
ATOM      4  C   UNL     1     105.149 124.455 147.519  0.00  0.00    +0.000 C 
ATOM      5  C   UNL     1     105.572 124.839 146.878  0.00  0.00    +0.000 A 
ATOM      6  C   UNL     1     105.248 124.878 146.120  0.00  0.00    +0.000 A 
ATOM      7  C   UNL     1     106.313 125.171 147.027  0.00  0.00    +0.000 A 
ATOM      8  C   UNL     1     105.665 125.250 145.512  0.00  0.00    +0.000 A 
ATOM      9  C   UNL     1     106.729 125.542 146.420  0.00  0.00    +0.000 A 
ATOM     10  C   UNL     1     106.405 125.582 145.662  0.00  0.00    +0.000 A 
ENDROOT
BRANCH   2  11
ATOM     11  C   UNL     1     103.300 123.817 146.427  0.00  0.00    +0.000 A 
ATOM     12  C   UNL     1     102.614 124.231 146.624  0.00  0.00    +0.000 A 
ATOM     13  C   UNL     1     103.246 123.072 146.077  0.00  0.00    +0.000 A 
ATOM     14  C   UNL     1     101.874 123.900 146.471  0.00  0.00    +0.000 A 
ATOM     15  C   UNL     1     102.507 122.741 145.924  0.00  0.00    +0.000 A 
ATOM     16  C   UNL     1     101.821 123.155 146.120  0.00  0.00    +0.000 A 
BRANCH  16  17
ATOM     17  O   UNL     1     101.080 122.823 145.967  0.00  0.00    +0.000 OA
ATOM     18  C   UNL     1     100.713 122.954 145.240  0.00  0.00    +0.000 C 
ENDBRANCH  16  17
ENDBRANCH   2  11
BRANCH   7  19
ATOM     19  O   UNL     1     106.637 125.132 147.785  0.00  0.00    +0.000 OA
ATOM     20  C   UNL     1     107.456 125.118 147.883  0.00  0.00    +0.000 C 
ENDBRANCH   7  19
BRANCH  10  21
ATOM     21  O   UNL     1     106.821 125.953 145.053  0.00  0.00    +0.000 OA
ATOM     22  C   UNL     1     106.509 126.625 144.691  0.00  0.00    +0.000 C 
ENDBRANCH  10  21
TORSDOF 4
ENDMDL
MODEL 6
REMARK VINA RESULT:      -7.1     12.837     13.895
REMARK  Name = 21813969
REMARK  4 active torsions:
REMARK  status: ('A' for Active; 'I' for Inactive)
REMARK    1  A    between atoms: O_2  and  C_11
REMARK    2  A    between atoms: O_3  and  C_16
REMARK    3  A    between atoms: O_4  and  C_19
REMARK    4  A    between atoms: C_5  and  C_10
REMARK                            x       y       z     vdW  Elec       q    Type
REMARK                         _______ _______ _______ _____ _____    ______ ____
ROOT
ATOM      1  O   UNL     1     104.907 124.033 146.714  0.00  0.00    +0.000 OA
ATOM      2  C   UNL     1     105.046 124.514 147.413  0.00  0.00    +0.000 C 
ATOM      3  C   UNL     1     104.377 124.816 147.860  0.00  0.00    +0.000 C 
ATOM      4  C   UNL     1     103.578 124.633 147.603  0.00  0.00    +0.000 C 
ATOM      5  C   UNL     1     103.458 124.151 146.902  0.00  0.00    +0.000 A 
ATOM      6  C   UNL     1     104.100 123.861 146.473  0.00  0.00    +0.000 A 
ATOM      7  C   UNL     1     102.689 123.978 146.659  0.00  0.00    +0.000 A 
ATOM      8  C   UNL     1     103.973 123.399 145.800  0.00  0.00    +0.000 A 
ATOM      9  C   UNL     1     102.561 123.517 145.988  0.00  0.00    +0.000 A 
ATOM     10  C   UNL     1     103.203 123.227 145.559  0.00  0.00    +0.000 A 
ENDROOT
BRANCH   2  11
ATOM     11  C   UNL     1     105.817 124.685 147.653  0.00  0.00    +0.000 A 
ATOM     12  C   UNL     1     106.111 124.367 148.355  0.00  0.00    +0.000 A 
ATOM     13  C   UNL     1     106.294 125.172 147.189  0.00  0.00    +0.000 A 
ATOM     14  C   UNL     1     106.882 124.538 148.594  0.00  0.00    +0.000 A 
ATOM     15  C   UNL     1     107.065 125.343 147.427  0.00  0.00    +0.000 A 
ATOM     16  C   UNL     1     107.359 125.026 148.130  0.00  0.00    +0.000 A 
BRANCH  16  17
ATOM     17  O   UNL     1     108.130 125.196 148.369  0.00  0.00    +0.000 OA
ATOM     18  C   UNL     1     108.769 124.884 147.951  0.00  0.00    +0.000 C 
ENDBRANCH  16  17
ENDBRANCH   2  11
BRANCH   7  19
ATOM     19  O   UNL     1     102.047 124.268 147.089  0.00  0.00    +0.000 OA
ATOM     20  C   UNL     1     101.278 124.062 146.872  0.00  0.00    +0.000 C 
ENDBRANCH   7  19
BRANCH  10  21
ATOM     21  O   UNL     1     103.076 122.765 144.887  0.00  0.00    +0.000 OA
ATOM     22  C   UNL     1     103.644 122.741 144.290  0.00  0.00    +0.000 C 
ENDBRANCH  10  21
TORSDOF 4
ENDMDL
MODEL 7
REMARK VINA RESULT:      -7.1     13.376     14.392
REMARK  Name = 21813969
REMARK  4 active torsions:
REMARK  status: ('A' for Active; 'I' for Inactive)
REMARK    1  A    between atoms: O_2  and  C_11
REMARK    2  A    between atoms: O_3  and  C_16
REMARK    3  A    between atoms: O_4  and  C_19
REMARK    4  A    between atoms: C_5  and  C_10
REMARK                            x       y       z     vdW  Elec       q    Type
REMARK                         _______ _______ _______ _____ _____    ______ ____
ROOT
ATOM      1  O   UNL     1     103.960 124.827 147.464  0.00  0.00    +0.000 OA
ATOM      2  C   UNL     1     104.590 124.540 146.954  0.00  0.00    +0.000 C 
ATOM      3  C   UNL     1     104.398 124.051 146.274  0.00  0.00    +0.000 C 
ATOM      4  C   UNL     1     103.577 123.853 146.113  0.00  0.00    +0.000 C 
ATOM      5  C   UNL     1     102.960 124.148 146.634  0.00  0.00    +0.000 A 
ATOM      6  C   UNL     1     103.145 124.618 147.286  0.00  0.00    +0.000 A 
ATOM      7  C   UNL     1     102.174 123.956 146.474  0.00  0.00    +0.000 A 
ATOM      8  C   UNL     1     102.543 124.896 147.779  0.00  0.00    +0.000 A 
ATOM      9  C   UNL     1     101.573 124.232 146.966  0.00  0.00    +0.000 A 
ATOM     10  C   UNL     1     101.758 124.703 147.618  0.00  0.00    +0.000 A 
ENDROOT
BRANCH   2  11
ATOM     11  C   UNL     1     105.376 124.735 147.116  0.00  0.00    +0.000 A 
ATOM     12  C   UNL     1     105.704 124.546 147.849  0.00  0.00    +0.000 A 
ATOM     13  C   UNL     1     105.831 125.120 146.546  0.00  0.00    +0.000 A 
ATOM     14  C   UNL     1     106.489 124.741 148.011  0.00  0.00    +0.000 A 
ATOM     15  C   UNL     1     106.616 125.315 146.708  0.00  0.00    +0.000 A 
ATOM     16  C   UNL     1     106.945 125.126 147.441  0.00  0.00    +0.000 A 
BRANCH  16  17
ATOM     17  O   UNL     1     107.730 125.321 147.604  0.00  0.00    +0.000 OA
ATOM     18  C   UNL     1     108.148 124.901 148.178  0.00  0.00    +0.000 C 
ENDBRANCH  16  17
ENDBRANCH   2  11
BRANCH   7  19
ATOM     19  O   UNL     1     101.989 123.485 145.822  0.00  0.00    +0.000 OA
ATOM     20  C   UNL     1     101.200 123.334 145.633  0.00  0.00    +0.000 C 
ENDBRANCH   7  19
BRANCH  10  21
ATOM     21  O   UNL     1     101.156 124.980 148.111  0.00  0.00    +0.000 OA
ATOM     22  C   UNL     1     101.102 124.708 148.888  0.00  0.00    +0.000 C 
ENDBRANCH  10  21
TORSDOF 4
ENDMDL
MODEL 8
REMARK VINA RESULT:      -7.0      1.382      4.692
REMARK  Name = 21813969
REMARK  4 active torsions:
REMARK  status: ('A' for Active; 'I' for Inactive)
REMARK    1  A    between atoms: O_2  and  C_11
REMARK    2  A    between atoms: O_3  and  C_16
REMARK    3  A    between atoms: O_4  and  C_19
REMARK    4  A    between atoms: C_5  and  C_10
REMARK                            x       y       z     vdW  Elec       q    Type
REMARK                         _______ _______ _______ _____ _____    ______ ____
ROOT
ATOM      1  O   UNL     1     113.698 127.547 136.009  0.00  0.00    +0.000 OA
ATOM      2  C   UNL     1     113.356 127.131 136.680  0.00  0.00    +0.000 C 
ATOM      3  C   UNL     1     113.072 127.579 137.356  0.00  0.00    +0.000 C 
ATOM      4  C   UNL     1     113.133 128.437 137.352  0.00  0.00    +0.000 C 
ATOM      5  C   UNL     1     113.477 128.834 136.673  0.00  0.00    +0.000 A 
ATOM      6  C   UNL     1     113.750 128.404 136.024  0.00  0.00    +0.000 A 
ATOM      7  C   UNL     1     113.533 129.658 136.675  0.00  0.00    +0.000 A 
ATOM      8  C   UNL     1     114.079 128.798 135.377  0.00  0.00    +0.000 A 
ATOM      9  C   UNL     1     113.862 130.051 136.029  0.00  0.00    +0.000 A 
ATOM     10  C   UNL     1     114.134 129.621 135.380  0.00  0.00    +0.000 A 
ENDROOT
BRANCH   2  11
ATOM     11  C   UNL     1     113.302 126.308 136.674  0.00  0.00    +0.000 A 
ATOM     12  C   UNL     1     112.588 125.943 136.479  0.00  0.00    +0.000 A 
ATOM     13  C   UNL     1     113.962 125.850 136.864  0.00  0.00    +0.000 A 
ATOM     14  C   UNL     1     112.535 125.120 136.473  0.00  0.00    +0.000 A 
ATOM     15  C   UNL     1     113.908 125.028 136.858  0.00  0.00    +0.000 A 
ATOM     16  C   UNL     1     113.195 124.662 136.663  0.00  0.00    +0.000 A 
BRANCH  16  17
ATOM     17  O   UNL     1     113.141 123.839 136.657  0.00  0.00    +0.000 OA
ATOM     18  C   UNL     1     112.423 123.472 136.834  0.00  0.00    +0.000 C 
ENDBRANCH  16  17
ENDBRANCH   2  11
BRANCH   7  19
ATOM     19  O   UNL     1     113.260 130.088 137.324  0.00  0.00    +0.000 OA
ATOM     20  C   UNL     1     113.220 130.911 137.287  0.00  0.00    +0.000 C 
ENDBRANCH   7  19
BRANCH  10  21
ATOM     21  O   UNL     1     114.463 130.014 134.733  0.00  0.00    +0.000 OA
ATOM     22  C   UNL     1     115.279 129.997 134.612  0.00  0.00    +0.000 C 
ENDBRANCH  10  21
TORSDOF 4
ENDMDL
MODEL 9
REMARK VINA RESULT:      -6.9      3.016      4.751
REMARK  Name = 21813969
REMARK  4 active torsions:
REMARK  status: ('A' for Active; 'I' for Inactive)
REMARK    1  A    between atoms: O_2  and  C_11
REMARK    2  A    between atoms: O_3  and  C_16
REMARK    3  A    between atoms: O_4  and  C_19
REMARK    4  A    between atoms: C_5  and  C_10
REMARK                            x       y       z     vdW  Elec       q    Type
REMARK                         _______ _______ _______ _____ _____    ______ ____
ROOT
ATOM      1  O   UNL     1     111.857 126.232 138.789  0.00  0.00    +0.000 OA
ATOM      2  C   UNL     1     112.309 126.070 138.074  0.00  0.00    +0.000 C 
ATOM      3  C   UNL     1     113.163 126.153 138.085  0.00  0.00    +0.000 C 
ATOM      4  C   UNL     1     113.557 126.397 138.809  0.00  0.00    +0.000 C 
ATOM      5  C   UNL     1     113.090 126.554 139.513  0.00  0.00    +0.000 A 
ATOM      6  C   UNL     1     112.269 126.474 139.503  0.00  0.00    +0.000 A 
ATOM      7  C   UNL     1     113.473 126.788 140.205  0.00  0.00    +0.000 A 
ATOM      8  C   UNL     1     111.831 126.628 140.186  0.00  0.00    +0.000 A 
ATOM      9  C   UNL     1     113.036 126.941 140.887  0.00  0.00    +0.000 A 
ATOM     10  C   UNL     1     112.215 126.861 140.877  0.00  0.00    +0.000 A 
ENDROOT
BRANCH   2  11
ATOM     11  C   UNL     1     111.922 125.837 137.384  0.00  0.00    +0.000 A 
ATOM     12  C   UNL     1     111.769 126.389 136.790  0.00  0.00    +0.000 A 
ATOM     13  C   UNL     1     111.688 125.051 137.288  0.00  0.00    +0.000 A 
ATOM     14  C   UNL     1     111.382 126.154 136.100  0.00  0.00    +0.000 A 
ATOM     15  C   UNL     1     111.301 124.818 136.598  0.00  0.00    +0.000 A 
ATOM     16  C   UNL     1     111.149 125.369 136.004  0.00  0.00    +0.000 A 
BRANCH  16  17
ATOM     17  O   UNL     1     110.762 125.135 135.313  0.00  0.00    +0.000 OA
ATOM     18  C   UNL     1     110.142 125.591 135.014  0.00  0.00    +0.000 C 
ENDBRANCH  16  17
ENDBRANCH   2  11
BRANCH   7  19
ATOM     19  O   UNL     1     114.294 126.868 140.215  0.00  0.00    +0.000 OA
ATOM     20  C   UNL     1     114.675 127.132 140.897  0.00  0.00    +0.000 C 
ENDBRANCH   7  19
BRANCH  10  21
ATOM     21  O   UNL     1     111.777 127.015 141.560  0.00  0.00    +0.000 OA
ATOM     22  C   UNL     1     111.209 127.613 141.559  0.00  0.00    +0.000 C 
ENDBRANCH  10  21
TORSDOF 4
ENDMDL
MODEL 10
REMARK VINA RESULT:      -6.9     11.336     12.188
REMARK  Name = 21813969
REMARK  4 active torsions:
REMARK  status: ('A' for Active; 'I' for Inactive)
REMARK    1  A    between atoms: O_2  and  C_11
REMARK    2  A    between atoms: O_3  and  C_16
REMARK    3  A    between atoms: O_4  and  C_19
REMARK    4  A    between atoms: C_5  and  C_10
REMARK                            x       y       z     vdW  Elec       q    Type
REMARK                         _______ _______ _______ _____ _____    ______ ____
ROOT
ATOM      1  O   UNL     1     103.088 130.627 142.453  0.00  0.00    +0.000 OA
ATOM      2  C   UNL     1     102.606 130.846 141.775  0.00  0.00    +0.000 C 
ATOM      3  C   UNL     1     102.621 130.358 141.068  0.00  0.00    +0.000 C 
ATOM      4  C   UNL     1     103.118 129.657 141.048  0.00  0.00    +0.000 C 
ATOM      5  C   UNL     1     103.593 129.454 141.734  0.00  0.00    +0.000 A 
ATOM      6  C   UNL     1     103.579 129.922 142.413  0.00  0.00    +0.000 A 
ATOM      7  C   UNL     1     104.068 128.780 141.708  0.00  0.00    +0.000 A 
ATOM      8  C   UNL     1     104.039 129.716 143.066  0.00  0.00    +0.000 A 
ATOM      9  C   UNL     1     104.528 128.574 142.361  0.00  0.00    +0.000 A 
ATOM     10  C   UNL     1     104.514 129.042 143.040  0.00  0.00    +0.000 A 
ENDROOT
BRANCH   2  11
ATOM     11  C   UNL     1     102.132 131.521 141.805  0.00  0.00    +0.000 A 
ATOM     12  C   UNL     1     102.434 132.248 141.557  0.00  0.00    +0.000 A 
ATOM     13  C   UNL     1     101.357 131.468 142.083  0.00  0.00    +0.000 A 
ATOM     14  C   UNL     1     101.960 132.922 141.587  0.00  0.00    +0.000 A 
ATOM     15  C   UNL     1     100.884 132.142 142.112  0.00  0.00    +0.000 A 
ATOM     16  C   UNL     1     101.184 132.869 141.865  0.00  0.00    +0.000 A 
BRANCH  16  17
ATOM     17  O   UNL     1     100.710 133.545 141.895  0.00  0.00    +0.000 OA
ATOM     18  C   UNL     1     101.019 134.275 141.667  0.00  0.00    +0.000 C 
ENDBRANCH  16  17
ENDBRANCH   2  11
BRANCH   7  19
ATOM     19  O   UNL     1     104.083 128.311 141.029  0.00  0.00    +0.000 OA
ATOM     20  C   UNL     1     104.467 127.581 141.039  0.00  0.00    +0.000 C 
ENDBRANCH   7  19
BRANCH  10  21
ATOM     21  O   UNL     1     104.975 128.836 143.693  0.00  0.00    +0.000 OA
ATOM     22  C   UNL     1     105.579 129.337 143.945  0.00  0.00    +0.000 C 
ENDBRANCH  10  21
TORSDOF 4
ENDMDL
