MODEL 1
REMARK VINA RESULT:      -8.5      0.000      0.000
REMARK  Name = 369599
REMARK  2 active torsions:
REMARK  status: ('A' for Active; 'I' for Inactive)
REMARK    1  A    between atoms: O_2  and  C_9
REMARK    2  A    between atoms: C_11  and  C_14
REMARK                            x       y       z     vdW  Elec       q    Type
REMARK                         _______ _______ _______ _____ _____    ______ ____
ROOT
ATOM      1  O   UNL     1     105.043 124.350 147.478  0.00  0.00    +0.000 OA
ATOM      2  O   UNL     1     107.421 125.500 146.294  0.00  0.00    +0.000 OA
ATOM      3  O   UNL     1     106.239 125.345 145.481  0.00  0.00    +0.000 OA
ATOM      4  C   UNL     1     106.248 124.932 146.881  0.00  0.00    +0.000 A 
ATOM      5  C   UNL     1     105.861 124.608 147.534  0.00  0.00    +0.000 A 
ATOM      6  C   UNL     1     107.432 125.096 147.665  0.00  0.00    +0.000 A 
ATOM      7  C   UNL     1     107.034 125.176 146.946  0.00  0.00    +0.000 A 
ATOM      8  C   UNL     1     107.045 124.771 148.318  0.00  0.00    +0.000 A 
ATOM      9  C   UNL     1     106.260 124.528 148.251  0.00  0.00    +0.000 A 
ATOM     10  C   UNL     1     104.623 124.430 146.733  0.00  0.00    +0.000 A 
ATOM     11  C   UNL     1     105.844 125.020 146.128  0.00  0.00    +0.000 A 
ATOM     12  C   UNL     1     105.026 124.768 146.054  0.00  0.00    +0.000 A 
ATOM     13  C   UNL     1     108.217 125.340 147.730  0.00  0.00    +0.000 C 
ENDROOT
BRANCH  10  14
ATOM     14  C   UNL     1     103.838 124.186 146.671  0.00  0.00    +0.000 A 
ATOM     15  C   UNL     1     103.652 123.500 146.251  0.00  0.00    +0.000 A 
ATOM     16  C   UNL     1     103.239 124.626 147.027  0.00  0.00    +0.000 A 
ATOM     17  C   UNL     1     102.867 123.255 146.189  0.00  0.00    +0.000 A 
ATOM     18  C   UNL     1     102.453 124.381 146.964  0.00  0.00    +0.000 A 
ATOM     19  C   UNL     1     102.267 123.695 146.545  0.00  0.00    +0.000 A 
ENDBRANCH  10  14
BRANCH   8  20
ATOM     20  O   UNL     1     107.443 124.692 149.035  0.00  0.00    +0.000 OA
ATOM     21  C   UNL     1     107.154 124.178 149.612  0.00  0.00    +0.000 C 
ENDBRANCH   8  20
TORSDOF 2
ENDMDL
MODEL 2
REMARK VINA RESULT:      -8.4      7.345      8.332
REMARK  Name = 369599
REMARK  2 active torsions:
REMARK  status: ('A' for Active; 'I' for Inactive)
REMARK    1  A    between atoms: O_2  and  C_9
REMARK    2  A    between atoms: C_11  and  C_14
REMARK                            x       y       z     vdW  Elec       q    Type
REMARK                         _______ _______ _______ _____ _____    ______ ____
ROOT
ATOM      1  O   UNL     1     102.932 130.521 142.246  0.00  0.00    +0.000 OA
ATOM      2  O   UNL     1     103.806 128.348 140.545  0.00  0.00    +0.000 OA
ATOM      3  O   UNL     1     102.831 129.282 140.040  0.00  0.00    +0.000 OA
ATOM      4  C   UNL     1     103.377 129.420 141.387  0.00  0.00    +0.000 A 
ATOM      5  C   UNL     1     103.412 129.821 142.107  0.00  0.00    +0.000 A 
ATOM      6  C   UNL     1     104.342 128.480 141.864  0.00  0.00    +0.000 A 
ATOM      7  C   UNL     1     103.842 128.749 141.265  0.00  0.00    +0.000 A 
ATOM      8  C   UNL     1     104.378 128.882 142.584  0.00  0.00    +0.000 A 
ATOM      9  C   UNL     1     103.912 129.552 142.705  0.00  0.00    +0.000 A 
ATOM     10  C   UNL     1     102.410 130.806 141.626  0.00  0.00    +0.000 A 
ATOM     11  C   UNL     1     102.859 129.691 140.756  0.00  0.00    +0.000 A 
ATOM     12  C   UNL     1     102.373 130.388 140.877  0.00  0.00    +0.000 A 
ATOM     13  C   UNL     1     104.807 127.810 141.741  0.00  0.00    +0.000 C 
ENDROOT
BRANCH  10  14
ATOM     14  C   UNL     1     101.946 131.477 141.751  0.00  0.00    +0.000 A 
ATOM     15  C   UNL     1     101.174 131.398 142.032  0.00  0.00    +0.000 A 
ATOM     16  C   UNL     1     102.253 132.226 141.594  0.00  0.00    +0.000 A 
ATOM     17  C   UNL     1     100.710 132.069 142.156  0.00  0.00    +0.000 A 
ATOM     18  C   UNL     1     101.789 132.897 141.719  0.00  0.00    +0.000 A 
ATOM     19  C   UNL     1     101.017 132.818 142.000  0.00  0.00    +0.000 A 
ENDBRANCH  10  14
BRANCH   8  20
ATOM     20  O   UNL     1     104.878 128.613 143.181  0.00  0.00    +0.000 OA
ATOM     21  C   UNL     1     104.925 129.023 143.895  0.00  0.00    +0.000 C 
ENDBRANCH   8  20
TORSDOF 2
ENDMDL
MODEL 3
REMARK VINA RESULT:      -8.4      1.179      4.208
REMARK  Name = 369599
REMARK  2 active torsions:
REMARK  status: ('A' for Active; 'I' for Inactive)
REMARK    1  A    between atoms: O_2  and  C_9
REMARK    2  A    between atoms: C_11  and  C_14
REMARK                            x       y       z     vdW  Elec       q    Type
REMARK                         _______ _______ _______ _____ _____    ______ ____
ROOT
ATOM      1  O   UNL     1     105.450 124.311 147.260  0.00  0.00    +0.000 OA
ATOM      2  O   UNL     1     102.722 125.016 147.921  0.00  0.00    +0.000 OA
ATOM      3  O   UNL     1     103.789 125.476 148.775  0.00  0.00    +0.000 OA
ATOM      4  C   UNL     1     104.068 124.666 147.592  0.00  0.00    +0.000 A 
ATOM      5  C   UNL     1     104.607 124.285 147.097  0.00  0.00    +0.000 A 
ATOM      6  C   UNL     1     102.992 124.223 146.763  0.00  0.00    +0.000 A 
ATOM      7  C   UNL     1     103.260 124.635 147.426  0.00  0.00    +0.000 A 
ATOM      8  C   UNL     1     103.531 123.842 146.267  0.00  0.00    +0.000 A 
ATOM      9  C   UNL     1     104.338 123.874 146.435  0.00  0.00    +0.000 A 
ATOM     10  C   UNL     1     105.736 124.738 147.949  0.00  0.00    +0.000 A 
ATOM     11  C   UNL     1     104.335 125.099 148.285  0.00  0.00    +0.000 A 
ATOM     12  C   UNL     1     105.175 125.135 148.464  0.00  0.00    +0.000 A 
ATOM     13  C   UNL     1     102.185 124.192 146.596  0.00  0.00    +0.000 C 
ENDROOT
BRANCH  10  14
ATOM     14  C   UNL     1     106.543 124.768 148.113  0.00  0.00    +0.000 A 
ATOM     15  C   UNL     1     107.055 125.162 147.600  0.00  0.00    +0.000 A 
ATOM     16  C   UNL     1     106.840 124.403 148.792  0.00  0.00    +0.000 A 
ATOM     17  C   UNL     1     107.863 125.192 147.765  0.00  0.00    +0.000 A 
ATOM     18  C   UNL     1     107.648 124.434 148.956  0.00  0.00    +0.000 A 
ATOM     19  C   UNL     1     108.160 124.828 148.442  0.00  0.00    +0.000 A 
ENDBRANCH  10  14
BRANCH   8  20
ATOM     20  O   UNL     1     103.262 123.430 145.606  0.00  0.00    +0.000 OA
ATOM     21  C   UNL     1     103.716 122.819 145.288  0.00  0.00    +0.000 C 
ENDBRANCH   8  20
TORSDOF 2
ENDMDL
MODEL 4
REMARK VINA RESULT:      -8.2     12.621     13.562
REMARK  Name = 369599
REMARK  2 active torsions:
REMARK  status: ('A' for Active; 'I' for Inactive)
REMARK    1  A    between atoms: O_2  and  C_9
REMARK    2  A    between atoms: C_11  and  C_14
REMARK                            x       y       z     vdW  Elec       q    Type
REMARK                         _______ _______ _______ _____ _____    ______ ____
ROOT
ATOM      1  O   UNL     1     112.538 126.442 136.218  0.00  0.00    +0.000 OA
ATOM      2  O   UNL     1     109.989 125.659 135.094  0.00  0.00    +0.000 OA
ATOM      3  O   UNL     1     110.808 124.658 135.732  0.00  0.00    +0.000 OA
ATOM      4  C   UNL     1     111.247 126.048 135.648  0.00  0.00    +0.000 A 
ATOM      5  C   UNL     1     111.809 126.632 135.805  0.00  0.00    +0.000 A 
ATOM      6  C   UNL     1     110.416 127.020 135.010  0.00  0.00    +0.000 A 
ATOM      7  C   UNL     1     110.551 126.242 135.251  0.00  0.00    +0.000 A 
ATOM      8  C   UNL     1     110.978 127.604 135.167  0.00  0.00    +0.000 A 
ATOM      9  C   UNL     1     111.674 127.409 135.564  0.00  0.00    +0.000 A 
ATOM     10  C   UNL     1     112.684 125.634 136.471  0.00  0.00    +0.000 A 
ATOM     11  C   UNL     1     111.376 125.235 135.894  0.00  0.00    +0.000 A 
ATOM     12  C   UNL     1     112.099 125.026 136.308  0.00  0.00    +0.000 A 
ATOM     13  C   UNL     1     109.720 127.214 134.612  0.00  0.00    +0.000 C 
ENDROOT
BRANCH  10  14
ATOM     14  C   UNL     1     113.381 125.442 136.869  0.00  0.00    +0.000 A 
ATOM     15  C   UNL     1     113.990 125.054 136.470  0.00  0.00    +0.000 A 
ATOM     16  C   UNL     1     113.469 125.639 137.665  0.00  0.00    +0.000 A 
ATOM     17  C   UNL     1     114.687 124.863 136.867  0.00  0.00    +0.000 A 
ATOM     18  C   UNL     1     114.167 125.447 138.062  0.00  0.00    +0.000 A 
ATOM     19  C   UNL     1     114.776 125.059 137.663  0.00  0.00    +0.000 A 
ENDBRANCH  10  14
BRANCH   8  20
ATOM     20  O   UNL     1     110.844 128.381 134.926  0.00  0.00    +0.000 OA
ATOM     21  C   UNL     1     111.433 128.950 135.023  0.00  0.00    +0.000 C 
ENDBRANCH   8  20
TORSDOF 2
ENDMDL
MODEL 5
REMARK VINA RESULT:      -8.1     12.109     12.924
REMARK  Name = 369599
REMARK  2 active torsions:
REMARK  status: ('A' for Active; 'I' for Inactive)
REMARK    1  A    between atoms: O_2  and  C_9
REMARK    2  A    between atoms: C_11  and  C_14
REMARK                            x       y       z     vdW  Elec       q    Type
REMARK                         _______ _______ _______ _____ _____    ______ ____
ROOT
ATOM      1  O   UNL     1     111.959 125.812 135.995  0.00  0.00    +0.000 OA
ATOM      2  O   UNL     1     113.334 123.607 137.270  0.00  0.00    +0.000 OA
ATOM      3  O   UNL     1     111.921 123.492 137.008  0.00  0.00    +0.000 OA
ATOM      4  C   UNL     1     112.658 124.697 136.640  0.00  0.00    +0.000 A 
ATOM      5  C   UNL     1     112.673 125.454 136.311  0.00  0.00    +0.000 A 
ATOM      6  C   UNL     1     114.058 124.786 136.911  0.00  0.00    +0.000 A 
ATOM      7  C   UNL     1     113.350 124.363 136.940  0.00  0.00    +0.000 A 
ATOM      8  C   UNL     1     114.074 125.543 136.582  0.00  0.00    +0.000 A 
ATOM      9  C   UNL     1     113.381 125.876 136.282  0.00  0.00    +0.000 A 
ATOM     10  C   UNL     1     111.219 125.377 136.023  0.00  0.00    +0.000 A 
ATOM     11  C   UNL     1     111.926 124.247 136.677  0.00  0.00    +0.000 A 
ATOM     12  C   UNL     1     111.202 124.589 136.366  0.00  0.00    +0.000 A 
ATOM     13  C   UNL     1     114.750 124.452 137.211  0.00  0.00    +0.000 C 
ENDROOT
BRANCH  10  14
ATOM     14  C   UNL     1     110.528 125.713 135.723  0.00  0.00    +0.000 A 
ATOM     15  C   UNL     1     110.034 126.153 136.216  0.00  0.00    +0.000 A 
ATOM     16  C   UNL     1     110.330 125.609 134.928  0.00  0.00    +0.000 A 
ATOM     17  C   UNL     1     109.343 126.489 135.916  0.00  0.00    +0.000 A 
ATOM     18  C   UNL     1     109.639 125.946 134.628  0.00  0.00    +0.000 A 
ATOM     19  C   UNL     1     109.145 126.386 135.122  0.00  0.00    +0.000 A 
ENDBRANCH  10  14
BRANCH   8  20
ATOM     20  O   UNL     1     114.781 125.965 136.552  0.00  0.00    +0.000 OA
ATOM     21  C   UNL     1     114.865 126.594 136.025  0.00  0.00    +0.000 C 
ENDBRANCH   8  20
TORSDOF 2
ENDMDL
MODEL 6
REMARK VINA RESULT:      -8.0      1.988      3.830
REMARK  Name = 369599
REMARK  2 active torsions:
REMARK  status: ('A' for Active; 'I' for Inactive)
REMARK    1  A    between atoms: O_2  and  C_9
REMARK    2  A    between atoms: C_11  and  C_14
REMARK                            x       y       z     vdW  Elec       q    Type
REMARK                         _______ _______ _______ _____ _____    ______ ____
ROOT
ATOM      1  O   UNL     1     106.557 124.928 146.827  0.00  0.00    +0.000 OA
ATOM      2  O   UNL     1     106.690 127.222 145.066  0.00  0.00    +0.000 OA
ATOM      3  O   UNL     1     107.276 127.314 146.381  0.00  0.00    +0.000 OA
ATOM      4  C   UNL     1     106.622 126.088 145.933  0.00  0.00    +0.000 A 
ATOM      5  C   UNL     1     106.387 125.310 146.075  0.00  0.00    +0.000 A 
ATOM      6  C   UNL     1     106.049 126.022 144.626  0.00  0.00    +0.000 A 
ATOM      7  C   UNL     1     106.454 126.444 145.209  0.00  0.00    +0.000 A 
ATOM      8  C   UNL     1     105.814 125.244 144.768  0.00  0.00    +0.000 A 
ATOM      9  C   UNL     1     105.983 124.889 145.493  0.00  0.00    +0.000 A 
ATOM     10  C   UNL     1     106.978 125.362 147.437  0.00  0.00    +0.000 A 
ATOM     11  C   UNL     1     107.044 126.537 146.532  0.00  0.00    +0.000 A 
ATOM     12  C   UNL     1     107.223 126.172 147.289  0.00  0.00    +0.000 A 
ATOM     13  C   UNL     1     105.881 126.378 143.901  0.00  0.00    +0.000 C 
ENDROOT
BRANCH  10  14
ATOM     14  C   UNL     1     107.145 125.004 148.161  0.00  0.00    +0.000 A 
ATOM     15  C   UNL     1     107.924 124.815 148.357  0.00  0.00    +0.000 A 
ATOM     16  C   UNL     1     106.534 124.834 148.688  0.00  0.00    +0.000 A 
ATOM     17  C   UNL     1     108.091 124.457 149.081  0.00  0.00    +0.000 A 
ATOM     18  C   UNL     1     106.702 124.475 149.413  0.00  0.00    +0.000 A 
ATOM     19  C   UNL     1     107.481 124.286 149.609  0.00  0.00    +0.000 A 
ENDBRANCH  10  14
BRANCH   8  20
ATOM     20  O   UNL     1     105.409 124.823 144.186  0.00  0.00    +0.000 OA
ATOM     21  C   UNL     1     105.208 124.033 144.314  0.00  0.00    +0.000 C 
ENDBRANCH   8  20
TORSDOF 2
ENDMDL
MODEL 7
REMARK VINA RESULT:      -7.9     12.727     13.745
REMARK  Name = 369599
REMARK  2 active torsions:
REMARK  status: ('A' for Active; 'I' for Inactive)
REMARK    1  A    between atoms: O_2  and  C_9
REMARK    2  A    between atoms: C_11  and  C_14
REMARK                            x       y       z     vdW  Elec       q    Type
REMARK                         _______ _______ _______ _____ _____    ______ ____
ROOT
ATOM      1  O   UNL     1     112.341 126.199 136.148  0.00  0.00    +0.000 OA
ATOM      2  O   UNL     1     111.542 128.839 135.270  0.00  0.00    +0.000 OA
ATOM      3  O   UNL     1     112.786 128.687 135.984  0.00  0.00    +0.000 OA
ATOM      4  C   UNL     1     111.934 127.534 135.702  0.00  0.00    +0.000 A 
ATOM      5  C   UNL     1     111.786 126.724 135.754  0.00  0.00    +0.000 A 
ATOM      6  C   UNL     1     110.706 127.712 134.993  0.00  0.00    +0.000 A 
ATOM      7  C   UNL     1     111.394 128.029 135.322  0.00  0.00    +0.000 A 
ATOM      8  C   UNL     1     110.559 126.902 135.045  0.00  0.00    +0.000 A 
ATOM      9  C   UNL     1     111.099 126.409 135.426  0.00  0.00    +0.000 A 
ATOM     10  C   UNL     1     113.059 126.522 136.492  0.00  0.00    +0.000 A 
ATOM     11  C   UNL     1     112.647 127.875 136.041  0.00  0.00    +0.000 A 
ATOM     12  C   UNL     1     113.213 127.366 136.438  0.00  0.00    +0.000 A 
ATOM     13  C   UNL     1     110.166 128.207 134.613  0.00  0.00    +0.000 C 
ENDROOT
BRANCH  10  14
ATOM     14  C   UNL     1     113.598 126.026 136.872  0.00  0.00    +0.000 A 
ATOM     15  C   UNL     1     113.608 125.983 137.696  0.00  0.00    +0.000 A 
ATOM     16  C   UNL     1     114.125 125.573 136.428  0.00  0.00    +0.000 A 
ATOM     17  C   UNL     1     114.147 125.487 138.076  0.00  0.00    +0.000 A 
ATOM     18  C   UNL     1     114.663 125.076 136.809  0.00  0.00    +0.000 A 
ATOM     19  C   UNL     1     114.674 125.033 137.633  0.00  0.00    +0.000 A 
ENDBRANCH  10  14
BRANCH   8  20
ATOM     20  O   UNL     1     109.871 126.587 134.717  0.00  0.00    +0.000 OA
ATOM     21  C   UNL     1     109.717 125.779 134.782  0.00  0.00    +0.000 C 
ENDBRANCH   8  20
TORSDOF 2
ENDMDL
MODEL 8
REMARK VINA RESULT:      -7.9     12.629     13.766
REMARK  Name = 369599
REMARK  2 active torsions:
REMARK  status: ('A' for Active; 'I' for Inactive)
REMARK    1  A    between atoms: O_2  and  C_9
REMARK    2  A    between atoms: C_11  and  C_14
REMARK                            x       y       z     vdW  Elec       q    Type
REMARK                         _______ _______ _______ _____ _____    ______ ____
ROOT
ATOM      1  O   UNL     1     112.641 127.126 136.123  0.00  0.00    +0.000 OA
ATOM      2  O   UNL     1     113.314 124.443 136.978  0.00  0.00    +0.000 OA
ATOM      3  O   UNL     1     114.278 125.499 137.165  0.00  0.00    +0.000 OA
ATOM      4  C   UNL     1     112.979 125.766 136.555  0.00  0.00    +0.000 A 
ATOM      5  C   UNL     1     112.443 126.294 136.215  0.00  0.00    +0.000 A 
ATOM      6  C   UNL     1     112.041 124.702 136.381  0.00  0.00    +0.000 A 
ATOM      7  C   UNL     1     112.778 124.971 136.638  0.00  0.00    +0.000 A 
ATOM      8  C   UNL     1     111.505 125.230 136.041  0.00  0.00    +0.000 A 
ATOM      9  C   UNL     1     111.707 126.026 135.958  0.00  0.00    +0.000 A 
ATOM     10  C   UNL     1     113.407 127.411 136.389  0.00  0.00    +0.000 A 
ATOM     11  C   UNL     1     113.749 126.034 136.826  0.00  0.00    +0.000 A 
ATOM     12  C   UNL     1     113.964 126.861 136.743  0.00  0.00    +0.000 A 
ATOM     13  C   UNL     1     111.840 123.907 136.464  0.00  0.00    +0.000 C 
ENDROOT
BRANCH  10  14
ATOM     14  C   UNL     1     113.605 128.207 136.305  0.00  0.00    +0.000 A 
ATOM     15  C   UNL     1     114.033 128.458 135.645  0.00  0.00    +0.000 A 
ATOM     16  C   UNL     1     113.377 128.752 136.880  0.00  0.00    +0.000 A 
ATOM     17  C   UNL     1     114.231 129.254 135.561  0.00  0.00    +0.000 A 
ATOM     18  C   UNL     1     113.576 129.549 136.795  0.00  0.00    +0.000 A 
ATOM     19  C   UNL     1     114.003 129.800 136.136  0.00  0.00    +0.000 A 
ENDBRANCH  10  14
BRANCH   8  20
ATOM     20  O   UNL     1     110.769 124.962 135.784  0.00  0.00    +0.000 OA
ATOM     21  C   UNL     1     110.281 125.458 135.341  0.00  0.00    +0.000 C 
ENDBRANCH   8  20
TORSDOF 2
ENDMDL
MODEL 9
REMARK VINA RESULT:      -7.8     12.621     13.948
REMARK  Name = 369599
REMARK  2 active torsions:
REMARK  status: ('A' for Active; 'I' for Inactive)
REMARK    1  A    between atoms: O_2  and  C_9
REMARK    2  A    between atoms: C_11  and  C_14
REMARK                            x       y       z     vdW  Elec       q    Type
REMARK                         _______ _______ _______ _____ _____    ______ ____
ROOT
ATOM      1  O   UNL     1     113.835 127.351 136.442  0.00  0.00    +0.000 OA
ATOM      2  O   UNL     1     111.490 125.667 136.232  0.00  0.00    +0.000 OA
ATOM      3  O   UNL     1     111.390 127.056 135.855  0.00  0.00    +0.000 OA
ATOM      4  C   UNL     1     112.650 126.496 136.337  0.00  0.00    +0.000 A 
ATOM      5  C   UNL     1     113.447 126.589 136.529  0.00  0.00    +0.000 A 
ATOM      6  C   UNL     1     112.722 125.117 136.704  0.00  0.00    +0.000 A 
ATOM      7  C   UNL     1     112.287 125.760 136.424  0.00  0.00    +0.000 A 
ATOM      8  C   UNL     1     113.519 125.210 136.896  0.00  0.00    +0.000 A 
ATOM      9  C   UNL     1     113.881 125.946 136.808  0.00  0.00    +0.000 A 
ATOM     10  C   UNL     1     113.388 128.024 136.152  0.00  0.00    +0.000 A 
ATOM     11  C   UNL     1     112.187 127.159 136.045  0.00  0.00    +0.000 A 
ATOM     12  C   UNL     1     112.558 127.927 135.952  0.00  0.00    +0.000 A 
ATOM     13  C   UNL     1     112.360 124.381 136.791  0.00  0.00    +0.000 C 
ENDROOT
BRANCH  10  14
ATOM     14  C   UNL     1     113.753 128.759 136.066  0.00  0.00    +0.000 A 
ATOM     15  C   UNL     1     114.206 128.918 135.395  0.00  0.00    +0.000 A 
ATOM     16  C   UNL     1     113.664 129.335 136.650  0.00  0.00    +0.000 A 
ATOM     17  C   UNL     1     114.571 129.653 135.309  0.00  0.00    +0.000 A 
ATOM     18  C   UNL     1     114.029 130.070 136.563  0.00  0.00    +0.000 A 
ATOM     19  C   UNL     1     114.483 130.229 135.892  0.00  0.00    +0.000 A 
ENDBRANCH  10  14
BRANCH   8  20
ATOM     20  O   UNL     1     113.954 124.567 137.175  0.00  0.00    +0.000 OA
ATOM     21  C   UNL     1     114.740 124.668 137.402  0.00  0.00    +0.000 C 
ENDBRANCH   8  20
TORSDOF 2
ENDMDL
MODEL 10
REMARK VINA RESULT:      -7.8      1.594      4.247
REMARK  Name = 369599
REMARK  2 active torsions:
REMARK  status: ('A' for Active; 'I' for Inactive)
REMARK    1  A    between atoms: O_2  and  C_9
REMARK    2  A    between atoms: C_11  and  C_14
REMARK                            x       y       z     vdW  Elec       q    Type
REMARK                         _______ _______ _______ _____ _____    ______ ____
ROOT
ATOM      1  O   UNL     1     103.932 124.595 147.786  0.00  0.00    +0.000 OA
ATOM      2  O   UNL     1     102.604 123.489 145.464  0.00  0.00    +0.000 OA
ATOM      3  O   UNL     1     104.020 123.755 145.399  0.00  0.00    +0.000 OA
ATOM      4  C   UNL     1     103.257 124.035 146.612  0.00  0.00    +0.000 A 
ATOM      5  C   UNL     1     103.225 124.308 147.390  0.00  0.00    +0.000 A 
ATOM      6  C   UNL     1     101.855 123.762 146.650  0.00  0.00    +0.000 A 
ATOM      7  C   UNL     1     102.572 123.762 146.242  0.00  0.00    +0.000 A 
ATOM      8  C   UNL     1     101.823 124.035 147.428  0.00  0.00    +0.000 A 
ATOM      9  C   UNL     1     102.509 124.308 147.797  0.00  0.00    +0.000 A 
ATOM     10  C   UNL     1     104.682 124.597 147.366  0.00  0.00    +0.000 A 
ATOM     11  C   UNL     1     103.998 124.030 146.176  0.00  0.00    +0.000 A 
ATOM     12  C   UNL     1     104.715 124.313 146.556  0.00  0.00    +0.000 A 
ATOM     13  C   UNL     1     101.170 123.489 146.280  0.00  0.00    +0.000 C 
ENDROOT
BRANCH  10  14
ATOM     14  C   UNL     1     105.365 124.871 147.738  0.00  0.00    +0.000 A 
ATOM     15  C   UNL     1     105.862 124.341 148.129  0.00  0.00    +0.000 A 
ATOM     16  C   UNL     1     105.552 125.674 147.719  0.00  0.00    +0.000 A 
ATOM     17  C   UNL     1     106.546 124.614 148.501  0.00  0.00    +0.000 A 
ATOM     18  C   UNL     1     106.236 125.947 148.092  0.00  0.00    +0.000 A 
ATOM     19  C   UNL     1     106.733 125.417 148.483  0.00  0.00    +0.000 A 
ENDBRANCH  10  14
BRANCH   8  20
ATOM     20  O   UNL     1     101.107 124.035 147.836  0.00  0.00    +0.000 OA
ATOM     21  C   UNL     1     101.085 124.252 148.632  0.00  0.00    +0.000 C 
ENDBRANCH   8  20
TORSDOF 2
ENDMDL
