MODEL 1
REMARK VINA RESULT:      -7.6      0.000      0.000
REMARK  Name = 5742693
REMARK  6 active torsions:
REMARK  status: ('A' for Active; 'I' for Inactive)
REMARK    1  A    between atoms: O_2  and  C_12
REMARK    2  A    between atoms: O_3  and  C_15
REMARK    3  A    between atoms: O_4  and  C_17
REMARK    4  A    between atoms: O_5  and  C_19
REMARK    5  A    between atoms: O_6  and  C_22
REMARK    6  A    between atoms: C_9  and  C_10
REMARK                            x       y       z     vdW  Elec       q    Type
REMARK                         _______ _______ _______ _____ _____    ______ ____
ROOT
ATOM      1  C   UNL     1     103.965 124.333 146.632  0.00  0.00    +0.000 A 
ATOM      2  C   UNL     1     103.367 124.325 147.200  0.00  0.00    +0.000 A 
ATOM      3  C   UNL     1     103.888 123.882 145.945  0.00  0.00    +0.000 A 
ATOM      4  C   UNL     1     102.691 123.867 147.081  0.00  0.00    +0.000 A 
ATOM      5  C   UNL     1     103.212 123.424 145.826  0.00  0.00    +0.000 A 
ATOM      6  C   UNL     1     102.613 123.417 146.394  0.00  0.00    +0.000 A 
ENDROOT
BRANCH   1  10
ATOM      7  O   UNL     1     105.263 124.496 147.206  0.00  0.00    +0.000 OA
ATOM      8  O   UNL     1     106.739 126.941 146.764  0.00  0.00    +0.000 OA
ATOM      9  O   UNL     1     105.427 126.749 146.196  0.00  0.00    +0.000 OA
ATOM     10  C   UNL     1     104.641 124.790 146.751  0.00  0.00    +0.000 A 
ATOM     11  C   UNL     1     105.994 125.705 146.988  0.00  0.00    +0.000 A 
ATOM     12  C   UNL     1     105.939 124.954 147.325  0.00  0.00    +0.000 A 
ATOM     13  C   UNL     1     104.696 125.541 146.414  0.00  0.00    +0.000 A 
ATOM     14  C   UNL     1     105.372 125.998 146.533  0.00  0.00    +0.000 A 
ATOM     15  C   UNL     1     106.693 126.191 147.105  0.00  0.00    +0.000 A 
ATOM     16  C   UNL     1     106.581 124.636 147.801  0.00  0.00    +0.000 A 
ATOM     17  C   UNL     1     107.287 125.108 147.928  0.00  0.00    +0.000 A 
ATOM     18  C   UNL     1     107.344 125.890 147.578  0.00  0.00    +0.000 A 
BRANCH  17  19
ATOM     19  O   UNL     1     107.908 124.811 148.385  0.00  0.00    +0.000 OA
ATOM     20  C   UNL     1     107.763 124.541 149.151  0.00  0.00    +0.000 C 
ENDBRANCH  17  19
ENDBRANCH   1  10
BRANCH   2  21
ATOM     21  O   UNL     1     103.444 124.775 147.886  0.00  0.00    +0.000 OA
ATOM     22  C   UNL     1     102.838 125.285 148.116  0.00  0.00    +0.000 C 
ENDBRANCH   2  21
BRANCH   4  23
ATOM     23  O   UNL     1     102.093 123.859 147.649  0.00  0.00    +0.000 OA
ATOM     24  C   UNL     1     102.062 123.254 148.208  0.00  0.00    +0.000 C 
ENDBRANCH   4  23
BRANCH   5  25
ATOM     25  O   UNL     1     103.134 122.974 145.139  0.00  0.00    +0.000 OA
ATOM     26  C   UNL     1     103.806 122.742 144.719  0.00  0.00    +0.000 C 
ENDBRANCH   5  25
BRANCH   6  27
ATOM     27  O   UNL     1     101.938 122.958 146.275  0.00  0.00    +0.000 OA
ATOM     28  C   UNL     1     101.337 123.230 145.779  0.00  0.00    +0.000 C 
ENDBRANCH   6  27
TORSDOF 6
ENDMDL
MODEL 2
REMARK VINA RESULT:      -7.4      1.270      2.651
REMARK  Name = 5742693
REMARK  6 active torsions:
REMARK  status: ('A' for Active; 'I' for Inactive)
REMARK    1  A    between atoms: O_2  and  C_12
REMARK    2  A    between atoms: O_3  and  C_15
REMARK    3  A    between atoms: O_4  and  C_17
REMARK    4  A    between atoms: O_5  and  C_19
REMARK    5  A    between atoms: O_6  and  C_22
REMARK    6  A    between atoms: C_9  and  C_10
REMARK                            x       y       z     vdW  Elec       q    Type
REMARK                         _______ _______ _______ _____ _____    ______ ____
ROOT
ATOM      1  C   UNL     1     103.244 124.466 146.787  0.00  0.00    +0.000 A 
ATOM      2  C   UNL     1     102.911 123.895 146.294  0.00  0.00    +0.000 A 
ATOM      3  C   UNL     1     102.796 124.799 147.395  0.00  0.00    +0.000 A 
ATOM      4  C   UNL     1     102.129 123.658 146.408  0.00  0.00    +0.000 A 
ATOM      5  C   UNL     1     102.014 124.561 147.508  0.00  0.00    +0.000 A 
ATOM      6  C   UNL     1     101.681 123.990 147.015  0.00  0.00    +0.000 A 
ENDROOT
BRANCH   1  10
ATOM      7  O   UNL     1     104.204 125.281 146.112  0.00  0.00    +0.000 OA
ATOM      8  O   UNL     1     107.005 125.076 146.790  0.00  0.00    +0.000 OA
ATOM      9  O   UNL     1     106.016 124.264 147.456  0.00  0.00    +0.000 OA
ATOM     10  C   UNL     1     104.026 124.703 146.674  0.00  0.00    +0.000 A 
ATOM     11  C   UNL     1     105.589 125.180 146.446  0.00  0.00    +0.000 A 
ATOM     12  C   UNL     1     104.985 125.519 145.998  0.00  0.00    +0.000 A 
ATOM     13  C   UNL     1     104.630 124.364 147.122  0.00  0.00    +0.000 A 
ATOM     14  C   UNL     1     105.412 124.603 147.008  0.00  0.00    +0.000 A 
ATOM     15  C   UNL     1     106.408 125.420 146.337  0.00  0.00    +0.000 A 
ATOM     16  C   UNL     1     105.158 126.122 145.410  0.00  0.00    +0.000 A 
ATOM     17  C   UNL     1     105.970 126.374 145.287  0.00  0.00    +0.000 A 
ATOM     18  C   UNL     1     106.599 126.021 145.754  0.00  0.00    +0.000 A 
BRANCH  17  19
ATOM     19  O   UNL     1     106.144 126.952 144.724  0.00  0.00    +0.000 OA
ATOM     20  C   UNL     1     106.387 126.730 143.967  0.00  0.00    +0.000 C 
ENDBRANCH  17  19
ENDBRANCH   1  10
BRANCH   2  21
ATOM     21  O   UNL     1     103.359 123.562 145.687  0.00  0.00    +0.000 OA
ATOM     22  C   UNL     1     103.370 122.743 145.584  0.00  0.00    +0.000 C 
ENDBRANCH   2  21
BRANCH   4  23
ATOM     23  O   UNL     1     101.795 123.087 145.914  0.00  0.00    +0.000 OA
ATOM     24  C   UNL     1     101.269 123.311 145.320  0.00  0.00    +0.000 C 
ENDBRANCH   4  23
BRANCH   5  25
ATOM     25  O   UNL     1     101.566 124.895 148.116  0.00  0.00    +0.000 OA
ATOM     26  C   UNL     1     101.765 125.637 148.416  0.00  0.00    +0.000 C 
ENDBRANCH   5  25
BRANCH   6  27
ATOM     27  O   UNL     1     100.899 123.753 147.129  0.00  0.00    +0.000 OA
ATOM     28  C   UNL     1     100.710 123.232 147.739  0.00  0.00    +0.000 C 
ENDBRANCH   6  27
TORSDOF 6
ENDMDL
MODEL 3
REMARK VINA RESULT:      -7.3     12.277     13.999
REMARK  Name = 5742693
REMARK  6 active torsions:
REMARK  status: ('A' for Active; 'I' for Inactive)
REMARK    1  A    between atoms: O_2  and  C_12
REMARK    2  A    between atoms: O_3  and  C_15
REMARK    3  A    between atoms: O_4  and  C_17
REMARK    4  A    between atoms: O_5  and  C_19
REMARK    5  A    between atoms: O_6  and  C_22
REMARK    6  A    between atoms: C_9  and  C_10
REMARK                            x       y       z     vdW  Elec       q    Type
REMARK                         _______ _______ _______ _____ _____    ______ ____
ROOT
ATOM      1  C   UNL     1     112.702 128.171 136.477  0.00  0.00    +0.000 A 
ATOM      2  C   UNL     1     112.579 128.523 137.213  0.00  0.00    +0.000 A 
ATOM      3  C   UNL     1     113.256 128.491 135.955  0.00  0.00    +0.000 A 
ATOM      4  C   UNL     1     113.009 129.194 137.427  0.00  0.00    +0.000 A 
ATOM      5  C   UNL     1     113.686 129.161 136.169  0.00  0.00    +0.000 A 
ATOM      6  C   UNL     1     113.562 129.513 136.905  0.00  0.00    +0.000 A 
ENDROOT
BRANCH   1  10
ATOM      7  O   UNL     1     112.540 126.752 136.485  0.00  0.00    +0.000 OA
ATOM      8  O   UNL     1     110.264 125.554 135.168  0.00  0.00    +0.000 OA
ATOM      9  O   UNL     1     110.452 126.984 135.176  0.00  0.00    +0.000 OA
ATOM     10  C   UNL     1     112.273 127.501 136.263  0.00  0.00    +0.000 A 
ATOM     11  C   UNL     1     111.414 126.158 135.834  0.00  0.00    +0.000 A 
ATOM     12  C   UNL     1     112.110 126.081 136.271  0.00  0.00    +0.000 A 
ATOM     13  C   UNL     1     111.577 127.578 135.826  0.00  0.00    +0.000 A 
ATOM     14  C   UNL     1     111.148 126.906 135.612  0.00  0.00    +0.000 A 
ATOM     15  C   UNL     1     110.958 125.467 135.605  0.00  0.00    +0.000 A 
ATOM     16  C   UNL     1     112.398 125.307 136.508  0.00  0.00    +0.000 A 
ATOM     17  C   UNL     1     111.955 124.604 136.288  0.00  0.00    +0.000 A 
ATOM     18  C   UNL     1     111.231 124.685 135.833  0.00  0.00    +0.000 A 
BRANCH  17  19
ATOM     19  O   UNL     1     112.225 123.857 136.512  0.00  0.00    +0.000 OA
ATOM     20  C   UNL     1     111.940 123.506 137.203  0.00  0.00    +0.000 C 
ENDBRANCH  17  19
ENDBRANCH   1  10
BRANCH   2  21
ATOM     21  O   UNL     1     112.025 128.204 137.734  0.00  0.00    +0.000 OA
ATOM     22  C   UNL     1     111.464 128.694 138.090  0.00  0.00    +0.000 C 
ENDBRANCH   2  21
BRANCH   4  23
ATOM     23  O   UNL     1     112.885 129.546 138.162  0.00  0.00    +0.000 OA
ATOM     24  C   UNL     1     113.387 129.371 138.794  0.00  0.00    +0.000 C 
ENDBRANCH   4  23
BRANCH   5  25
ATOM     25  O   UNL     1     114.240 129.480 135.647  0.00  0.00    +0.000 OA
ATOM     26  C   UNL     1     114.622 128.993 135.102  0.00  0.00    +0.000 C 
ENDBRANCH   5  25
BRANCH   6  27
ATOM     27  O   UNL     1     113.993 130.184 137.119  0.00  0.00    +0.000 OA
ATOM     28  C   UNL     1     113.776 130.924 136.827  0.00  0.00    +0.000 C 
ENDBRANCH   6  27
TORSDOF 6
ENDMDL
MODEL 4
REMARK VINA RESULT:      -7.3     12.457     13.830
REMARK  Name = 5742693
REMARK  6 active torsions:
REMARK  status: ('A' for Active; 'I' for Inactive)
REMARK    1  A    between atoms: O_2  and  C_12
REMARK    2  A    between atoms: O_3  and  C_15
REMARK    3  A    between atoms: O_4  and  C_17
REMARK    4  A    between atoms: O_5  and  C_19
REMARK    5  A    between atoms: O_6  and  C_22
REMARK    6  A    between atoms: C_9  and  C_10
REMARK                            x       y       z     vdW  Elec       q    Type
REMARK                         _______ _______ _______ _____ _____    ______ ____
ROOT
ATOM      1  C   UNL     1     112.769 126.451 136.691  0.00  0.00    +0.000 A 
ATOM      2  C   UNL     1     111.996 126.263 136.472  0.00  0.00    +0.000 A 
ATOM      3  C   UNL     1     113.315 125.848 136.838  0.00  0.00    +0.000 A 
ATOM      4  C   UNL     1     111.769 125.473 136.400  0.00  0.00    +0.000 A 
ATOM      5  C   UNL     1     113.086 125.059 136.764  0.00  0.00    +0.000 A 
ATOM      6  C   UNL     1     112.313 124.872 136.545  0.00  0.00    +0.000 A 
ENDROOT
BRANCH   1  10
ATOM      7  O   UNL     1     113.279 127.650 136.106  0.00  0.00    +0.000 OA
ATOM      8  O   UNL     1     113.636 130.011 137.733  0.00  0.00    +0.000 OA
ATOM      9  O   UNL     1     113.123 128.787 138.298  0.00  0.00    +0.000 OA
ATOM     10  C   UNL     1     112.998 127.240 136.765  0.00  0.00    +0.000 A 
ATOM     11  C   UNL     1     113.456 128.818 136.910  0.00  0.00    +0.000 A 
ATOM     12  C   UNL     1     113.508 128.439 136.179  0.00  0.00    +0.000 A 
ATOM     13  C   UNL     1     112.946 127.619 137.495  0.00  0.00    +0.000 A 
ATOM     14  C   UNL     1     113.175 128.408 137.567  0.00  0.00    +0.000 A 
ATOM     15  C   UNL     1     113.692 129.640 136.998  0.00  0.00    +0.000 A 
ATOM     16  C   UNL     1     113.800 128.856 135.485  0.00  0.00    +0.000 A 
ATOM     17  C   UNL     1     114.040 129.678 135.555  0.00  0.00    +0.000 A 
ATOM     18  C   UNL     1     113.985 130.072 136.316  0.00  0.00    +0.000 A 
BRANCH  17  19
ATOM     19  O   UNL     1     114.320 130.085 134.894  0.00  0.00    +0.000 OA
ATOM     20  C   UNL     1     115.129 130.100 134.733  0.00  0.00    +0.000 C 
ENDBRANCH  17  19
ENDBRANCH   1  10
BRANCH   2  21
ATOM     21  O   UNL     1     111.452 126.865 136.326  0.00  0.00    +0.000 OA
ATOM     22  C   UNL     1     110.707 126.842 136.681  0.00  0.00    +0.000 C 
ENDBRANCH   2  21
BRANCH   4  23
ATOM     23  O   UNL     1     110.996 125.286 136.181  0.00  0.00    +0.000 OA
ATOM     24  C   UNL     1     110.807 125.177 135.385  0.00  0.00    +0.000 C 
ENDBRANCH   4  23
BRANCH   5  25
ATOM     25  O   UNL     1     113.631 124.456 136.911  0.00  0.00    +0.000 OA
ATOM     26  C   UNL     1     114.430 124.638 137.007  0.00  0.00    +0.000 C 
ENDBRANCH   5  25
BRANCH   6  27
ATOM     27  O   UNL     1     112.085 124.082 136.473  0.00  0.00    +0.000 OA
ATOM     28  C   UNL     1     111.902 123.641 137.145  0.00  0.00    +0.000 C 
ENDBRANCH   6  27
TORSDOF 6
ENDMDL
MODEL 5
REMARK VINA RESULT:      -7.2      0.884      4.698
REMARK  Name = 5742693
REMARK  6 active torsions:
REMARK  status: ('A' for Active; 'I' for Inactive)
REMARK    1  A    between atoms: O_2  and  C_12
REMARK    2  A    between atoms: O_3  and  C_15
REMARK    3  A    between atoms: O_4  and  C_17
REMARK    4  A    between atoms: O_5  and  C_19
REMARK    5  A    between atoms: O_6  and  C_22
REMARK    6  A    between atoms: C_9  and  C_10
REMARK                            x       y       z     vdW  Elec       q    Type
REMARK                         _______ _______ _______ _____ _____    ______ ____
ROOT
ATOM      1  C   UNL     1     105.431 124.744 147.077  0.00  0.00    +0.000 A 
ATOM      2  C   UNL     1     105.737 125.384 146.655  0.00  0.00    +0.000 A 
ATOM      3  C   UNL     1     105.846 124.439 147.722  0.00  0.00    +0.000 A 
ATOM      4  C   UNL     1     106.458 125.718 146.878  0.00  0.00    +0.000 A 
ATOM      5  C   UNL     1     106.567 124.773 147.944  0.00  0.00    +0.000 A 
ATOM      6  C   UNL     1     106.873 125.413 147.522  0.00  0.00    +0.000 A 
ENDROOT
BRANCH   1  10
ATOM      7  O   UNL     1     104.009 124.678 147.198  0.00  0.00    +0.000 OA
ATOM      8  O   UNL     1     102.514 122.783 145.609  0.00  0.00    +0.000 OA
ATOM      9  O   UNL     1     103.950 122.871 145.507  0.00  0.00    +0.000 OA
ATOM     10  C   UNL     1     104.711 124.410 146.855  0.00  0.00    +0.000 A 
ATOM     11  C   UNL     1     103.269 123.741 146.412  0.00  0.00    +0.000 A 
ATOM     12  C   UNL     1     103.288 124.343 146.976  0.00  0.00    +0.000 A 
ATOM     13  C   UNL     1     104.691 123.807 146.292  0.00  0.00    +0.000 A 
ATOM     14  C   UNL     1     103.969 123.473 146.071  0.00  0.00    +0.000 A 
ATOM     15  C   UNL     1     102.523 123.385 146.174  0.00  0.00    +0.000 A 
ATOM     16  C   UNL     1     102.564 124.631 147.339  0.00  0.00    +0.000 A 
ATOM     17  C   UNL     1     101.811 124.287 147.113  0.00  0.00    +0.000 A 
ATOM     18  C   UNL     1     101.790 123.660 146.526  0.00  0.00    +0.000 A 
BRANCH  17  19
ATOM     19  O   UNL     1     101.111 124.558 147.457  0.00  0.00    +0.000 OA
ATOM     20  C   UNL     1     100.888 124.288 148.204  0.00  0.00    +0.000 C 
ENDBRANCH  17  19
ENDBRANCH   1  10
BRANCH   2  21
ATOM     21  O   UNL     1     105.322 125.689 146.012  0.00  0.00    +0.000 OA
ATOM     22  C   UNL     1     105.716 125.848 145.305  0.00  0.00    +0.000 C 
ENDBRANCH   2  21
BRANCH   4  23
ATOM     23  O   UNL     1     106.763 126.358 146.457  0.00  0.00    +0.000 OA
ATOM     24  C   UNL     1     106.674 127.124 146.747  0.00  0.00    +0.000 C 
ENDBRANCH   4  23
BRANCH   5  25
ATOM     25  O   UNL     1     106.982 124.467 148.589  0.00  0.00    +0.000 OA
ATOM     26  C   UNL     1     106.575 124.216 149.261  0.00  0.00    +0.000 C 
ENDBRANCH   5  25
BRANCH   6  27
ATOM     27  O   UNL     1     107.594 125.747 147.745  0.00  0.00    +0.000 OA
ATOM     28  C   UNL     1     108.298 125.345 147.597  0.00  0.00    +0.000 C 
ENDBRANCH   6  27
TORSDOF 6
ENDMDL
MODEL 6
REMARK VINA RESULT:      -7.2     11.925     13.371
REMARK  Name = 5742693
REMARK  6 active torsions:
REMARK  status: ('A' for Active; 'I' for Inactive)
REMARK    1  A    between atoms: O_2  and  C_12
REMARK    2  A    between atoms: O_3  and  C_15
REMARK    3  A    between atoms: O_4  and  C_17
REMARK    4  A    between atoms: O_5  and  C_19
REMARK    5  A    between atoms: O_6  and  C_22
REMARK    6  A    between atoms: C_9  and  C_10
REMARK                            x       y       z     vdW  Elec       q    Type
REMARK                         _______ _______ _______ _____ _____    ______ ____
ROOT
ATOM      1  C   UNL     1     111.547 127.609 136.311  0.00  0.00    +0.000 A 
ATOM      2  C   UNL     1     111.164 127.965 136.949  0.00  0.00    +0.000 A 
ATOM      3  C   UNL     1     111.780 128.065 135.662  0.00  0.00    +0.000 A 
ATOM      4  C   UNL     1     111.013 128.776 136.939  0.00  0.00    +0.000 A 
ATOM      5  C   UNL     1     111.628 128.875 135.653  0.00  0.00    +0.000 A 
ATOM      6  C   UNL     1     111.245 129.231 136.292  0.00  0.00    +0.000 A 
ENDROOT
BRANCH   1  10
ATOM      7  O   UNL     1     112.390 126.512 136.668  0.00  0.00    +0.000 OA
ATOM      8  O   UNL     1     111.606 123.813 136.000  0.00  0.00    +0.000 OA
ATOM      9  O   UNL     1     110.774 124.938 135.651  0.00  0.00    +0.000 OA
ATOM     10  C   UNL     1     111.699 126.798 136.320  0.00  0.00    +0.000 A 
ATOM     11  C   UNL     1     112.003 125.177 136.338  0.00  0.00    +0.000 A 
ATOM     12  C   UNL     1     112.542 125.701 136.677  0.00  0.00    +0.000 A 
ATOM     13  C   UNL     1     111.160 126.274 135.981  0.00  0.00    +0.000 A 
ATOM     14  C   UNL     1     111.313 125.463 135.990  0.00  0.00    +0.000 A 
ATOM     15  C   UNL     1     112.150 124.330 136.342  0.00  0.00    +0.000 A 
ATOM     16  C   UNL     1     113.265 125.415 137.043  0.00  0.00    +0.000 A 
ATOM     17  C   UNL     1     113.429 124.572 137.056  0.00  0.00    +0.000 A 
ATOM     18  C   UNL     1     112.868 124.026 136.703  0.00  0.00    +0.000 A 
BRANCH  17  19
ATOM     19  O   UNL     1     114.122 124.290 137.405  0.00  0.00    +0.000 OA
ATOM     20  C   UNL     1     114.828 124.707 137.316  0.00  0.00    +0.000 C 
ENDBRANCH  17  19
ENDBRANCH   1  10
BRANCH   2  21
ATOM     21  O   UNL     1     110.932 127.510 137.596  0.00  0.00    +0.000 OA
ATOM     22  C   UNL     1     110.164 127.573 137.891  0.00  0.00    +0.000 C 
ENDBRANCH   2  21
BRANCH   4  23
ATOM     23  O   UNL     1     110.629 129.131 137.577  0.00  0.00    +0.000 OA
ATOM     24  C   UNL     1     111.068 129.511 138.163  0.00  0.00    +0.000 C 
ENDBRANCH   4  23
BRANCH   5  25
ATOM     25  O   UNL     1     111.860 129.331 135.005  0.00  0.00    +0.000 OA
ATOM     26  C   UNL     1     112.566 129.161 134.613  0.00  0.00    +0.000 C 
ENDBRANCH   5  25
BRANCH   6  27
ATOM     27  O   UNL     1     111.094 130.042 136.281  0.00  0.00    +0.000 OA
ATOM     28  C   UNL     1     110.454 130.338 135.853  0.00  0.00    +0.000 C 
ENDBRANCH   6  27
TORSDOF 6
ENDMDL
MODEL 7
REMARK VINA RESULT:      -7.2     12.504     13.707
REMARK  Name = 5742693
REMARK  6 active torsions:
REMARK  status: ('A' for Active; 'I' for Inactive)
REMARK    1  A    between atoms: O_2  and  C_12
REMARK    2  A    between atoms: O_3  and  C_15
REMARK    3  A    between atoms: O_4  and  C_17
REMARK    4  A    between atoms: O_5  and  C_19
REMARK    5  A    between atoms: O_6  and  C_22
REMARK    6  A    between atoms: C_9  and  C_10
REMARK                            x       y       z     vdW  Elec       q    Type
REMARK                         _______ _______ _______ _____ _____    ______ ____
ROOT
ATOM      1  C   UNL     1     112.584 126.474 136.730  0.00  0.00    +0.000 A 
ATOM      2  C   UNL     1     113.122 125.991 137.126  0.00  0.00    +0.000 A 
ATOM      3  C   UNL     1     111.972 126.137 136.290  0.00  0.00    +0.000 A 
ATOM      4  C   UNL     1     113.049 125.170 137.082  0.00  0.00    +0.000 A 
ATOM      5  C   UNL     1     111.899 125.317 136.247  0.00  0.00    +0.000 A 
ATOM      6  C   UNL     1     112.438 124.833 136.643  0.00  0.00    +0.000 A 
ENDROOT
BRANCH   1  10
ATOM      7  O   UNL     1     113.170 127.691 136.262  0.00  0.00    +0.000 OA
ATOM      8  O   UNL     1     112.424 130.208 137.468  0.00  0.00    +0.000 OA
ATOM      9  O   UNL     1     111.848 128.966 137.920  0.00  0.00    +0.000 OA
ATOM     10  C   UNL     1     112.656 127.295 136.773  0.00  0.00    +0.000 A 
ATOM     11  C   UNL     1     112.802 128.936 136.858  0.00  0.00    +0.000 A 
ATOM     12  C   UNL     1     113.243 128.511 136.305  0.00  0.00    +0.000 A 
ATOM     13  C   UNL     1     112.215 127.720 137.325  0.00  0.00    +0.000 A 
ATOM     14  C   UNL     1     112.289 128.541 137.367  0.00  0.00    +0.000 A 
ATOM     15  C   UNL     1     112.869 129.792 136.912  0.00  0.00    +0.000 A 
ATOM     16  C   UNL     1     113.781 128.912 135.768  0.00  0.00    +0.000 A 
ATOM     17  C   UNL     1     113.862 129.766 135.808  0.00  0.00    +0.000 A 
ATOM     18  C   UNL     1     113.403 130.209 136.383  0.00  0.00    +0.000 A 
BRANCH  17  19
ATOM     19  O   UNL     1     114.377 130.159 135.295  0.00  0.00    +0.000 OA
ATOM     20  C   UNL     1     115.122 130.391 135.560  0.00  0.00    +0.000 C 
ENDBRANCH  17  19
ENDBRANCH   1  10
BRANCH   2  21
ATOM     21  O   UNL     1     113.733 126.328 137.565  0.00  0.00    +0.000 OA
ATOM     22  C   UNL     1     113.866 126.084 138.342  0.00  0.00    +0.000 C 
ENDBRANCH   2  21
BRANCH   4  23
ATOM     23  O   UNL     1     113.587 124.687 137.478  0.00  0.00    +0.000 OA
ATOM     24  C   UNL     1     114.260 124.412 137.088  0.00  0.00    +0.000 C 
ENDBRANCH   4  23
BRANCH   5  25
ATOM     25  O   UNL     1     111.287 124.979 135.807  0.00  0.00    +0.000 OA
ATOM     26  C   UNL     1     110.816 125.454 135.325  0.00  0.00    +0.000 C 
ENDBRANCH   5  25
BRANCH   6  27
ATOM     27  O   UNL     1     112.364 124.012 136.599  0.00  0.00    +0.000 OA
ATOM     28  C   UNL     1     111.828 123.619 137.086  0.00  0.00    +0.000 C 
ENDBRANCH   6  27
TORSDOF 6
ENDMDL
MODEL 8
REMARK VINA RESULT:      -7.1     10.808     12.302
REMARK  Name = 5742693
REMARK  6 active torsions:
REMARK  status: ('A' for Active; 'I' for Inactive)
REMARK    1  A    between atoms: O_2  and  C_12
REMARK    2  A    between atoms: O_3  and  C_15
REMARK    3  A    between atoms: O_4  and  C_17
REMARK    4  A    between atoms: O_5  and  C_19
REMARK    5  A    between atoms: O_6  and  C_22
REMARK    6  A    between atoms: C_9  and  C_10
REMARK                            x       y       z     vdW  Elec       q    Type
REMARK                         _______ _______ _______ _____ _____    ______ ____
ROOT
ATOM      1  C   UNL     1     112.878 126.081 138.270  0.00  0.00    +0.000 A 
ATOM      2  C   UNL     1     112.091 125.902 138.098  0.00  0.00    +0.000 A 
ATOM      3  C   UNL     1     113.486 125.644 137.923  0.00  0.00    +0.000 A 
ATOM      4  C   UNL     1     111.913 125.286 137.578  0.00  0.00    +0.000 A 
ATOM      5  C   UNL     1     113.307 125.029 137.403  0.00  0.00    +0.000 A 
ATOM      6  C   UNL     1     112.520 124.850 137.231  0.00  0.00    +0.000 A 
ENDROOT
BRANCH   1  10
ATOM      7  O   UNL     1     113.069 127.475 138.517  0.00  0.00    +0.000 OA
ATOM      8  O   UNL     1     113.771 128.388 141.167  0.00  0.00    +0.000 OA
ATOM      9  O   UNL     1     113.573 126.986 140.890  0.00  0.00    +0.000 OA
ATOM     10  C   UNL     1     113.057 126.696 138.789  0.00  0.00    +0.000 A 
ATOM     11  C   UNL     1     113.416 127.927 139.827  0.00  0.00    +0.000 A 
ATOM     12  C   UNL     1     113.248 128.090 139.036  0.00  0.00    +0.000 A 
ATOM     13  C   UNL     1     113.225 126.533 139.581  0.00  0.00    +0.000 A 
ATOM     14  C   UNL     1     113.405 127.149 140.099  0.00  0.00    +0.000 A 
ATOM     15  C   UNL     1     113.605 128.560 140.378  0.00  0.00    +0.000 A 
ATOM     16  C   UNL     1     113.257 128.898 138.741  0.00  0.00    +0.000 A 
ATOM     17  C   UNL     1     113.443 129.543 139.277  0.00  0.00    +0.000 A 
ATOM     18  C   UNL     1     113.618 129.373 140.100  0.00  0.00    +0.000 A 
BRANCH  17  19
ATOM     19  O   UNL     1     113.454 130.321 139.001  0.00  0.00    +0.000 OA
ATOM     20  C   UNL     1     114.132 130.621 138.640  0.00  0.00    +0.000 C 
ENDBRANCH  17  19
ENDBRANCH   1  10
BRANCH   2  21
ATOM     21  O   UNL     1     111.484 126.338 138.445  0.00  0.00    +0.000 OA
ATOM     22  C   UNL     1     110.856 125.950 138.814  0.00  0.00    +0.000 C 
ENDBRANCH   2  21
BRANCH   4  23
ATOM     23  O   UNL     1     111.126 125.107 137.406  0.00  0.00    +0.000 OA
ATOM     24  C   UNL     1     110.776 125.403 136.720  0.00  0.00    +0.000 C 
ENDBRANCH   4  23
BRANCH   5  25
ATOM     25  O   UNL     1     113.915 124.592 137.056  0.00  0.00    +0.000 OA
ATOM     26  C   UNL     1     114.661 124.930 136.957  0.00  0.00    +0.000 C 
ENDBRANCH   5  25
BRANCH   6  27
ATOM     27  O   UNL     1     112.342 124.234 136.711  0.00  0.00    +0.000 OA
ATOM     28  C   UNL     1     112.333 123.456 136.981  0.00  0.00    +0.000 C 
ENDBRANCH   6  27
TORSDOF 6
ENDMDL
MODEL 9
REMARK VINA RESULT:      -7.1     12.029     13.648
REMARK  Name = 5742693
REMARK  6 active torsions:
REMARK  status: ('A' for Active; 'I' for Inactive)
REMARK    1  A    between atoms: O_2  and  C_12
REMARK    2  A    between atoms: O_3  and  C_15
REMARK    3  A    between atoms: O_4  and  C_17
REMARK    4  A    between atoms: O_5  and  C_19
REMARK    5  A    between atoms: O_6  and  C_22
REMARK    6  A    between atoms: C_9  and  C_10
REMARK                            x       y       z     vdW  Elec       q    Type
REMARK                         _______ _______ _______ _____ _____    ______ ____
ROOT
ATOM      1  C   UNL     1     112.423 127.911 136.657  0.00  0.00    +0.000 A 
ATOM      2  C   UNL     1     112.246 128.246 137.389  0.00  0.00    +0.000 A 
ATOM      3  C   UNL     1     112.271 128.332 135.962  0.00  0.00    +0.000 A 
ATOM      4  C   UNL     1     111.918 129.002 137.428  0.00  0.00    +0.000 A 
ATOM      5  C   UNL     1     111.943 129.088 136.002  0.00  0.00    +0.000 A 
ATOM      6  C   UNL     1     111.766 129.423 136.735  0.00  0.00    +0.000 A 
ENDROOT
BRANCH   1  10
ATOM      7  O   UNL     1     112.261 126.491 136.641  0.00  0.00    +0.000 OA
ATOM      8  O   UNL     1     114.578 124.778 136.430  0.00  0.00    +0.000 OA
ATOM      9  O   UNL     1     114.713 126.214 136.448  0.00  0.00    +0.000 OA
ATOM     10  C   UNL     1     112.751 127.155 136.616  0.00  0.00    +0.000 A 
ATOM     11  C   UNL     1     113.406 125.643 136.536  0.00  0.00    +0.000 A 
ATOM     12  C   UNL     1     112.589 125.736 136.601  0.00  0.00    +0.000 A 
ATOM     13  C   UNL     1     113.568 127.063 136.552  0.00  0.00    +0.000 A 
ATOM     14  C   UNL     1     113.895 126.306 136.512  0.00  0.00    +0.000 A 
ATOM     15  C   UNL     1     113.759 124.860 136.494  0.00  0.00    +0.000 A 
ATOM     16  C   UNL     1     112.068 125.052 136.627  0.00  0.00    +0.000 A 
ATOM     17  C   UNL     1     112.404 124.262 136.586  0.00  0.00    +0.000 A 
ATOM     18  C   UNL     1     113.255 124.166 136.519  0.00  0.00    +0.000 A 
BRANCH  17  19
ATOM     19  O   UNL     1     111.911 123.601 136.610  0.00  0.00    +0.000 OA
ATOM     20  C   UNL     1     111.908 123.114 137.277  0.00  0.00    +0.000 C 
ENDBRANCH  17  19
ENDBRANCH   1  10
BRANCH   2  21
ATOM     21  O   UNL     1     112.397 127.826 138.082  0.00  0.00    +0.000 OA
ATOM     22  C   UNL     1     112.803 128.187 138.703  0.00  0.00    +0.000 C 
ENDBRANCH   2  21
BRANCH   4  23
ATOM     23  O   UNL     1     111.741 129.338 138.161  0.00  0.00    +0.000 OA
ATOM     24  C   UNL     1     110.970 129.306 138.454  0.00  0.00    +0.000 C 
ENDBRANCH   4  23
BRANCH   5  25
ATOM     25  O   UNL     1     111.792 129.508 135.308  0.00  0.00    +0.000 OA
ATOM     26  C   UNL     1     111.611 129.105 134.612  0.00  0.00    +0.000 C 
ENDBRANCH   5  25
BRANCH   6  27
ATOM     27  O   UNL     1     111.438 130.179 136.774  0.00  0.00    +0.000 OA
ATOM     28  C   UNL     1     111.921 130.843 136.702  0.00  0.00    +0.000 C 
ENDBRANCH   6  27
TORSDOF 6
ENDMDL
MODEL 10
REMARK VINA RESULT:      -7.1     10.378     11.745
REMARK  Name = 5742693
REMARK  6 active torsions:
REMARK  status: ('A' for Active; 'I' for Inactive)
REMARK    1  A    between atoms: O_2  and  C_12
REMARK    2  A    between atoms: O_3  and  C_15
REMARK    3  A    between atoms: O_4  and  C_17
REMARK    4  A    between atoms: O_5  and  C_19
REMARK    5  A    between atoms: O_6  and  C_22
REMARK    6  A    between atoms: C_9  and  C_10
REMARK                            x       y       z     vdW  Elec       q    Type
REMARK                         _______ _______ _______ _____ _____    ______ ____
ROOT
ATOM      1  C   UNL     1     111.460 126.116 137.601  0.00  0.00    +0.000 A 
ATOM      2  C   UNL     1     111.231 126.756 137.133  0.00  0.00    +0.000 A 
ATOM      3  C   UNL     1     111.515 125.362 137.270  0.00  0.00    +0.000 A 
ATOM      4  C   UNL     1     111.055 126.642 136.335  0.00  0.00    +0.000 A 
ATOM      5  C   UNL     1     111.339 125.249 136.472  0.00  0.00    +0.000 A 
ATOM      6  C   UNL     1     111.109 125.889 136.004  0.00  0.00    +0.000 A 
ENDROOT
BRANCH   1  10
ATOM      7  O   UNL     1     112.381 126.505 138.621  0.00  0.00    +0.000 OA
ATOM      8  O   UNL     1     111.585 126.404 141.397  0.00  0.00    +0.000 OA
ATOM      9  O   UNL     1     110.675 126.017 140.347  0.00  0.00    +0.000 OA
ATOM     10  C   UNL     1     111.636 126.229 138.399  0.00  0.00    +0.000 A 
ATOM     11  C   UNL     1     111.988 126.456 139.995  0.00  0.00    +0.000 A 
ATOM     12  C   UNL     1     112.557 126.619 139.419  0.00  0.00    +0.000 A 
ATOM     13  C   UNL     1     111.067 126.067 138.974  0.00  0.00    +0.000 A 
ATOM     14  C   UNL     1     111.244 126.180 139.772  0.00  0.00    +0.000 A 
ATOM     15  C   UNL     1     112.160 126.570 140.829  0.00  0.00    +0.000 A 
ATOM     16  C   UNL     1     113.337 126.907 139.639  0.00  0.00    +0.000 A 
ATOM     17  C   UNL     1     113.526 127.026 140.468  0.00  0.00    +0.000 A 
ATOM     18  C   UNL     1     112.934 126.857 141.067  0.00  0.00    +0.000 A 
BRANCH  17  19
ATOM     19  O   UNL     1     114.272 127.303 140.688  0.00  0.00    +0.000 OA
ATOM     20  C   UNL     1     114.408 128.114 140.752  0.00  0.00    +0.000 C 
ENDBRANCH  17  19
ENDBRANCH   1  10
BRANCH   2  21
ATOM     21  O   UNL     1     111.177 127.509 137.464  0.00  0.00    +0.000 OA
ATOM     22  C   UNL     1     110.491 127.956 137.362  0.00  0.00    +0.000 C 
ENDBRANCH   2  21
BRANCH   4  23
ATOM     23  O   UNL     1     110.826 127.282 135.868  0.00  0.00    +0.000 OA
ATOM     24  C   UNL     1     111.383 127.676 135.405  0.00  0.00    +0.000 C 
ENDBRANCH   4  23
BRANCH   5  25
ATOM     25  O   UNL     1     111.393 124.494 136.140  0.00  0.00    +0.000 OA
ATOM     26  C   UNL     1     111.901 123.934 136.471  0.00  0.00    +0.000 C 
ENDBRANCH   5  25
BRANCH   6  27
ATOM     27  O   UNL     1     110.934 125.774 135.206  0.00  0.00    +0.000 OA
ATOM     28  C   UNL     1     110.187 125.507 134.982  0.00  0.00    +0.000 C 
ENDBRANCH   6  27
TORSDOF 6
ENDMDL
