MODEL 1
REMARK VINA RESULT:      -8.8      0.000      0.000
REMARK  Name = 10811599
REMARK  6 active torsions:
REMARK  status: ('A' for Active; 'I' for Inactive)
REMARK    1  A    between atoms: O_2  and  C_11
REMARK    2  A    between atoms: O_2  and  C_23
REMARK    3  A    between atoms: O_3  and  C_15
REMARK    4  A    between atoms: O_4  and  C_16
REMARK    5  A    between atoms: C_12  and  C_18
REMARK    6  A    between atoms: C_23  and  C_25
REMARK                            x       y       z     vdW  Elec       q    Type
REMARK                         _______ _______ _______ _____ _____    ______ ____
ROOT
ATOM      1  O   UNL     1     112.529 126.567 136.379  0.00  0.00    +0.000 OA
ATOM      2  O   UNL     1     109.895 125.897 135.381  0.00  0.00    +0.000 OA
ATOM      3  O   UNL     1     110.672 128.637 135.622  0.00  0.00    +0.000 OA
ATOM      4  O   UNL     1     110.796 124.831 135.750  0.00  0.00    +0.000 OA
ATOM      5  C   UNL     1     111.195 126.231 135.874  0.00  0.00    +0.000 A 
ATOM      6  C   UNL     1     111.758 126.798 136.078  0.00  0.00    +0.000 A 
ATOM      7  C   UNL     1     111.583 127.600 135.994  0.00  0.00    +0.000 A 
ATOM      8  C   UNL     1     112.716 125.733 136.469  0.00  0.00    +0.000 A 
ATOM      9  C   UNL     1     110.458 126.465 135.586  0.00  0.00    +0.000 A 
ATOM     10  C   UNL     1     111.364 125.393 135.956  0.00  0.00    +0.000 A 
ATOM     11  C   UNL     1     112.130 125.142 136.256  0.00  0.00    +0.000 A 
ATOM     12  C   UNL     1     110.285 127.267 135.502  0.00  0.00    +0.000 A 
ATOM     13  C   UNL     1     110.847 127.835 135.706  0.00  0.00    +0.000 A 
ENDROOT
BRANCH   8  14
ATOM     14  C   UNL     1     113.454 125.502 136.757  0.00  0.00    +0.000 A 
ATOM     15  C   UNL     1     113.590 125.479 137.570  0.00  0.00    +0.000 A 
ATOM     16  C   UNL     1     114.055 125.293 136.233  0.00  0.00    +0.000 A 
ATOM     17  C   UNL     1     114.327 125.248 137.860  0.00  0.00    +0.000 A 
ATOM     18  C   UNL     1     114.793 125.061 136.521  0.00  0.00    +0.000 A 
ATOM     19  C   UNL     1     114.929 125.038 137.335  0.00  0.00    +0.000 A 
ENDBRANCH   8  14
BRANCH  11  20
ATOM     20  O   UNL     1     112.301 124.339 136.339  0.00  0.00    +0.000 OA
ATOM     21  C   UNL     1     111.694 123.800 136.486  0.00  0.00    +0.000 C 
ENDBRANCH  11  20
BRANCH  12  22
ATOM     22  O   UNL     1     109.547 127.501 135.214  0.00  0.00    +0.000 OA
ATOM     23  C   UNL     1     108.944 127.700 135.740  0.00  0.00    +0.000 C 
ENDBRANCH  12  22
BRANCH   7  24
ATOM     24  O   UNL     1     112.146 128.168 136.199  0.00  0.00    +0.000 OA
BRANCH  24  26
ATOM     25  O   UNL     1     112.341 128.491 134.820  0.00  0.00    +0.000 OA
ATOM     26  C   UNL     1     112.574 128.556 135.610  0.00  0.00    +0.000 C 
BRANCH  26  27
ATOM     27  C   UNL     1     113.235 129.008 135.809  0.00  0.00    +0.000 C 
ATOM     28  C   UNL     1     113.238 129.448 136.506  0.00  0.00    +0.000 C 
ATOM     29  C   UNL     1     113.892 129.019 135.311  0.00  0.00    +0.000 C 
ATOM     30  C   UNL     1     114.553 129.471 135.510  0.00  0.00    +0.000 C 
ENDBRANCH  26  27
ENDBRANCH  24  26
ENDBRANCH   7  24
TORSDOF 6
ENDMDL
MODEL 2
REMARK VINA RESULT:      -8.1     12.978     14.176
REMARK  Name = 10811599
REMARK  6 active torsions:
REMARK  status: ('A' for Active; 'I' for Inactive)
REMARK    1  A    between atoms: O_2  and  C_11
REMARK    2  A    between atoms: O_2  and  C_23
REMARK    3  A    between atoms: O_3  and  C_15
REMARK    4  A    between atoms: O_4  and  C_16
REMARK    5  A    between atoms: C_12  and  C_18
REMARK    6  A    between atoms: C_23  and  C_25
REMARK                            x       y       z     vdW  Elec       q    Type
REMARK                         _______ _______ _______ _____ _____    ______ ____
ROOT
ATOM      1  O   UNL     1     103.685 124.403 147.233  0.00  0.00    +0.000 OA
ATOM      2  O   UNL     1     104.596 123.557 144.619  0.00  0.00    +0.000 OA
ATOM      3  O   UNL     1     106.261 125.224 146.238  0.00  0.00    +0.000 OA
ATOM      4  O   UNL     1     103.300 123.124 145.082  0.00  0.00    +0.000 OA
ATOM      5  C   UNL     1     104.148 123.976 145.911  0.00  0.00    +0.000 A 
ATOM      6  C   UNL     1     104.276 124.394 146.611  0.00  0.00    +0.000 A 
ATOM      7  C   UNL     1     104.981 124.810 146.719  0.00  0.00    +0.000 A 
ATOM      8  C   UNL     1     102.949 123.971 147.125  0.00  0.00    +0.000 A 
ATOM      9  C   UNL     1     104.725 123.975 145.319  0.00  0.00    +0.000 A 
ATOM     10  C   UNL     1     103.420 123.539 145.785  0.00  0.00    +0.000 A 
ATOM     11  C   UNL     1     102.815 123.537 146.397  0.00  0.00    +0.000 A 
ATOM     12  C   UNL     1     105.428 124.391 145.429  0.00  0.00    +0.000 A 
ATOM     13  C   UNL     1     105.556 124.808 146.129  0.00  0.00    +0.000 A 
ENDROOT
BRANCH   8  14
ATOM     14  C   UNL     1     102.375 123.975 147.718  0.00  0.00    +0.000 A 
ATOM     15  C   UNL     1     101.819 124.583 147.750  0.00  0.00    +0.000 A 
ATOM     16  C   UNL     1     102.356 123.370 148.278  0.00  0.00    +0.000 A 
ATOM     17  C   UNL     1     101.244 124.588 148.341  0.00  0.00    +0.000 A 
ATOM     18  C   UNL     1     101.782 123.373 148.870  0.00  0.00    +0.000 A 
ATOM     19  C   UNL     1     101.226 123.982 148.902  0.00  0.00    +0.000 A 
ENDBRANCH   8  14
BRANCH  11  20
ATOM     20  O   UNL     1     102.112 123.119 146.284  0.00  0.00    +0.000 OA
ATOM     21  C   UNL     1     101.901 122.862 145.529  0.00  0.00    +0.000 C 
ENDBRANCH  11  20
BRANCH  12  22
ATOM     22  O   UNL     1     106.005 124.389 144.838  0.00  0.00    +0.000 OA
ATOM     23  C   UNL     1     106.015 124.989 144.271  0.00  0.00    +0.000 C 
ENDBRANCH  12  22
BRANCH   7  24
ATOM     24  O   UNL     1     105.109 125.227 147.419  0.00  0.00    +0.000 OA
BRANCH  24  26
ATOM     25  O   UNL     1     106.077 124.260 147.831  0.00  0.00    +0.000 OA
ATOM     26  C   UNL     1     105.607 124.918 147.999  0.00  0.00    +0.000 C 
BRANCH  26  27
ATOM     27  C   UNL     1     105.637 125.266 148.747  0.00  0.00    +0.000 C 
ATOM     28  C   UNL     1     105.777 124.801 149.412  0.00  0.00    +0.000 C 
ATOM     29  C   UNL     1     105.525 126.080 148.827  0.00  0.00    +0.000 C 
ATOM     30  C   UNL     1     105.555 126.428 149.574  0.00  0.00    +0.000 C 
ENDBRANCH  26  27
ENDBRANCH  24  26
ENDBRANCH   7  24
TORSDOF 6
ENDMDL
MODEL 3
REMARK VINA RESULT:      -8.1      2.736      3.404
REMARK  Name = 10811599
REMARK  6 active torsions:
REMARK  status: ('A' for Active; 'I' for Inactive)
REMARK    1  A    between atoms: O_2  and  C_11
REMARK    2  A    between atoms: O_2  and  C_23
REMARK    3  A    between atoms: O_3  and  C_15
REMARK    4  A    between atoms: O_4  and  C_16
REMARK    5  A    between atoms: C_12  and  C_18
REMARK    6  A    between atoms: C_23  and  C_25
REMARK                            x       y       z     vdW  Elec       q    Type
REMARK                         _______ _______ _______ _____ _____    ______ ____
ROOT
ATOM      1  O   UNL     1     112.287 125.825 138.347  0.00  0.00    +0.000 OA
ATOM      2  O   UNL     1     109.438 126.153 137.951  0.00  0.00    +0.000 OA
ATOM      3  O   UNL     1     110.585 126.644 140.523  0.00  0.00    +0.000 OA
ATOM      4  O   UNL     1     110.257 125.742 136.836  0.00  0.00    +0.000 OA
ATOM      5  C   UNL     1     110.845 125.992 138.149  0.00  0.00    +0.000 A 
ATOM      6  C   UNL     1     111.505 126.020 138.644  0.00  0.00    +0.000 A 
ATOM      7  C   UNL     1     111.418 126.237 139.435  0.00  0.00    +0.000 A 
ATOM      8  C   UNL     1     112.384 125.598 137.523  0.00  0.00    +0.000 A 
ATOM      9  C   UNL     1     110.098 126.181 138.446  0.00  0.00    +0.000 A 
ATOM     10  C   UNL     1     110.922 125.767 137.324  0.00  0.00    +0.000 A 
ATOM     11  C   UNL     1     111.697 125.569 137.009  0.00  0.00    +0.000 A 
ATOM     12  C   UNL     1     110.012 126.398 139.237  0.00  0.00    +0.000 A 
ATOM     13  C   UNL     1     110.672 126.426 139.732  0.00  0.00    +0.000 A 
ENDROOT
BRANCH   8  14
ATOM     14  C   UNL     1     113.131 125.410 137.230  0.00  0.00    +0.000 A 
ATOM     15  C   UNL     1     113.426 124.643 137.313  0.00  0.00    +0.000 A 
ATOM     16  C   UNL     1     113.584 125.986 136.852  0.00  0.00    +0.000 A 
ATOM     17  C   UNL     1     114.173 124.454 137.019  0.00  0.00    +0.000 A 
ATOM     18  C   UNL     1     114.332 125.798 136.558  0.00  0.00    +0.000 A 
ATOM     19  C   UNL     1     114.626 125.031 136.642  0.00  0.00    +0.000 A 
ENDBRANCH   8  14
BRANCH  11  20
ATOM     20  O   UNL     1     111.780 125.352 136.216  0.00  0.00    +0.000 OA
ATOM     21  C   UNL     1     111.113 125.167 135.767  0.00  0.00    +0.000 C 
ENDBRANCH  11  20
BRANCH  12  22
ATOM     22  O   UNL     1     109.265 126.587 139.534  0.00  0.00    +0.000 OA
ATOM     23  C   UNL     1     108.844 126.031 139.974  0.00  0.00    +0.000 C 
ENDBRANCH  12  22
BRANCH   7  24
ATOM     24  O   UNL     1     112.077 126.265 139.930  0.00  0.00    +0.000 OA
BRANCH  24  26
ATOM     25  O   UNL     1     112.083 127.692 139.842  0.00  0.00    +0.000 OA
ATOM     26  C   UNL     1     112.416 126.992 140.126  0.00  0.00    +0.000 C 
BRANCH  26  27
ATOM     27  C   UNL     1     113.086 127.019 140.606  0.00  0.00    +0.000 C 
ATOM     28  C   UNL     1     113.029 126.821 141.405  0.00  0.00    +0.000 C 
ATOM     29  C   UNL     1     113.813 127.244 140.287  0.00  0.00    +0.000 C 
ATOM     30  C   UNL     1     114.483 127.271 140.767  0.00  0.00    +0.000 C 
ENDBRANCH  26  27
ENDBRANCH  24  26
ENDBRANCH   7  24
TORSDOF 6
ENDMDL
MODEL 4
REMARK VINA RESULT:      -7.9      2.359      3.432
REMARK  Name = 10811599
REMARK  6 active torsions:
REMARK  status: ('A' for Active; 'I' for Inactive)
REMARK    1  A    between atoms: O_2  and  C_11
REMARK    2  A    between atoms: O_2  and  C_23
REMARK    3  A    between atoms: O_3  and  C_15
REMARK    4  A    between atoms: O_4  and  C_16
REMARK    5  A    between atoms: C_12  and  C_18
REMARK    6  A    between atoms: C_23  and  C_25
REMARK                            x       y       z     vdW  Elec       q    Type
REMARK                         _______ _______ _______ _____ _____    ______ ____
ROOT
ATOM      1  O   UNL     1     111.910 125.996 137.631  0.00  0.00    +0.000 OA
ATOM      2  O   UNL     1     110.869 126.724 140.233  0.00  0.00    +0.000 OA
ATOM      3  O   UNL     1     109.082 126.381 138.029  0.00  0.00    +0.000 OA
ATOM      4  O   UNL     1     112.292 126.541 140.074  0.00  0.00    +0.000 OA
ATOM      5  C   UNL     1     111.381 126.365 138.947  0.00  0.00    +0.000 A 
ATOM      6  C   UNL     1     111.253 126.188 138.151  0.00  0.00    +0.000 A 
ATOM      7  C   UNL     1     110.487 126.193 137.846  0.00  0.00    +0.000 A 
ATOM      8  C   UNL     1     112.710 125.989 137.944  0.00  0.00    +0.000 A 
ATOM      9  C   UNL     1     110.742 126.547 139.437  0.00  0.00    +0.000 A 
ATOM     10  C   UNL     1     112.173 126.363 139.277  0.00  0.00    +0.000 A 
ATOM     11  C   UNL     1     112.843 126.174 138.773  0.00  0.00    +0.000 A 
ATOM     12  C   UNL     1     109.976 126.552 139.130  0.00  0.00    +0.000 A 
ATOM     13  C   UNL     1     109.848 126.375 138.335  0.00  0.00    +0.000 A 
ENDROOT
BRANCH   8  14
ATOM     14  C   UNL     1     113.347 125.807 137.452  0.00  0.00    +0.000 A 
ATOM     15  C   UNL     1     113.709 126.401 137.009  0.00  0.00    +0.000 A 
ATOM     16  C   UNL     1     113.622 125.031 137.403  0.00  0.00    +0.000 A 
ATOM     17  C   UNL     1     114.346 126.220 136.517  0.00  0.00    +0.000 A 
ATOM     18  C   UNL     1     114.259 124.848 136.912  0.00  0.00    +0.000 A 
ATOM     19  C   UNL     1     114.621 125.442 136.468  0.00  0.00    +0.000 A 
ENDBRANCH   8  14
BRANCH  11  20
ATOM     20  O   UNL     1     113.608 126.169 139.082  0.00  0.00    +0.000 OA
ATOM     21  C   UNL     1     113.796 126.650 139.726  0.00  0.00    +0.000 C 
ENDBRANCH  11  20
BRANCH  12  22
ATOM     22  O   UNL     1     109.337 126.735 139.620  0.00  0.00    +0.000 OA
ATOM     23  C   UNL     1     108.936 126.132 140.015  0.00  0.00    +0.000 C 
ENDBRANCH  12  22
BRANCH   7  24
ATOM     24  O   UNL     1     110.359 126.016 137.050  0.00  0.00    +0.000 OA
BRANCH  24  26
ATOM     25  O   UNL     1     110.058 127.387 136.780  0.00  0.00    +0.000 OA
ATOM     26  C   UNL     1     110.215 126.623 136.510  0.00  0.00    +0.000 C 
BRANCH  26  27
ATOM     27  C   UNL     1     110.229 126.466 135.700  0.00  0.00    +0.000 C 
ATOM     28  C   UNL     1     110.437 127.062 135.169  0.00  0.00    +0.000 C 
ATOM     29  C   UNL     1     110.034 125.714 135.422  0.00  0.00    +0.000 C 
ATOM     30  C   UNL     1     110.048 125.558 134.612  0.00  0.00    +0.000 C 
ENDBRANCH  26  27
ENDBRANCH  24  26
ENDBRANCH   7  24
TORSDOF 6
ENDMDL
MODEL 5
REMARK VINA RESULT:      -7.9      1.772      3.159
REMARK  Name = 10811599
REMARK  6 active torsions:
REMARK  status: ('A' for Active; 'I' for Inactive)
REMARK    1  A    between atoms: O_2  and  C_11
REMARK    2  A    between atoms: O_2  and  C_23
REMARK    3  A    between atoms: O_3  and  C_15
REMARK    4  A    between atoms: O_4  and  C_16
REMARK    5  A    between atoms: C_12  and  C_18
REMARK    6  A    between atoms: C_23  and  C_25
REMARK                            x       y       z     vdW  Elec       q    Type
REMARK                         _______ _______ _______ _____ _____    ______ ____
ROOT
ATOM      1  O   UNL     1     112.447 126.962 137.072  0.00  0.00    +0.000 OA
ATOM      2  O   UNL     1     112.001 128.910 139.165  0.00  0.00    +0.000 OA
ATOM      3  O   UNL     1     110.515 129.072 136.730  0.00  0.00    +0.000 OA
ATOM      4  O   UNL     1     112.978 127.869 139.375  0.00  0.00    +0.000 OA
ATOM      5  C   UNL     1     112.219 127.949 138.130  0.00  0.00    +0.000 A 
ATOM      6  C   UNL     1     112.045 127.656 137.379  0.00  0.00    +0.000 A 
ATOM      7  C   UNL     1     111.476 128.030 136.912  0.00  0.00    +0.000 A 
ATOM      8  C   UNL     1     113.040 126.568 137.553  0.00  0.00    +0.000 A 
ATOM      9  C   UNL     1     111.826 128.617 138.414  0.00  0.00    +0.000 A 
ATOM     10  C   UNL     1     112.809 127.569 138.626  0.00  0.00    +0.000 A 
ATOM     11  C   UNL     1     113.222 126.873 138.335  0.00  0.00    +0.000 A 
ATOM     12  C   UNL     1     111.258 128.990 137.947  0.00  0.00    +0.000 A 
ATOM     13  C   UNL     1     111.083 128.697 137.196  0.00  0.00    +0.000 A 
ENDROOT
BRANCH   8  14
ATOM     14  C   UNL     1     113.432 125.901 137.267  0.00  0.00    +0.000 A 
ATOM     15  C   UNL     1     114.134 125.985 136.842  0.00  0.00    +0.000 A 
ATOM     16  C   UNL     1     113.122 125.149 137.404  0.00  0.00    +0.000 A 
ATOM     17  C   UNL     1     114.527 125.319 136.555  0.00  0.00    +0.000 A 
ATOM     18  C   UNL     1     113.514 124.482 137.118  0.00  0.00    +0.000 A 
ATOM     19  C   UNL     1     114.216 124.567 136.693  0.00  0.00    +0.000 A 
ENDBRANCH   8  14
BRANCH  11  20
ATOM     20  O   UNL     1     113.790 126.502 138.805  0.00  0.00    +0.000 OA
ATOM     21  C   UNL     1     113.819 126.653 139.616  0.00  0.00    +0.000 C 
ENDBRANCH  11  20
BRANCH  12  22
ATOM     22  O   UNL     1     110.864 129.658 138.232  0.00  0.00    +0.000 OA
ATOM     23  C   UNL     1     111.135 130.412 138.032  0.00  0.00    +0.000 C 
ENDBRANCH  12  22
BRANCH   7  24
ATOM     24  O   UNL     1     111.301 127.737 136.161  0.00  0.00    +0.000 OA
BRANCH  24  26
ATOM     25  O   UNL     1     110.037 127.263 136.630  0.00  0.00    +0.000 OA
ATOM     26  C   UNL     1     110.612 127.301 136.039  0.00  0.00    +0.000 C 
BRANCH  26  27
ATOM     27  C   UNL     1     110.497 126.902 135.326  0.00  0.00    +0.000 C 
ATOM     28  C   UNL     1     110.707 127.262 134.614  0.00  0.00    +0.000 C 
ATOM     29  C   UNL     1     110.172 126.144 135.325  0.00  0.00    +0.000 C 
ATOM     30  C   UNL     1     110.057 125.745 134.612  0.00  0.00    +0.000 C 
ENDBRANCH  26  27
ENDBRANCH  24  26
ENDBRANCH   7  24
TORSDOF 6
ENDMDL
MODEL 6
REMARK VINA RESULT:      -7.8      0.752      3.518
REMARK  Name = 10811599
REMARK  6 active torsions:
REMARK  status: ('A' for Active; 'I' for Inactive)
REMARK    1  A    between atoms: O_2  and  C_11
REMARK    2  A    between atoms: O_2  and  C_23
REMARK    3  A    between atoms: O_3  and  C_15
REMARK    4  A    between atoms: O_4  and  C_16
REMARK    5  A    between atoms: C_12  and  C_18
REMARK    6  A    between atoms: C_23  and  C_25
REMARK                            x       y       z     vdW  Elec       q    Type
REMARK                         _______ _______ _______ _____ _____    ______ ____
ROOT
ATOM      1  O   UNL     1     112.529 127.718 135.890  0.00  0.00    +0.000 OA
ATOM      2  O   UNL     1     109.684 127.550 135.384  0.00  0.00    +0.000 OA
ATOM      3  O   UNL     1     111.198 125.164 135.813  0.00  0.00    +0.000 OA
ATOM      4  O   UNL     1     110.313 128.849 135.415  0.00  0.00    +0.000 OA
ATOM      5  C   UNL     1     111.089 127.631 135.634  0.00  0.00    +0.000 A 
ATOM      6  C   UNL     1     111.810 127.260 135.789  0.00  0.00    +0.000 A 
ATOM      7  C   UNL     1     111.845 126.438 135.848  0.00  0.00    +0.000 A 
ATOM      8  C   UNL     1     112.497 128.576 135.829  0.00  0.00    +0.000 A 
ATOM      9  C   UNL     1     110.404 127.179 135.539  0.00  0.00    +0.000 A 
ATOM     10  C   UNL     1     111.038 128.486 135.570  0.00  0.00    +0.000 A 
ATOM     11  C   UNL     1     111.747 128.962 135.668  0.00  0.00    +0.000 A 
ATOM     12  C   UNL     1     110.441 126.358 135.598  0.00  0.00    +0.000 A 
ATOM     13  C   UNL     1     111.162 125.987 135.753  0.00  0.00    +0.000 A 
ENDROOT
BRANCH   8  14
ATOM     14  C   UNL     1     113.183 129.024 135.925  0.00  0.00    +0.000 A 
ATOM     15  C   UNL     1     113.380 129.323 136.668  0.00  0.00    +0.000 A 
ATOM     16  C   UNL     1     113.672 129.175 135.278  0.00  0.00    +0.000 A 
ATOM     17  C   UNL     1     114.065 129.771 136.765  0.00  0.00    +0.000 A 
ATOM     18  C   UNL     1     114.357 129.624 135.374  0.00  0.00    +0.000 A 
ATOM     19  C   UNL     1     114.554 129.922 136.117  0.00  0.00    +0.000 A 
ENDBRANCH   8  14
BRANCH  11  20
ATOM     20  O   UNL     1     111.707 129.784 135.608  0.00  0.00    +0.000 OA
ATOM     21  C   UNL     1     110.985 130.171 135.704  0.00  0.00    +0.000 C 
ENDBRANCH  11  20
BRANCH  12  22
ATOM     22  O   UNL     1     109.757 125.906 135.503  0.00  0.00    +0.000 OA
ATOM     23  C   UNL     1     109.546 125.631 134.754  0.00  0.00    +0.000 C 
ENDBRANCH  12  22
BRANCH   7  24
ATOM     24  O   UNL     1     112.566 126.067 136.003  0.00  0.00    +0.000 OA
BRANCH  24  26
ATOM     25  O   UNL     1     112.143 125.798 137.341  0.00  0.00    +0.000 OA
ATOM     26  C   UNL     1     112.728 125.778 136.759  0.00  0.00    +0.000 C 
BRANCH  26  27
ATOM     27  C   UNL     1     113.473 125.470 136.932  0.00  0.00    +0.000 C 
ATOM     28  C   UNL     1     113.870 125.012 136.373  0.00  0.00    +0.000 C 
ATOM     29  C   UNL     1     113.821 125.621 137.665  0.00  0.00    +0.000 C 
ATOM     30  C   UNL     1     114.566 125.313 137.839  0.00  0.00    +0.000 C 
ENDBRANCH  26  27
ENDBRANCH  24  26
ENDBRANCH   7  24
TORSDOF 6
ENDMDL
MODEL 7
REMARK VINA RESULT:      -7.8      1.997      4.172
REMARK  Name = 10811599
REMARK  6 active torsions:
REMARK  status: ('A' for Active; 'I' for Inactive)
REMARK    1  A    between atoms: O_2  and  C_11
REMARK    2  A    between atoms: O_2  and  C_23
REMARK    3  A    between atoms: O_3  and  C_15
REMARK    4  A    between atoms: O_4  and  C_16
REMARK    5  A    between atoms: C_12  and  C_18
REMARK    6  A    between atoms: C_23  and  C_25
REMARK                            x       y       z     vdW  Elec       q    Type
REMARK                         _______ _______ _______ _____ _____    ______ ____
ROOT
ATOM      1  O   UNL     1     112.664 127.621 137.081  0.00  0.00    +0.000 OA
ATOM      2  O   UNL     1     111.170 128.104 139.513  0.00  0.00    +0.000 OA
ATOM      3  O   UNL     1     111.832 125.429 138.755  0.00  0.00    +0.000 OA
ATOM      4  O   UNL     1     111.569 129.229 138.702  0.00  0.00    +0.000 OA
ATOM      5  C   UNL     1     111.908 127.863 138.312  0.00  0.00    +0.000 A 
ATOM      6  C   UNL     1     112.264 127.337 137.786  0.00  0.00    +0.000 A 
ATOM      7  C   UNL     1     112.239 126.525 137.934  0.00  0.00    +0.000 A 
ATOM      8  C   UNL     1     112.694 128.466 136.922  0.00  0.00    +0.000 A 
ATOM      9  C   UNL     1     111.526 127.578 138.986  0.00  0.00    +0.000 A 
ATOM     10  C   UNL     1     111.927 128.710 138.170  0.00  0.00    +0.000 A 
ATOM     11  C   UNL     1     112.323 129.013 137.470  0.00  0.00    +0.000 A 
ATOM     12  C   UNL     1     111.501 126.766 139.133  0.00  0.00    +0.000 A 
ATOM     13  C   UNL     1     111.858 126.240 138.607  0.00  0.00    +0.000 A 
ENDROOT
BRANCH   8  14
ATOM     14  C   UNL     1     113.076 128.748 136.248  0.00  0.00    +0.000 A 
ATOM     15  C   UNL     1     112.666 128.804 135.534  0.00  0.00    +0.000 A 
ATOM     16  C   UNL     1     113.868 128.975 136.286  0.00  0.00    +0.000 A 
ATOM     17  C   UNL     1     113.047 129.086 134.859  0.00  0.00    +0.000 A 
ATOM     18  C   UNL     1     114.250 129.257 135.612  0.00  0.00    +0.000 A 
ATOM     19  C   UNL     1     113.840 129.313 134.898  0.00  0.00    +0.000 A 
ENDBRANCH   8  14
BRANCH  11  20
ATOM     20  O   UNL     1     112.347 129.826 137.326  0.00  0.00    +0.000 OA
ATOM     21  C   UNL     1     111.820 130.329 137.712  0.00  0.00    +0.000 C 
ENDBRANCH  11  20
BRANCH  12  22
ATOM     22  O   UNL     1     111.120 126.481 139.807  0.00  0.00    +0.000 OA
ATOM     23  C   UNL     1     110.333 126.235 139.762  0.00  0.00    +0.000 C 
ENDBRANCH  12  22
BRANCH   7  24
ATOM     24  O   UNL     1     112.595 125.999 137.408  0.00  0.00    +0.000 OA
BRANCH  24  26
ATOM     25  O   UNL     1     113.646 125.760 138.346  0.00  0.00    +0.000 OA
ATOM     26  C   UNL     1     113.325 125.662 137.591  0.00  0.00    +0.000 C 
BRANCH  26  27
ATOM     27  C   UNL     1     113.734 125.228 137.022  0.00  0.00    +0.000 C 
ATOM     28  C   UNL     1     113.340 124.655 136.579  0.00  0.00    +0.000 C 
ATOM     29  C   UNL     1     114.538 125.367 136.896  0.00  0.00    +0.000 C 
ATOM     30  C   UNL     1     114.947 124.932 136.327  0.00  0.00    +0.000 C 
ENDBRANCH  26  27
ENDBRANCH  24  26
ENDBRANCH   7  24
TORSDOF 6
ENDMDL
MODEL 8
REMARK VINA RESULT:      -7.8     13.131     14.436
REMARK  Name = 10811599
REMARK  6 active torsions:
REMARK  status: ('A' for Active; 'I' for Inactive)
REMARK    1  A    between atoms: O_2  and  C_11
REMARK    2  A    between atoms: O_2  and  C_23
REMARK    3  A    between atoms: O_3  and  C_15
REMARK    4  A    between atoms: O_4  and  C_16
REMARK    5  A    between atoms: C_12  and  C_18
REMARK    6  A    between atoms: C_23  and  C_25
REMARK                            x       y       z     vdW  Elec       q    Type
REMARK                         _______ _______ _______ _____ _____    ______ ____
ROOT
ATOM      1  O   UNL     1     103.447 124.439 147.240  0.00  0.00    +0.000 OA
ATOM      2  O   UNL     1     105.975 124.371 145.833  0.00  0.00    +0.000 OA
ATOM      3  O   UNL     1     105.657 126.071 148.108  0.00  0.00    +0.000 OA
ATOM      4  O   UNL     1     104.893 123.539 145.367  0.00  0.00    +0.000 OA
ATOM      5  C   UNL     1     104.728 124.406 146.530  0.00  0.00    +0.000 A 
ATOM      6  C   UNL     1     104.259 124.701 147.141  0.00  0.00    +0.000 A 
ATOM      7  C   UNL     1     104.569 125.256 147.667  0.00  0.00    +0.000 A 
ATOM      8  C   UNL     1     103.119 123.861 146.695  0.00  0.00    +0.000 A 
ATOM      9  C   UNL     1     105.507 124.666 146.445  0.00  0.00    +0.000 A 
ATOM     10  C   UNL     1     104.417 123.828 145.976  0.00  0.00    +0.000 A 
ATOM     11  C   UNL     1     103.607 123.553 146.059  0.00  0.00    +0.000 A 
ATOM     12  C   UNL     1     105.815 125.221 146.971  0.00  0.00    +0.000 A 
ATOM     13  C   UNL     1     105.346 125.516 147.582  0.00  0.00    +0.000 A 
ENDROOT
BRANCH   8  14
ATOM     14  C   UNL     1     102.340 123.602 146.783  0.00  0.00    +0.000 A 
ATOM     15  C   UNL     1     101.738 123.950 146.338  0.00  0.00    +0.000 A 
ATOM     16  C   UNL     1     102.163 122.997 147.314  0.00  0.00    +0.000 A 
ATOM     17  C   UNL     1     100.959 123.693 146.425  0.00  0.00    +0.000 A 
ATOM     18  C   UNL     1     101.384 122.739 147.402  0.00  0.00    +0.000 A 
ATOM     19  C   UNL     1     100.782 123.086 146.957  0.00  0.00    +0.000 A 
ENDBRANCH   8  14
BRANCH  11  20
ATOM     20  O   UNL     1     103.300 122.998 145.530  0.00  0.00    +0.000 OA
ATOM     21  C   UNL     1     103.735 122.778 144.864  0.00  0.00    +0.000 C 
ENDBRANCH  11  20
BRANCH  12  22
ATOM     22  O   UNL     1     106.594 125.481 146.886  0.00  0.00    +0.000 OA
ATOM     23  C   UNL     1     107.180 125.202 147.395  0.00  0.00    +0.000 C 
ENDBRANCH  12  22
BRANCH   7  24
ATOM     24  O   UNL     1     104.100 125.551 148.279  0.00  0.00    +0.000 OA
BRANCH  24  26
ATOM     25  O   UNL     1     104.008 126.818 147.623  0.00  0.00    +0.000 OA
ATOM     26  C   UNL     1     103.752 126.296 148.210  0.00  0.00    +0.000 C 
BRANCH  26  27
ATOM     27  C   UNL     1     103.149 126.520 148.727  0.00  0.00    +0.000 C 
ATOM     28  C   UNL     1     103.148 126.243 149.503  0.00  0.00    +0.000 C 
ATOM     29  C   UNL     1     102.548 127.021 148.466  0.00  0.00    +0.000 C 
ATOM     30  C   UNL     1     101.945 127.245 148.983  0.00  0.00    +0.000 C 
ENDBRANCH  26  27
ENDBRANCH  24  26
ENDBRANCH   7  24
TORSDOF 6
ENDMDL
