MODEL 1
REMARK VINA RESULT:      -8.2      0.000      0.000
REMARK  Name = 44260021
REMARK  7 active torsions:
REMARK  status: ('A' for Active; 'I' for Inactive)
REMARK    1  A    between atoms: O_2  and  C_13
REMARK    2  A    between atoms: O_2  and  C_25
REMARK    3  A    between atoms: O_3  and  C_16
REMARK    4  A    between atoms: O_7  and  C_22
REMARK    5  A    between atoms: O_8  and  C_23
REMARK    6  A    between atoms: C_12  and  C_14
REMARK    7  A    between atoms: C_25  and  C_26
REMARK                            x       y       z     vdW  Elec       q    Type
REMARK                         _______ _______ _______ _____ _____    ______ ____
ROOT
ATOM      1  O   UNL     1     111.518 127.508 135.776  0.00  0.00    +0.000 OA
ATOM      2  O   UNL     1     111.133 124.644 135.737  0.00  0.00    +0.000 OA
ATOM      3  O   UNL     1     112.359 125.225 136.228  0.00  0.00    +0.000 OA
ATOM      4  O   UNL     1     109.016 126.409 134.770  0.00  0.00    +0.000 OA
ATOM      5  C   UNL     1     111.327 126.093 135.756  0.00  0.00    +0.000 A 
ATOM      6  C   UNL     1     111.046 126.853 135.606  0.00  0.00    +0.000 A 
ATOM      7  C   UNL     1     112.271 127.401 136.097  0.00  0.00    +0.000 A 
ATOM      8  C   UNL     1     112.551 126.641 136.248  0.00  0.00    +0.000 A 
ATOM      9  C   UNL     1     112.079 125.986 136.077  0.00  0.00    +0.000 A 
ATOM     10  C   UNL     1     110.264 126.977 135.271  0.00  0.00    +0.000 A 
ATOM     11  C   UNL     1     110.844 125.402 135.583  0.00  0.00    +0.000 A 
ATOM     12  C   UNL     1     109.768 126.299 135.092  0.00  0.00    +0.000 A 
ATOM     13  C   UNL     1     110.060 125.506 135.249  0.00  0.00    +0.000 A 
ENDROOT
BRANCH   7  14
ATOM     14  C   UNL     1     112.742 128.057 136.267  0.00  0.00    +0.000 A 
ATOM     15  C   UNL     1     112.615 128.489 136.958  0.00  0.00    +0.000 A 
ATOM     16  C   UNL     1     113.342 128.280 135.745  0.00  0.00    +0.000 A 
ATOM     17  C   UNL     1     113.088 129.144 137.127  0.00  0.00    +0.000 A 
ATOM     18  C   UNL     1     113.686 129.367 136.606  0.00  0.00    +0.000 A 
ATOM     19  C   UNL     1     113.813 128.935 135.915  0.00  0.00    +0.000 A 
BRANCH  17  20
ATOM     20  O   UNL     1     112.960 129.577 137.819  0.00  0.00    +0.000 OA
ATOM     21  C   UNL     1     112.285 129.441 138.272  0.00  0.00    +0.000 C 
ENDBRANCH  17  20
BRANCH  18  22
ATOM     22  O   UNL     1     114.159 130.022 136.775  0.00  0.00    +0.000 OA
ATOM     23  C   UNL     1     114.707 130.289 136.221  0.00  0.00    +0.000 C 
ENDBRANCH  18  22
ENDBRANCH   7  14
BRANCH  10  24
ATOM     24  O   UNL     1     109.992 127.742 135.124  0.00  0.00    +0.000 OA
ATOM     25  C   UNL     1     109.270 127.990 135.437  0.00  0.00    +0.000 C 
ENDBRANCH  10  24
BRANCH   8  26
ATOM     26  O   UNL     1     113.303 126.534 136.569  0.00  0.00    +0.000 OA
BRANCH  26  28
ATOM     27  O   UNL     1     112.780 125.896 137.735  0.00  0.00    +0.000 OA
ATOM     28  C   UNL     1     113.408 126.038 137.220  0.00  0.00    +0.000 C 
BRANCH  28  29
ATOM     29  C   UNL     1     114.141 125.685 137.355  0.00  0.00    +0.000 C 
ATOM     30  C   UNL     1     114.559 125.348 136.729  0.00  0.00    +0.000 C 
ATOM     31  C   UNL     1     114.457 125.669 138.118  0.00  0.00    +0.000 C 
ATOM     32  C   UNL     1     114.039 126.007 138.744  0.00  0.00    +0.000 C 
ENDBRANCH  28  29
ENDBRANCH  26  28
ENDBRANCH   8  26
TORSDOF 7
ENDMDL
MODEL 2
REMARK VINA RESULT:      -7.9      1.618      2.441
REMARK  Name = 44260021
REMARK  7 active torsions:
REMARK  status: ('A' for Active; 'I' for Inactive)
REMARK    1  A    between atoms: O_2  and  C_13
REMARK    2  A    between atoms: O_2  and  C_25
REMARK    3  A    between atoms: O_3  and  C_16
REMARK    4  A    between atoms: O_7  and  C_22
REMARK    5  A    between atoms: O_8  and  C_23
REMARK    6  A    between atoms: C_12  and  C_14
REMARK    7  A    between atoms: C_25  and  C_26
REMARK                            x       y       z     vdW  Elec       q    Type
REMARK                         _______ _______ _______ _____ _____    ______ ____
ROOT
ATOM      1  O   UNL     1     110.679 127.015 137.494  0.00  0.00    +0.000 OA
ATOM      2  O   UNL     1     110.157 125.362 135.183  0.00  0.00    +0.000 OA
ATOM      3  O   UNL     1     111.292 125.112 136.037  0.00  0.00    +0.000 OA
ATOM      4  O   UNL     1     108.366 127.581 135.817  0.00  0.00    +0.000 OA
ATOM      5  C   UNL     1     110.420 126.199 136.351  0.00  0.00    +0.000 A 
ATOM      6  C   UNL     1     110.215 126.833 136.837  0.00  0.00    +0.000 A 
ATOM      7  C   UNL     1     111.348 126.563 137.666  0.00  0.00    +0.000 A 
ATOM      8  C   UNL     1     111.552 125.929 137.180  0.00  0.00    +0.000 A 
ATOM      9  C   UNL     1     111.088 125.746 136.522  0.00  0.00    +0.000 A 
ATOM     10  C   UNL     1     109.521 127.312 136.669  0.00  0.00    +0.000 A 
ATOM     11  C   UNL     1     109.944 125.998 135.663  0.00  0.00    +0.000 A 
ATOM     12  C   UNL     1     109.034 127.127 135.986  0.00  0.00    +0.000 A 
ATOM     13  C   UNL     1     109.247 126.465 135.479  0.00  0.00    +0.000 A 
ENDROOT
BRANCH   7  14
ATOM     14  C   UNL     1     111.811 126.746 138.323  0.00  0.00    +0.000 A 
ATOM     15  C   UNL     1     112.338 127.380 138.294  0.00  0.00    +0.000 A 
ATOM     16  C   UNL     1     111.747 126.294 139.011  0.00  0.00    +0.000 A 
ATOM     17  C   UNL     1     112.801 127.561 138.952  0.00  0.00    +0.000 A 
ATOM     18  C   UNL     1     112.737 127.110 139.639  0.00  0.00    +0.000 A 
ATOM     19  C   UNL     1     112.210 126.477 139.669  0.00  0.00    +0.000 A 
BRANCH  17  20
ATOM     20  O   UNL     1     113.329 128.196 138.922  0.00  0.00    +0.000 OA
ATOM     21  C   UNL     1     113.214 128.802 138.376  0.00  0.00    +0.000 C 
ENDBRANCH  17  20
BRANCH  18  22
ATOM     22  O   UNL     1     113.200 127.292 140.297  0.00  0.00    +0.000 OA
ATOM     23  C   UNL     1     113.114 126.861 140.995  0.00  0.00    +0.000 C 
ENDBRANCH  18  22
ENDBRANCH   7  14
BRANCH  10  24
ATOM     24  O   UNL     1     109.324 127.945 137.161  0.00  0.00    +0.000 OA
ATOM     25  C   UNL     1     109.246 128.702 136.844  0.00  0.00    +0.000 C 
ENDBRANCH  10  24
BRANCH   8  26
ATOM     26  O   UNL     1     112.220 125.476 137.351  0.00  0.00    +0.000 OA
BRANCH  26  28
ATOM     27  O   UNL     1     112.864 125.853 136.133  0.00  0.00    +0.000 OA
ATOM     28  C   UNL     1     112.781 125.329 136.764  0.00  0.00    +0.000 C 
BRANCH  28  29
ATOM     29  C   UNL     1     113.258 124.657 136.809  0.00  0.00    +0.000 C 
ATOM     30  C   UNL     1     112.923 123.924 136.981  0.00  0.00    +0.000 C 
ATOM     31  C   UNL     1     114.071 124.720 136.682  0.00  0.00    +0.000 C 
ATOM     32  C   UNL     1     114.406 125.455 136.510  0.00  0.00    +0.000 C 
ENDBRANCH  28  29
ENDBRANCH  26  28
ENDBRANCH   8  26
TORSDOF 7
ENDMDL
MODEL 3
REMARK VINA RESULT:      -7.9      1.026      3.112
REMARK  Name = 44260021
REMARK  7 active torsions:
REMARK  status: ('A' for Active; 'I' for Inactive)
REMARK    1  A    between atoms: O_2  and  C_13
REMARK    2  A    between atoms: O_2  and  C_25
REMARK    3  A    between atoms: O_3  and  C_16
REMARK    4  A    between atoms: O_7  and  C_22
REMARK    5  A    between atoms: O_8  and  C_23
REMARK    6  A    between atoms: C_12  and  C_14
REMARK    7  A    between atoms: C_25  and  C_26
REMARK                            x       y       z     vdW  Elec       q    Type
REMARK                         _______ _______ _______ _____ _____    ______ ____
ROOT
ATOM      1  O   UNL     1     112.946 126.370 136.812  0.00  0.00    +0.000 OA
ATOM      2  O   UNL     1     110.894 124.678 135.682  0.00  0.00    +0.000 OA
ATOM      3  O   UNL     1     110.845 126.111 135.528  0.00  0.00    +0.000 OA
ATOM      4  O   UNL     1     113.110 123.484 137.164  0.00  0.00    +0.000 OA
ATOM      5  C   UNL     1     111.932 125.532 136.254  0.00  0.00    +0.000 A 
ATOM      6  C   UNL     1     112.631 125.619 136.682  0.00  0.00    +0.000 A 
ATOM      7  C   UNL     1     112.559 127.036 136.514  0.00  0.00    +0.000 A 
ATOM      8  C   UNL     1     111.860 126.950 136.087  0.00  0.00    +0.000 A 
ATOM      9  C   UNL     1     111.545 126.197 135.956  0.00  0.00    +0.000 A 
ATOM     10  C   UNL     1     113.043 124.933 136.997  0.00  0.00    +0.000 A 
ATOM     11  C   UNL     1     111.594 124.754 136.111  0.00  0.00    +0.000 A 
ATOM     12  C   UNL     1     112.721 124.148 136.865  0.00  0.00    +0.000 A 
ATOM     13  C   UNL     1     111.992 124.058 136.419  0.00  0.00    +0.000 A 
ENDROOT
BRANCH   7  14
ATOM     14  C   UNL     1     112.873 127.787 136.645  0.00  0.00    +0.000 A 
ATOM     15  C   UNL     1     112.769 128.158 137.374  0.00  0.00    +0.000 A 
ATOM     16  C   UNL     1     113.293 128.168 136.044  0.00  0.00    +0.000 A 
ATOM     17  C   UNL     1     113.084 128.909 137.504  0.00  0.00    +0.000 A 
ATOM     18  C   UNL     1     113.503 129.290 136.904  0.00  0.00    +0.000 A 
ATOM     19  C   UNL     1     113.607 128.920 136.175  0.00  0.00    +0.000 A 
BRANCH  17  20
ATOM     20  O   UNL     1     112.979 129.280 138.234  0.00  0.00    +0.000 OA
ATOM     21  C   UNL     1     112.697 128.850 138.878  0.00  0.00    +0.000 C 
ENDBRANCH  17  20
BRANCH  18  22
ATOM     22  O   UNL     1     113.818 130.042 137.034  0.00  0.00    +0.000 OA
ATOM     23  C   UNL     1     114.232 130.425 136.433  0.00  0.00    +0.000 C 
ENDBRANCH  18  22
ENDBRANCH   7  14
BRANCH  10  24
ATOM     24  O   UNL     1     113.743 125.029 137.424  0.00  0.00    +0.000 OA
ATOM     25  C   UNL     1     114.419 124.610 137.205  0.00  0.00    +0.000 C 
ENDBRANCH  10  24
BRANCH   8  26
ATOM     26  O   UNL     1     111.473 127.615 135.789  0.00  0.00    +0.000 OA
BRANCH  26  28
ATOM     27  O   UNL     1     110.314 127.364 136.585  0.00  0.00    +0.000 OA
ATOM     28  C   UNL     1     110.669 127.724 135.934  0.00  0.00    +0.000 C 
BRANCH  28  29
ATOM     29  C   UNL     1     110.219 128.195 135.427  0.00  0.00    +0.000 C 
ATOM     30  C   UNL     1     110.343 128.161 134.613  0.00  0.00    +0.000 C 
ATOM     31  C   UNL     1     109.643 128.701 135.735  0.00  0.00    +0.000 C 
ATOM     32  C   UNL     1     109.519 128.735 136.550  0.00  0.00    +0.000 C 
ENDBRANCH  28  29
ENDBRANCH  26  28
ENDBRANCH   8  26
TORSDOF 7
ENDMDL
MODEL 4
REMARK VINA RESULT:      -7.8      2.029      4.030
REMARK  Name = 44260021
REMARK  7 active torsions:
REMARK  status: ('A' for Active; 'I' for Inactive)
REMARK    1  A    between atoms: O_2  and  C_13
REMARK    2  A    between atoms: O_2  and  C_25
REMARK    3  A    between atoms: O_3  and  C_16
REMARK    4  A    between atoms: O_7  and  C_22
REMARK    5  A    between atoms: O_8  and  C_23
REMARK    6  A    between atoms: C_12  and  C_14
REMARK    7  A    between atoms: C_25  and  C_26
REMARK                            x       y       z     vdW  Elec       q    Type
REMARK                         _______ _______ _______ _____ _____    ______ ____
ROOT
ATOM      1  O   UNL     1     113.127 128.643 138.090  0.00  0.00    +0.000 OA
ATOM      2  O   UNL     1     113.839 128.484 135.294  0.00  0.00    +0.000 OA
ATOM      3  O   UNL     1     113.448 127.307 136.031  0.00  0.00    +0.000 OA
ATOM      4  O   UNL     1     113.908 131.061 136.667  0.00  0.00    +0.000 OA
ATOM      5  C   UNL     1     113.479 128.566 136.708  0.00  0.00    +0.000 A 
ATOM      6  C   UNL     1     113.372 129.010 137.394  0.00  0.00    +0.000 A 
ATOM      7  C   UNL     1     112.988 127.829 138.100  0.00  0.00    +0.000 A 
ATOM      8  C   UNL     1     113.095 127.384 137.414  0.00  0.00    +0.000 A 
ATOM      9  C   UNL     1     113.341 127.752 136.717  0.00  0.00    +0.000 A 
ATOM     10  C   UNL     1     113.514 129.859 137.397  0.00  0.00    +0.000 A 
ATOM     11  C   UNL     1     113.735 128.937 135.976  0.00  0.00    +0.000 A 
ATOM     12  C   UNL     1     113.770 130.247 136.675  0.00  0.00    +0.000 A 
ATOM     13  C   UNL     1     113.881 129.783 135.959  0.00  0.00    +0.000 A 
ENDROOT
BRANCH   7  14
ATOM     14  C   UNL     1     112.742 127.462 138.796  0.00  0.00    +0.000 A 
ATOM     15  C   UNL     1     113.290 127.290 139.388  0.00  0.00    +0.000 A 
ATOM     16  C   UNL     1     111.947 127.266 138.900  0.00  0.00    +0.000 A 
ATOM     17  C   UNL     1     113.043 126.922 140.085  0.00  0.00    +0.000 A 
ATOM     18  C   UNL     1     112.249 126.727 140.189  0.00  0.00    +0.000 A 
ATOM     19  C   UNL     1     111.701 126.898 139.597  0.00  0.00    +0.000 A 
BRANCH  17  20
ATOM     20  O   UNL     1     113.592 126.750 140.677  0.00  0.00    +0.000 OA
ATOM     21  C   UNL     1     114.330 127.117 140.674  0.00  0.00    +0.000 C 
ENDBRANCH  17  20
BRANCH  18  22
ATOM     22  O   UNL     1     112.002 126.359 140.885  0.00  0.00    +0.000 OA
ATOM     23  C   UNL     1     111.202 126.342 141.082  0.00  0.00    +0.000 C 
ENDBRANCH  18  22
ENDBRANCH   7  14
BRANCH  10  24
ATOM     24  O   UNL     1     113.404 130.296 138.088  0.00  0.00    +0.000 OA
ATOM     25  C   UNL     1     114.024 130.747 138.392  0.00  0.00    +0.000 C 
ENDBRANCH  10  24
BRANCH   8  26
ATOM     26  O   UNL     1     112.956 126.571 137.424  0.00  0.00    +0.000 OA
BRANCH  26  28
ATOM     27  O   UNL     1     114.310 126.286 137.071  0.00  0.00    +0.000 OA
ATOM     28  C   UNL     1     113.522 126.052 137.121  0.00  0.00    +0.000 C 
BRANCH  28  29
ATOM     29  C   UNL     1     113.297 125.299 136.870  0.00  0.00    +0.000 C 
ATOM     30  C   UNL     1     112.583 125.192 136.472  0.00  0.00    +0.000 C 
ATOM     31  C   UNL     1     113.789 124.652 137.016  0.00  0.00    +0.000 C 
ATOM     32  C   UNL     1     114.504 124.759 137.414  0.00  0.00    +0.000 C 
ENDBRANCH  28  29
ENDBRANCH  26  28
ENDBRANCH   8  26
TORSDOF 7
ENDMDL
MODEL 5
REMARK VINA RESULT:      -7.6      1.473      3.211
REMARK  Name = 44260021
REMARK  7 active torsions:
REMARK  status: ('A' for Active; 'I' for Inactive)
REMARK    1  A    between atoms: O_2  and  C_13
REMARK    2  A    between atoms: O_2  and  C_25
REMARK    3  A    between atoms: O_3  and  C_16
REMARK    4  A    between atoms: O_7  and  C_22
REMARK    5  A    between atoms: O_8  and  C_23
REMARK    6  A    between atoms: C_12  and  C_14
REMARK    7  A    between atoms: C_25  and  C_26
REMARK                            x       y       z     vdW  Elec       q    Type
REMARK                         _______ _______ _______ _____ _____    ______ ____
ROOT
ATOM      1  O   UNL     1     110.986 127.762 136.415  0.00  0.00    +0.000 OA
ATOM      2  O   UNL     1     110.448 129.955 134.612  0.00  0.00    +0.000 OA
ATOM      3  O   UNL     1     111.800 129.572 134.937  0.00  0.00    +0.000 OA
ATOM      4  O   UNL     1     108.229 128.477 135.806  0.00  0.00    +0.000 OA
ATOM      5  C   UNL     1     110.719 128.845 135.524  0.00  0.00    +0.000 A 
ATOM      6  C   UNL     1     110.447 128.243 136.016  0.00  0.00    +0.000 A 
ATOM      7  C   UNL     1     111.797 127.884 136.321  0.00  0.00    +0.000 A 
ATOM      8  C   UNL     1     112.068 128.487 135.829  0.00  0.00    +0.000 A 
ATOM      9  C   UNL     1     111.529 128.968 135.430  0.00  0.00    +0.000 A 
ATOM     10  C   UNL     1     109.605 128.104 136.123  0.00  0.00    +0.000 A 
ATOM     11  C   UNL     1     110.167 129.354 135.103  0.00  0.00    +0.000 A 
ATOM     12  C   UNL     1     109.039 128.602 135.710  0.00  0.00    +0.000 A 
ATOM     13  C   UNL     1     109.322 129.231 135.196  0.00  0.00    +0.000 A 
ENDROOT
BRANCH   7  14
ATOM     14  C   UNL     1     112.335 127.403 136.720  0.00  0.00    +0.000 A 
ATOM     15  C   UNL     1     112.498 127.539 137.517  0.00  0.00    +0.000 A 
ATOM     16  C   UNL     1     112.710 126.785 136.321  0.00  0.00    +0.000 A 
ATOM     17  C   UNL     1     113.037 127.056 137.915  0.00  0.00    +0.000 A 
ATOM     18  C   UNL     1     113.412 126.440 137.517  0.00  0.00    +0.000 A 
ATOM     19  C   UNL     1     113.248 126.304 136.720  0.00  0.00    +0.000 A 
BRANCH  17  20
ATOM     20  O   UNL     1     113.200 127.192 138.714  0.00  0.00    +0.000 OA
ATOM     21  C   UNL     1     112.753 127.739 139.138  0.00  0.00    +0.000 C 
ENDBRANCH  17  20
BRANCH  18  22
ATOM     22  O   UNL     1     113.950 125.958 137.915  0.00  0.00    +0.000 OA
ATOM     23  C   UNL     1     114.318 125.335 137.519  0.00  0.00    +0.000 C 
ENDBRANCH  18  22
ENDBRANCH   7  14
BRANCH  10  24
ATOM     24  O   UNL     1     109.343 127.499 136.617  0.00  0.00    +0.000 OA
ATOM     25  C   UNL     1     108.841 126.914 136.322  0.00  0.00    +0.000 C 
ENDBRANCH  10  24
BRANCH   8  26
ATOM     26  O   UNL     1     112.878 128.610 135.735  0.00  0.00    +0.000 OA
BRANCH  26  28
ATOM     27  O   UNL     1     112.791 129.929 136.275  0.00  0.00    +0.000 OA
ATOM     28  C   UNL     1     113.195 129.366 135.828  0.00  0.00    +0.000 C 
BRANCH  28  29
ATOM     29  C   UNL     1     113.915 129.558 135.474  0.00  0.00    +0.000 C 
ATOM     30  C   UNL     1     114.089 129.284 134.717  0.00  0.00    +0.000 C 
ATOM     31  C   UNL     1     114.463 130.024 135.880  0.00  0.00    +0.000 C 
ATOM     32  C   UNL     1     114.288 130.299 136.639  0.00  0.00    +0.000 C 
ENDBRANCH  28  29
ENDBRANCH  26  28
ENDBRANCH   8  26
TORSDOF 7
ENDMDL
MODEL 6
REMARK VINA RESULT:      -7.6      2.188      4.304
REMARK  Name = 44260021
REMARK  7 active torsions:
REMARK  status: ('A' for Active; 'I' for Inactive)
REMARK    1  A    between atoms: O_2  and  C_13
REMARK    2  A    between atoms: O_2  and  C_25
REMARK    3  A    between atoms: O_3  and  C_16
REMARK    4  A    between atoms: O_7  and  C_22
REMARK    5  A    between atoms: O_8  and  C_23
REMARK    6  A    between atoms: C_12  and  C_14
REMARK    7  A    between atoms: C_25  and  C_26
REMARK                            x       y       z     vdW  Elec       q    Type
REMARK                         _______ _______ _______ _____ _____    ______ ____
ROOT
ATOM      1  O   UNL     1     111.726 126.253 138.583  0.00  0.00    +0.000 OA
ATOM      2  O   UNL     1     109.359 127.899 138.376  0.00  0.00    +0.000 OA
ATOM      3  O   UNL     1     110.099 127.507 137.202  0.00  0.00    +0.000 OA
ATOM      4  O   UNL     1     110.283 127.004 140.999  0.00  0.00    +0.000 OA
ATOM      5  C   UNL     1     110.556 127.067 138.482  0.00  0.00    +0.000 A 
ATOM      6  C   UNL     1     111.097 126.649 138.942  0.00  0.00    +0.000 A 
ATOM      7  C   UNL     1     111.812 126.276 137.762  0.00  0.00    +0.000 A 
ATOM      8  C   UNL     1     111.270 126.693 137.302  0.00  0.00    +0.000 A 
ATOM      9  C   UNL     1     110.641 127.089 137.662  0.00  0.00    +0.000 A 
ATOM     10  C   UNL     1     111.019 126.618 139.798  0.00  0.00    +0.000 A 
ATOM     11  C   UNL     1     109.897 127.483 138.845  0.00  0.00    +0.000 A 
ATOM     12  C   UNL     1     110.367 127.028 140.179  0.00  0.00    +0.000 A 
ATOM     13  C   UNL     1     109.802 127.464 139.699  0.00  0.00    +0.000 A 
ENDROOT
BRANCH   7  14
ATOM     14  C   UNL     1     112.440 125.880 137.403  0.00  0.00    +0.000 A 
ATOM     15  C   UNL     1     112.399 125.065 137.281  0.00  0.00    +0.000 A 
ATOM     16  C   UNL     1     113.110 126.300 137.166  0.00  0.00    +0.000 A 
ATOM     17  C   UNL     1     113.028 124.670 136.921  0.00  0.00    +0.000 A 
ATOM     18  C   UNL     1     113.697 125.089 136.685  0.00  0.00    +0.000 A 
ATOM     19  C   UNL     1     113.738 125.904 136.807  0.00  0.00    +0.000 A 
BRANCH  17  20
ATOM     20  O   UNL     1     112.987 123.854 136.798  0.00  0.00    +0.000 OA
ATOM     21  C   UNL     1     112.319 123.435 137.038  0.00  0.00    +0.000 C 
ENDBRANCH  17  20
BRANCH  18  22
ATOM     22  O   UNL     1     114.326 124.694 136.325  0.00  0.00    +0.000 OA
ATOM     23  C   UNL     1     115.011 125.106 136.123  0.00  0.00    +0.000 C 
ENDBRANCH  18  22
ENDBRANCH   7  14
BRANCH  10  24
ATOM     24  O   UNL     1     111.566 126.198 140.251  0.00  0.00    +0.000 OA
ATOM     25  C   UNL     1     111.958 126.570 140.874  0.00  0.00    +0.000 C 
ENDBRANCH  10  24
BRANCH   8  26
ATOM     26  O   UNL     1     111.355 126.716 136.482  0.00  0.00    +0.000 OA
BRANCH  26  28
ATOM     27  O   UNL     1     110.095 126.075 136.282  0.00  0.00    +0.000 OA
ATOM     28  C   UNL     1     110.714 126.537 135.995  0.00  0.00    +0.000 C 
BRANCH  28  29
ATOM     29  C   UNL     1     110.693 126.821 135.220  0.00  0.00    +0.000 C 
ATOM     30  C   UNL     1     110.958 127.583 135.053  0.00  0.00    +0.000 C 
ATOM     31  C   UNL     1     110.407 126.340 134.613  0.00  0.00    +0.000 C 
ATOM     32  C   UNL     1     110.143 125.577 134.781  0.00  0.00    +0.000 C 
ENDBRANCH  28  29
ENDBRANCH  26  28
ENDBRANCH   8  26
TORSDOF 7
ENDMDL
MODEL 7
REMARK VINA RESULT:      -7.6      1.753      4.028
REMARK  Name = 44260021
REMARK  7 active torsions:
REMARK  status: ('A' for Active; 'I' for Inactive)
REMARK    1  A    between atoms: O_2  and  C_13
REMARK    2  A    between atoms: O_2  and  C_25
REMARK    3  A    between atoms: O_3  and  C_16
REMARK    4  A    between atoms: O_7  and  C_22
REMARK    5  A    between atoms: O_8  and  C_23
REMARK    6  A    between atoms: C_12  and  C_14
REMARK    7  A    between atoms: C_25  and  C_26
REMARK                            x       y       z     vdW  Elec       q    Type
REMARK                         _______ _______ _______ _____ _____    ______ ____
ROOT
ATOM      1  O   UNL     1     113.086 128.444 138.446  0.00  0.00    +0.000 OA
ATOM      2  O   UNL     1     113.826 126.527 140.478  0.00  0.00    +0.000 OA
ATOM      3  O   UNL     1     113.453 126.100 139.152  0.00  0.00    +0.000 OA
ATOM      4  O   UNL     1     113.827 129.380 141.102  0.00  0.00    +0.000 OA
ATOM      5  C   UNL     1     113.452 127.497 139.451  0.00  0.00    +0.000 A 
ATOM      6  C   UNL     1     113.330 128.278 139.216  0.00  0.00    +0.000 A 
ATOM      7  C   UNL     1     112.965 127.827 137.910  0.00  0.00    +0.000 A 
ATOM      8  C   UNL     1     113.087 127.047 138.145  0.00  0.00    +0.000 A 
ATOM      9  C   UNL     1     113.331 126.881 138.916  0.00  0.00    +0.000 A 
ATOM     10  C   UNL     1     113.453 128.929 139.765  0.00  0.00    +0.000 A 
ATOM     11  C   UNL     1     113.706 127.311 140.252  0.00  0.00    +0.000 A 
ATOM     12  C   UNL     1     113.707 128.763 140.569  0.00  0.00    +0.000 A 
ATOM     13  C   UNL     1     113.834 127.948 140.814  0.00  0.00    +0.000 A 
ENDROOT
BRANCH   7  14
ATOM     14  C   UNL     1     112.721 127.993 137.140  0.00  0.00    +0.000 A 
ATOM     15  C   UNL     1     113.268 128.255 136.581  0.00  0.00    +0.000 A 
ATOM     16  C   UNL     1     111.928 127.898 136.929  0.00  0.00    +0.000 A 
ATOM     17  C   UNL     1     113.023 128.420 135.810  0.00  0.00    +0.000 A 
ATOM     18  C   UNL     1     112.232 128.325 135.599  0.00  0.00    +0.000 A 
ATOM     19  C   UNL     1     111.685 128.064 136.159  0.00  0.00    +0.000 A 
BRANCH  17  20
ATOM     20  O   UNL     1     113.571 128.682 135.251  0.00  0.00    +0.000 OA
ATOM     21  C   UNL     1     114.312 128.950 135.493  0.00  0.00    +0.000 C 
ENDBRANCH  17  20
BRANCH  18  22
ATOM     22  O   UNL     1     111.987 128.491 134.829  0.00  0.00    +0.000 OA
ATOM     23  C   UNL     1     111.200 128.377 134.612  0.00  0.00    +0.000 C 
ENDBRANCH  18  22
ENDBRANCH   7  14
BRANCH  10  24
ATOM     24  O   UNL     1     113.328 129.707 139.521  0.00  0.00    +0.000 OA
ATOM     25  C   UNL     1     113.922 130.270 139.620  0.00  0.00    +0.000 C 
ENDBRANCH  10  24
BRANCH   8  26
ATOM     26  O   UNL     1     112.966 126.431 137.610  0.00  0.00    +0.000 OA
BRANCH  26  28
ATOM     27  O   UNL     1     114.331 126.022 137.705  0.00  0.00    +0.000 OA
ATOM     28  C   UNL     1     113.549 125.858 137.500  0.00  0.00    +0.000 C 
BRANCH  28  29
ATOM     29  C   UNL     1     113.350 125.122 137.186  0.00  0.00    +0.000 C 
ATOM     30  C   UNL     1     112.634 124.767 137.386  0.00  0.00    +0.000 C 
ATOM     31  C   UNL     1     113.870 124.741 136.669  0.00  0.00    +0.000 C 
ATOM     32  C   UNL     1     114.587 125.096 136.468  0.00  0.00    +0.000 C 
ENDBRANCH  28  29
ENDBRANCH  26  28
ENDBRANCH   8  26
TORSDOF 7
ENDMDL
MODEL 8
REMARK VINA RESULT:      -5.7      1.525      3.225
REMARK  Name = 44260021
REMARK  7 active torsions:
REMARK  status: ('A' for Active; 'I' for Inactive)
REMARK    1  A    between atoms: O_2  and  C_13
REMARK    2  A    between atoms: O_2  and  C_25
REMARK    3  A    between atoms: O_3  and  C_16
REMARK    4  A    between atoms: O_7  and  C_22
REMARK    5  A    between atoms: O_8  and  C_23
REMARK    6  A    between atoms: C_12  and  C_14
REMARK    7  A    between atoms: C_25  and  C_26
REMARK                            x       y       z     vdW  Elec       q    Type
REMARK                         _______ _______ _______ _____ _____    ______ ____
ROOT
ATOM      1  O   UNL     1     111.781 127.081 136.397  0.00  0.00    +0.000 OA
ATOM      2  O   UNL     1     114.494 126.100 136.560  0.00  0.00    +0.000 OA
ATOM      3  O   UNL     1     114.212 127.436 136.096  0.00  0.00    +0.000 OA
ATOM      4  O   UNL     1     112.274 124.371 137.343  0.00  0.00    +0.000 OA
ATOM      5  C   UNL     1     113.122 126.595 136.478  0.00  0.00    +0.000 A 
ATOM      6  C   UNL     1     112.312 126.477 136.578  0.00  0.00    +0.000 A 
ATOM      7  C   UNL     1     112.061 127.805 136.115  0.00  0.00    +0.000 A 
ATOM      8  C   UNL     1     112.870 127.923 136.015  0.00  0.00    +0.000 A 
ATOM      9  C   UNL     1     113.402 127.318 136.197  0.00  0.00    +0.000 A 
ATOM     10  C   UNL     1     112.008 125.727 136.871  0.00  0.00    +0.000 A 
ATOM     11  C   UNL     1     113.686 125.972 136.664  0.00  0.00    +0.000 A 
ATOM     12  C   UNL     1     112.556 125.094 137.062  0.00  0.00    +0.000 A 
ATOM     13  C   UNL     1     113.401 125.217 136.957  0.00  0.00    +0.000 A 
ENDROOT
BRANCH   7  14
ATOM     14  C   UNL     1     111.530 128.409 135.934  0.00  0.00    +0.000 A 
ATOM     15  C   UNL     1     111.200 128.864 136.538  0.00  0.00    +0.000 A 
ATOM     16  C   UNL     1     111.328 128.559 135.147  0.00  0.00    +0.000 A 
ATOM     17  C   UNL     1     110.668 129.468 136.355  0.00  0.00    +0.000 A 
ATOM     18  C   UNL     1     110.467 129.618 135.570  0.00  0.00    +0.000 A 
ATOM     19  C   UNL     1     110.797 129.163 134.966  0.00  0.00    +0.000 A 
BRANCH  17  20
ATOM     20  O   UNL     1     110.338 129.924 136.960  0.00  0.00    +0.000 OA
ATOM     21  C   UNL     1     110.473 129.722 137.748  0.00  0.00    +0.000 C 
ENDBRANCH  17  20
BRANCH  18  22
ATOM     22  O   UNL     1     109.936 130.222 135.387  0.00  0.00    +0.000 OA
ATOM     23  C   UNL     1     109.673 130.321 134.612  0.00  0.00    +0.000 C 
ENDBRANCH  18  22
ENDBRANCH   7  14
BRANCH  10  24
ATOM     24  O   UNL     1     111.196 125.618 136.968  0.00  0.00    +0.000 OA
ATOM     25  C   UNL     1     110.899 125.369 137.696  0.00  0.00    +0.000 C 
ENDBRANCH  10  24
BRANCH   8  26
ATOM     26  O   UNL     1     113.150 128.646 135.734  0.00  0.00    +0.000 OA
BRANCH  26  28
ATOM     27  O   UNL     1     113.860 128.913 136.944  0.00  0.00    +0.000 OA
ATOM     28  C   UNL     1     113.751 129.042 136.137  0.00  0.00    +0.000 C 
BRANCH  28  29
ATOM     29  C   UNL     1     114.243 129.567 135.733  0.00  0.00    +0.000 C 
ATOM     30  C   UNL     1     114.522 129.376 134.981  0.00  0.00    +0.000 C 
ATOM     31  C   UNL     1     114.455 130.285 136.082  0.00  0.00    +0.000 C 
ATOM     32  C   UNL     1     114.176 130.476 136.834  0.00  0.00    +0.000 C 
ENDBRANCH  28  29
ENDBRANCH  26  28
ENDBRANCH   8  26
TORSDOF 7
ENDMDL
