MODEL 1
REMARK VINA RESULT:     -10.5      0.000      0.000
REMARK  Name = 42607945
REMARK  11 active torsions:
REMARK  status: ('A' for Active; 'I' for Inactive)
REMARK    1  A    between atoms: O_2  and  C_19
REMARK    2  A    between atoms: O_2  and  C_30
REMARK    3  A    between atoms: O_3  and  C_23
REMARK    4  A    between atoms: O_3  and  C_25
REMARK    5  A    between atoms: O_6  and  C_24
REMARK    6  A    between atoms: O_6  and  C_39
REMARK    7  A    between atoms: O_12  and  C_49
REMARK    8  A    between atoms: C_21  and  C_24
REMARK    9  A    between atoms: C_30  and  C_38
REMARK   10  A    between atoms: C_31  and  C_37
REMARK   11  A    between atoms: C_39  and  C_42
REMARK                            x       y       z     vdW  Elec       q    Type
REMARK                         _______ _______ _______ _____ _____    ______ ____
ROOT
ATOM      1  O   UNL     1     112.733 128.363 139.360  0.00  0.00    +0.000 OA
ATOM      2  O   UNL     1     113.098 126.067 138.510  0.00  0.00    +0.000 OA
ATOM      3  O   UNL     1     114.019 126.643 139.752  0.00  0.00    +0.000 OA
ATOM      4  C   UNL     1     112.394 127.309 138.455  0.00  0.00    +0.000 C 
ATOM      5  C   UNL     1     112.976 126.832 138.793  0.00  0.00    +0.000 C 
ATOM      6  C   UNL     1     112.272 128.074 138.738  0.00  0.00    +0.000 C 
ATOM      7  C   UNL     1     113.437 127.120 139.414  0.00  0.00    +0.000 C 
ATOM      8  C   UNL     1     113.315 127.885 139.697  0.00  0.00    +0.000 C 
ENDROOT
BRANCH   4   9
ATOM      9  O   UNL     1     111.934 127.021 137.835  0.00  0.00    +0.000 OA
BRANCH   9  11
ATOM     10  O   UNL     1     113.028 127.211 136.934  0.00  0.00    +0.000 OA
ATOM     11  C   UNL     1     112.255 126.961 137.077  0.00  0.00    +0.000 C 
BRANCH  11  15
ATOM     12  O   UNL     1     110.735 127.341 134.686  0.00  0.00    +0.000 OA
ATOM     13  O   UNL     1     111.059 124.717 135.771  0.00  0.00    +0.000 OA
ATOM     14  O   UNL     1     110.445 125.719 134.613  0.00  0.00    +0.000 OA
ATOM     15  C   UNL     1     111.802 126.650 136.460  0.00  0.00    +0.000 A 
ATOM     16  C   UNL     1     111.657 125.839 136.424  0.00  0.00    +0.000 A 
ATOM     17  C   UNL     1     111.495 127.151 135.881  0.00  0.00    +0.000 A 
ATOM     18  C   UNL     1     111.043 126.841 135.265  0.00  0.00    +0.000 A 
ATOM     19  C   UNL     1     111.205 125.529 135.808  0.00  0.00    +0.000 A 
ATOM     20  C   UNL     1     110.897 126.030 135.229  0.00  0.00    +0.000 A 
ENDBRANCH  11  15
ENDBRANCH   9  11
ENDBRANCH   4   9
BRANCH   8  21
ATOM     21  O   UNL     1     113.776 128.174 140.319  0.00  0.00    +0.000 OA
BRANCH  21  25
ATOM     22  O   UNL     1     112.135 129.179 142.463  0.00  0.00    +0.000 OA
ATOM     23  O   UNL     1     113.788 130.971 140.903  0.00  0.00    +0.000 OA
ATOM     24  O   UNL     1     112.981 131.514 141.968  0.00  0.00    +0.000 OA
ATOM     25  C   UNL     1     113.508 128.810 140.770  0.00  0.00    +0.000 A 
ATOM     26  C   UNL     1     112.967 128.685 141.379  0.00  0.00    +0.000 A 
ATOM     27  C   UNL     1     113.782 129.572 140.610  0.00  0.00    +0.000 A 
ATOM     28  C   UNL     1     112.699 129.322 141.830  0.00  0.00    +0.000 A 
ATOM     29  C   UNL     1     112.973 130.084 141.672  0.00  0.00    +0.000 A 
ATOM     30  C   UNL     1     111.852 129.838 142.936  0.00  0.00    +0.000 C 
ATOM     31  C   UNL     1     113.515 130.209 141.061  0.00  0.00    +0.000 A 
ATOM     32  C   UNL     1     112.138 130.631 142.770  0.00  0.00    +0.000 C 
ATOM     33  C   UNL     1     112.702 130.756 142.134  0.00  0.00    +0.000 C 
ATOM     34  C   UNL     1     112.693 127.923 141.538  0.00  0.00    +0.000 C 
ATOM     35  C   UNL     1     114.323 129.697 140.001  0.00  0.00    +0.000 C 
BRANCH  30  36
ATOM     36  C   UNL     1     111.311 129.710 143.546  0.00  0.00    +0.000 A 
ATOM     37  C   UNL     1     110.503 129.683 143.381  0.00  0.00    +0.000 A 
ATOM     38  C   UNL     1     111.578 129.609 144.320  0.00  0.00    +0.000 A 
ATOM     39  C   UNL     1     109.963 129.555 143.990  0.00  0.00    +0.000 A 
ATOM     40  C   UNL     1     111.037 129.481 144.929  0.00  0.00    +0.000 A 
ATOM     41  C   UNL     1     110.229 129.454 144.764  0.00  0.00    +0.000 A 
BRANCH  41  42
ATOM     42  O   UNL     1     109.687 129.326 145.374  0.00  0.00    +0.000 OA
ATOM     43  C   UNL     1     108.897 129.542 145.275  0.00  0.00    +0.000 C 
ENDBRANCH  41  42
ENDBRANCH  30  36
ENDBRANCH  21  25
ENDBRANCH   8  21
BRANCH   6  44
ATOM     44  C   UNL     1     111.691 128.552 138.401  0.00  0.00    +0.000 C 
BRANCH  44  45
ATOM     45  O   UNL     1     111.114 128.899 138.877  0.00  0.00    +0.000 OA
BRANCH  45  47
ATOM     46  O   UNL     1     110.715 129.745 137.797  0.00  0.00    +0.000 OA
ATOM     47  C   UNL     1     110.675 129.538 138.594  0.00  0.00    +0.000 C 
BRANCH  47  51
ATOM     48  O   UNL     1     110.120 131.947 140.027  0.00  0.00    +0.000 OA
ATOM     49  O   UNL     1     108.351 129.714 140.248  0.00  0.00    +0.000 OA
ATOM     50  O   UNL     1     108.756 131.262 140.652  0.00  0.00    +0.000 OA
ATOM     51  C   UNL     1     110.195 129.969 139.108  0.00  0.00    +0.000 A 
ATOM     52  C   UNL     1     109.512 129.626 139.421  0.00  0.00    +0.000 A 
ATOM     53  C   UNL     1     110.397 130.743 139.310  0.00  0.00    +0.000 A 
ATOM     54  C   UNL     1     109.917 131.174 139.825  0.00  0.00    +0.000 A 
ATOM     55  C   UNL     1     109.033 130.057 139.936  0.00  0.00    +0.000 A 
ATOM     56  C   UNL     1     109.236 130.831 140.137  0.00  0.00    +0.000 A 
ENDBRANCH  47  51
ENDBRANCH  45  47
ENDBRANCH  44  45
ENDBRANCH   6  44
TORSDOF 11
ENDMDL
MODEL 2
REMARK VINA RESULT:     -10.2      1.743      6.515
REMARK  Name = 42607945
REMARK  11 active torsions:
REMARK  status: ('A' for Active; 'I' for Inactive)
REMARK    1  A    between atoms: O_2  and  C_19
REMARK    2  A    between atoms: O_2  and  C_30
REMARK    3  A    between atoms: O_3  and  C_23
REMARK    4  A    between atoms: O_3  and  C_25
REMARK    5  A    between atoms: O_6  and  C_24
REMARK    6  A    between atoms: O_6  and  C_39
REMARK    7  A    between atoms: O_12  and  C_49
REMARK    8  A    between atoms: C_21  and  C_24
REMARK    9  A    between atoms: C_30  and  C_38
REMARK   10  A    between atoms: C_31  and  C_37
REMARK   11  A    between atoms: C_39  and  C_42
REMARK                            x       y       z     vdW  Elec       q    Type
REMARK                         _______ _______ _______ _____ _____    ______ ____
ROOT
ATOM      1  O   UNL     1     112.008 128.116 140.788  0.00  0.00    +0.000 OA
ATOM      2  O   UNL     1     110.762 128.468 142.898  0.00  0.00    +0.000 OA
ATOM      3  O   UNL     1     111.018 126.938 142.337  0.00  0.00    +0.000 OA
ATOM      4  C   UNL     1     111.465 128.999 141.772  0.00  0.00    +0.000 C 
ATOM      5  C   UNL     1     111.177 128.351 142.195  0.00  0.00    +0.000 C 
ATOM      6  C   UNL     1     111.880 128.882 141.069  0.00  0.00    +0.000 C 
ATOM      7  C   UNL     1     111.305 127.586 141.914  0.00  0.00    +0.000 C 
ATOM      8  C   UNL     1     111.721 127.469 141.211  0.00  0.00    +0.000 C 
ENDROOT
BRANCH   4   9
ATOM      9  O   UNL     1     111.337 129.764 142.053  0.00  0.00    +0.000 OA
BRANCH   9  11
ATOM     10  O   UNL     1     112.362 129.578 143.030  0.00  0.00    +0.000 OA
ATOM     11  C   UNL     1     111.773 130.047 142.693  0.00  0.00    +0.000 C 
BRANCH  11  15
ATOM     12  O   UNL     1     110.020 131.871 144.023  0.00  0.00    +0.000 OA
ATOM     13  O   UNL     1     112.612 132.735 143.183  0.00  0.00    +0.000 OA
ATOM     14  O   UNL     1     111.164 133.055 143.906  0.00  0.00    +0.000 OA
ATOM     15  C   UNL     1     111.621 130.799 142.997  0.00  0.00    +0.000 A 
ATOM     16  C   UNL     1     112.192 131.391 142.938  0.00  0.00    +0.000 A 
ATOM     17  C   UNL     1     110.897 130.959 143.358  0.00  0.00    +0.000 A 
ATOM     18  C   UNL     1     110.744 131.711 143.661  0.00  0.00    +0.000 A 
ATOM     19  C   UNL     1     112.039 132.142 143.241  0.00  0.00    +0.000 A 
ATOM     20  C   UNL     1     111.315 132.302 143.603  0.00  0.00    +0.000 A 
ENDBRANCH  11  15
ENDBRANCH   9  11
ENDBRANCH   4   9
BRANCH   8  21
ATOM     21  O   UNL     1     111.849 126.703 140.930  0.00  0.00    +0.000 OA
BRANCH  21  25
ATOM     22  O   UNL     1     111.646 126.237 138.094  0.00  0.00    +0.000 OA
ATOM     23  O   UNL     1     114.233 126.471 139.371  0.00  0.00    +0.000 OA
ATOM     24  O   UNL     1     114.174 126.238 137.949  0.00  0.00    +0.000 OA
ATOM     25  C   UNL     1     112.218 126.587 140.201  0.00  0.00    +0.000 A 
ATOM     26  C   UNL     1     111.763 126.472 139.524  0.00  0.00    +0.000 A 
ATOM     27  C   UNL     1     113.041 126.587 140.151  0.00  0.00    +0.000 A 
ATOM     28  C   UNL     1     112.131 126.356 138.795  0.00  0.00    +0.000 A 
ATOM     29  C   UNL     1     112.954 126.356 138.743  0.00  0.00    +0.000 A 
ATOM     30  C   UNL     1     112.024 126.116 137.332  0.00  0.00    +0.000 C 
ATOM     31  C   UNL     1     113.410 126.471 139.422  0.00  0.00    +0.000 A 
ATOM     32  C   UNL     1     112.882 126.116 137.280  0.00  0.00    +0.000 C 
ATOM     33  C   UNL     1     113.350 126.236 137.990  0.00  0.00    +0.000 C 
ATOM     34  C   UNL     1     110.939 126.472 139.574  0.00  0.00    +0.000 C 
ATOM     35  C   UNL     1     113.496 126.703 140.829  0.00  0.00    +0.000 C 
BRANCH  30  36
ATOM     36  C   UNL     1     111.566 126.000 136.655  0.00  0.00    +0.000 A 
ATOM     37  C   UNL     1     111.282 126.650 136.234  0.00  0.00    +0.000 A 
ATOM     38  C   UNL     1     111.393 125.234 136.401  0.00  0.00    +0.000 A 
ATOM     39  C   UNL     1     110.825 126.534 135.557  0.00  0.00    +0.000 A 
ATOM     40  C   UNL     1     110.935 125.119 135.724  0.00  0.00    +0.000 A 
ATOM     41  C   UNL     1     110.651 125.769 135.302  0.00  0.00    +0.000 A 
BRANCH  41  42
ATOM     42  O   UNL     1     110.194 125.654 134.625  0.00  0.00    +0.000 OA
ATOM     43  C   UNL     1     109.407 125.902 134.612  0.00  0.00    +0.000 C 
ENDBRANCH  41  42
ENDBRANCH  30  36
ENDBRANCH  21  25
ENDBRANCH   8  21
BRANCH   6  44
ATOM     44  C   UNL     1     112.167 129.529 140.647  0.00  0.00    +0.000 C 
BRANCH  44  45
ATOM     45  O   UNL     1     112.035 129.583 139.834  0.00  0.00    +0.000 OA
BRANCH  45  47
ATOM     46  O   UNL     1     112.886 130.728 139.750  0.00  0.00    +0.000 OA
ATOM     47  C   UNL     1     112.467 130.122 139.382  0.00  0.00    +0.000 C 
BRANCH  47  51
ATOM     48  O   UNL     1     111.091 130.145 136.877  0.00  0.00    +0.000 OA
ATOM     49  O   UNL     1     113.910 129.687 136.954  0.00  0.00    +0.000 OA
ATOM     50  O   UNL     1     112.512 129.848 136.093  0.00  0.00    +0.000 OA
ATOM     51  C   UNL     1     112.478 130.053 138.559  0.00  0.00    +0.000 A 
ATOM     52  C   UNL     1     113.189 129.904 138.167  0.00  0.00    +0.000 A 
ATOM     53  C   UNL     1     111.779 130.134 138.129  0.00  0.00    +0.000 A 
ATOM     54  C   UNL     1     111.790 130.065 137.307  0.00  0.00    +0.000 A 
ATOM     55  C   UNL     1     113.200 129.836 137.345  0.00  0.00    +0.000 A 
ATOM     56  C   UNL     1     112.500 129.916 136.915  0.00  0.00    +0.000 A 
ENDBRANCH  47  51
ENDBRANCH  45  47
ENDBRANCH  44  45
ENDBRANCH   6  44
TORSDOF 11
ENDMDL
MODEL 3
REMARK VINA RESULT:     -10.2      2.580      4.984
REMARK  Name = 42607945
REMARK  11 active torsions:
REMARK  status: ('A' for Active; 'I' for Inactive)
REMARK    1  A    between atoms: O_2  and  C_19
REMARK    2  A    between atoms: O_2  and  C_30
REMARK    3  A    between atoms: O_3  and  C_23
REMARK    4  A    between atoms: O_3  and  C_25
REMARK    5  A    between atoms: O_6  and  C_24
REMARK    6  A    between atoms: O_6  and  C_39
REMARK    7  A    between atoms: O_12  and  C_49
REMARK    8  A    between atoms: C_21  and  C_24
REMARK    9  A    between atoms: C_30  and  C_38
REMARK   10  A    between atoms: C_31  and  C_37
REMARK   11  A    between atoms: C_39  and  C_42
REMARK                            x       y       z     vdW  Elec       q    Type
REMARK                         _______ _______ _______ _____ _____    ______ ____
ROOT
ATOM      1  O   UNL     1     112.291 128.892 136.846  0.00  0.00    +0.000 OA
ATOM      2  O   UNL     1     114.074 127.436 135.935  0.00  0.00    +0.000 OA
ATOM      3  O   UNL     1     114.016 129.030 135.514  0.00  0.00    +0.000 OA
ATOM      4  C   UNL     1     112.915 127.609 136.753  0.00  0.00    +0.000 C 
ATOM      5  C   UNL     1     113.480 127.921 136.239  0.00  0.00    +0.000 C 
ATOM      6  C   UNL     1     112.321 128.094 137.056  0.00  0.00    +0.000 C 
ATOM      7  C   UNL     1     113.451 128.718 136.028  0.00  0.00    +0.000 C 
ATOM      8  C   UNL     1     112.856 129.203 136.332  0.00  0.00    +0.000 C 
ENDROOT
BRANCH   4   9
ATOM      9  O   UNL     1     112.944 126.812 136.963  0.00  0.00    +0.000 OA
BRANCH   9  11
ATOM     10  O   UNL     1     112.311 126.462 135.731  0.00  0.00    +0.000 OA
ATOM     11  C   UNL     1     112.662 126.238 136.443  0.00  0.00    +0.000 C 
BRANCH  11  15
ATOM     12  O   UNL     1     114.221 124.056 137.431  0.00  0.00    +0.000 OA
ATOM     13  O   UNL     1     111.522 123.622 136.598  0.00  0.00    +0.000 OA
ATOM     14  O   UNL     1     112.941 123.039 137.205  0.00  0.00    +0.000 OA
ATOM     15  C   UNL     1     112.732 125.437 136.633  0.00  0.00    +0.000 A 
ATOM     16  C   UNL     1     112.092 124.930 136.520  0.00  0.00    +0.000 A 
ATOM     17  C   UNL     1     113.442 125.146 136.937  0.00  0.00    +0.000 A 
ATOM     18  C   UNL     1     113.512 124.347 137.127  0.00  0.00    +0.000 A 
ATOM     19  C   UNL     1     112.163 124.130 136.711  0.00  0.00    +0.000 A 
ATOM     20  C   UNL     1     112.872 123.839 137.015  0.00  0.00    +0.000 A 
ENDBRANCH  11  15
ENDBRANCH   9  11
ENDBRANCH   4   9
BRANCH   8  21
ATOM     21  O   UNL     1     112.827 130.001 136.121  0.00  0.00    +0.000 OA
BRANCH  21  25
ATOM     22  O   UNL     1     110.170 131.115 136.088  0.00  0.00    +0.000 OA
ATOM     23  O   UNL     1     112.055 131.853 138.157  0.00  0.00    +0.000 OA
ATOM     24  O   UNL     1     110.735 132.433 138.175  0.00  0.00    +0.000 OA
ATOM     25  C   UNL     1     112.260 130.496 136.459  0.00  0.00    +0.000 A 
ATOM     26  C   UNL     1     111.513 130.561 136.116  0.00  0.00    +0.000 A 
ATOM     27  C   UNL     1     112.442 130.927 137.139  0.00  0.00    +0.000 A 
ATOM     28  C   UNL     1     110.946 131.056 136.454  0.00  0.00    +0.000 A 
ATOM     29  C   UNL     1     111.126 131.487 137.134  0.00  0.00    +0.000 A 
ATOM     30  C   UNL     1     109.576 131.629 136.434  0.00  0.00    +0.000 C 
ATOM     31  C   UNL     1     111.875 131.422 137.477  0.00  0.00    +0.000 A 
ATOM     32  C   UNL     1     109.765 132.078 137.143  0.00  0.00    +0.000 C 
ATOM     33  C   UNL     1     110.545 132.006 137.495  0.00  0.00    +0.000 C 
ATOM     34  C   UNL     1     111.332 130.130 135.436  0.00  0.00    +0.000 C 
ATOM     35  C   UNL     1     113.189 130.862 137.482  0.00  0.00    +0.000 C 
BRANCH  30  36
ATOM     36  C   UNL     1     108.829 131.692 136.090  0.00  0.00    +0.000 A 
ATOM     37  C   UNL     1     108.185 131.300 136.425  0.00  0.00    +0.000 A 
ATOM     38  C   UNL     1     108.726 132.147 135.409  0.00  0.00    +0.000 A 
ATOM     39  C   UNL     1     107.439 131.364 136.080  0.00  0.00    +0.000 A 
ATOM     40  C   UNL     1     107.979 132.210 135.064  0.00  0.00    +0.000 A 
ATOM     41  C   UNL     1     107.335 131.818 135.400  0.00  0.00    +0.000 A 
BRANCH  41  42
ATOM     42  O   UNL     1     106.588 131.881 135.055  0.00  0.00    +0.000 OA
ATOM     43  C   UNL     1     105.938 132.092 135.516  0.00  0.00    +0.000 C 
ENDBRANCH  41  42
ENDBRANCH  30  36
ENDBRANCH  21  25
ENDBRANCH   8  21
BRANCH   6  44
ATOM     44  C   UNL     1     111.755 127.783 137.570  0.00  0.00    +0.000 C 
BRANCH  44  45
ATOM     45  O   UNL     1     111.564 128.184 138.265  0.00  0.00    +0.000 OA
BRANCH  45  47
ATOM     46  O   UNL     1     110.578 127.210 138.614  0.00  0.00    +0.000 OA
ATOM     47  C   UNL     1     110.892 127.968 138.694  0.00  0.00    +0.000 C 
BRANCH  47  51
ATOM     48  O   UNL     1     108.633 129.552 139.435  0.00  0.00    +0.000 OA
ATOM     49  O   UNL     1     111.016 129.639 141.009  0.00  0.00    +0.000 OA
ATOM     50  O   UNL     1     109.468 130.138 140.731  0.00  0.00    +0.000 OA
ATOM     51  C   UNL     1     110.536 128.510 139.203  0.00  0.00    +0.000 A 
ATOM     52  C   UNL     1     110.954 128.804 139.852  0.00  0.00    +0.000 A 
ATOM     53  C   UNL     1     109.763 128.760 139.064  0.00  0.00    +0.000 A 
ATOM     54  C   UNL     1     109.406 129.303 139.574  0.00  0.00    +0.000 A 
ATOM     55  C   UNL     1     110.598 129.346 140.361  0.00  0.00    +0.000 A 
ATOM     56  C   UNL     1     109.824 129.596 140.221  0.00  0.00    +0.000 A 
ENDBRANCH  47  51
ENDBRANCH  45  47
ENDBRANCH  44  45
ENDBRANCH   6  44
TORSDOF 11
ENDMDL
MODEL 4
REMARK VINA RESULT:     -10.1      2.092      6.079
REMARK  Name = 42607945
REMARK  11 active torsions:
REMARK  status: ('A' for Active; 'I' for Inactive)
REMARK    1  A    between atoms: O_2  and  C_19
REMARK    2  A    between atoms: O_2  and  C_30
REMARK    3  A    between atoms: O_3  and  C_23
REMARK    4  A    between atoms: O_3  and  C_25
REMARK    5  A    between atoms: O_6  and  C_24
REMARK    6  A    between atoms: O_6  and  C_39
REMARK    7  A    between atoms: O_12  and  C_49
REMARK    8  A    between atoms: C_21  and  C_24
REMARK    9  A    between atoms: C_30  and  C_38
REMARK   10  A    between atoms: C_31  and  C_37
REMARK   11  A    between atoms: C_39  and  C_42
REMARK                            x       y       z     vdW  Elec       q    Type
REMARK                         _______ _______ _______ _____ _____    ______ ____
ROOT
ATOM      1  O   UNL     1     111.424 129.970 138.921  0.00  0.00    +0.000 OA
ATOM      2  O   UNL     1     111.204 130.775 141.251  0.00  0.00    +0.000 OA
ATOM      3  O   UNL     1     112.701 130.567 140.588  0.00  0.00    +0.000 OA
ATOM      4  C   UNL     1     110.602 130.342 140.030  0.00  0.00    +0.000 C 
ATOM      5  C   UNL     1     111.277 130.507 140.475  0.00  0.00    +0.000 C 
ATOM      6  C   UNL     1     110.675 130.074 139.254  0.00  0.00    +0.000 C 
ATOM      7  C   UNL     1     112.025 130.403 140.143  0.00  0.00    +0.000 C 
ATOM      8  C   UNL     1     112.098 130.135 139.367  0.00  0.00    +0.000 C 
ENDROOT
BRANCH   4   9
ATOM      9  O   UNL     1     109.854 130.446 140.362  0.00  0.00    +0.000 OA
BRANCH   9  11
ATOM     10  O   UNL     1     110.049 129.288 141.175  0.00  0.00    +0.000 OA
ATOM     11  C   UNL     1     109.564 129.897 140.904  0.00  0.00    +0.000 C 
BRANCH  11  15
ATOM     12  O   UNL     1     107.006 128.709 141.368  0.00  0.00    +0.000 OA
ATOM     13  O   UNL     1     107.462 131.442 142.072  0.00  0.00    +0.000 OA
ATOM     14  O   UNL     1     106.457 130.135 141.992  0.00  0.00    +0.000 OA
ATOM     15  C   UNL     1     108.786 129.956 141.176  0.00  0.00    +0.000 A 
ATOM     16  C   UNL     1     108.513 130.669 141.488  0.00  0.00    +0.000 A 
ATOM     17  C   UNL     1     108.284 129.303 141.136  0.00  0.00    +0.000 A 
ATOM     18  C   UNL     1     107.508 129.363 141.408  0.00  0.00    +0.000 A 
ATOM     19  C   UNL     1     107.736 130.728 141.760  0.00  0.00    +0.000 A 
ATOM     20  C   UNL     1     107.234 130.075 141.720  0.00  0.00    +0.000 A 
ENDBRANCH  11  15
ENDBRANCH   9  11
ENDBRANCH   4   9
BRANCH   8  21
ATOM     21  O   UNL     1     112.847 130.031 139.034  0.00  0.00    +0.000 OA
BRANCH  21  25
ATOM     22  O   UNL     1     112.998 127.592 137.506  0.00  0.00    +0.000 OA
ATOM     23  O   UNL     1     113.169 130.168 136.198  0.00  0.00    +0.000 OA
ATOM     24  O   UNL     1     113.248 128.971 135.397  0.00  0.00    +0.000 OA
ATOM     25  C   UNL     1     112.926 129.653 138.305  0.00  0.00    +0.000 A 
ATOM     26  C   UNL     1     112.923 128.830 138.265  0.00  0.00    +0.000 A 
ATOM     27  C   UNL     1     113.008 130.100 137.616  0.00  0.00    +0.000 A 
ATOM     28  C   UNL     1     113.002 128.452 137.536  0.00  0.00    +0.000 A 
ATOM     29  C   UNL     1     113.084 128.898 136.847  0.00  0.00    +0.000 A 
ATOM     30  C   UNL     1     113.079 127.193 136.750  0.00  0.00    +0.000 C 
ATOM     31  C   UNL     1     113.087 129.722 136.887  0.00  0.00    +0.000 A 
ATOM     32  C   UNL     1     113.165 127.659 136.033  0.00  0.00    +0.000 C 
ATOM     33  C   UNL     1     113.167 128.517 136.081  0.00  0.00    +0.000 C 
ATOM     34  C   UNL     1     112.841 128.382 138.954  0.00  0.00    +0.000 C 
ATOM     35  C   UNL     1     113.011 130.923 137.656  0.00  0.00    +0.000 C 
BRANCH  30  36
ATOM     36  C   UNL     1     113.076 126.369 136.713  0.00  0.00    +0.000 A 
ATOM     37  C   UNL     1     112.377 125.966 136.539  0.00  0.00    +0.000 A 
ATOM     38  C   UNL     1     113.773 125.947 136.850  0.00  0.00    +0.000 A 
ATOM     39  C   UNL     1     112.375 125.143 136.502  0.00  0.00    +0.000 A 
ATOM     40  C   UNL     1     113.770 125.123 136.812  0.00  0.00    +0.000 A 
ATOM     41  C   UNL     1     113.071 124.721 136.638  0.00  0.00    +0.000 A 
BRANCH  41  42
ATOM     42  O   UNL     1     113.068 123.897 136.601  0.00  0.00    +0.000 OA
ATOM     43  C   UNL     1     112.432 123.472 136.911  0.00  0.00    +0.000 C 
ENDBRANCH  41  42
ENDBRANCH  30  36
ENDBRANCH  21  25
ENDBRANCH   8  21
BRANCH   6  44
ATOM     44  C   UNL     1     110.000 129.910 138.808  0.00  0.00    +0.000 C 
BRANCH  44  45
ATOM     45  O   UNL     1     110.014 130.001 137.988  0.00  0.00    +0.000 OA
BRANCH  45  47
ATOM     46  O   UNL     1     108.595 129.983 137.825  0.00  0.00    +0.000 OA
ATOM     47  C   UNL     1     109.348 129.807 137.541  0.00  0.00    +0.000 C 
BRANCH  47  51
ATOM     48  O   UNL     1     109.819 129.970 134.727  0.00  0.00    +0.000 OA
ATOM     49  O   UNL     1     109.411 127.426 135.962  0.00  0.00    +0.000 OA
ATOM     50  O   UNL     1     109.704 128.329 134.612  0.00  0.00    +0.000 OA
ATOM     51  C   UNL     1     109.437 129.438 136.809  0.00  0.00    +0.000 A 
ATOM     52  C   UNL     1     109.380 128.616 136.751  0.00  0.00    +0.000 A 
ATOM     53  C   UNL     1     109.584 129.888 136.134  0.00  0.00    +0.000 A 
ATOM     54  C   UNL     1     109.672 129.519 135.401  0.00  0.00    +0.000 A 
ATOM     55  C   UNL     1     109.468 128.246 136.019  0.00  0.00    +0.000 A 
ATOM     56  C   UNL     1     109.615 128.699 135.344  0.00  0.00    +0.000 A 
ENDBRANCH  47  51
ENDBRANCH  45  47
ENDBRANCH  44  45
ENDBRANCH   6  44
TORSDOF 11
ENDMDL
MODEL 5
REMARK VINA RESULT:     -10.1      3.154      4.438
REMARK  Name = 42607945
REMARK  11 active torsions:
REMARK  status: ('A' for Active; 'I' for Inactive)
REMARK    1  A    between atoms: O_2  and  C_19
REMARK    2  A    between atoms: O_2  and  C_30
REMARK    3  A    between atoms: O_3  and  C_23
REMARK    4  A    between atoms: O_3  and  C_25
REMARK    5  A    between atoms: O_6  and  C_24
REMARK    6  A    between atoms: O_6  and  C_39
REMARK    7  A    between atoms: O_12  and  C_49
REMARK    8  A    between atoms: C_21  and  C_24
REMARK    9  A    between atoms: C_30  and  C_38
REMARK   10  A    between atoms: C_31  and  C_37
REMARK   11  A    between atoms: C_39  and  C_42
REMARK                            x       y       z     vdW  Elec       q    Type
REMARK                         _______ _______ _______ _____ _____    ______ ____
ROOT
ATOM      1  O   UNL     1     111.074 130.563 141.259  0.00  0.00    +0.000 OA
ATOM      2  O   UNL     1     111.742 130.767 138.884  0.00  0.00    +0.000 OA
ATOM      3  O   UNL     1     112.870 130.393 140.029  0.00  0.00    +0.000 OA
ATOM      4  C   UNL     1     110.733 130.819 139.894  0.00  0.00    +0.000 C 
ATOM      5  C   UNL     1     111.519 130.699 139.676  0.00  0.00    +0.000 C 
ATOM      6  C   UNL     1     110.510 130.751 140.686  0.00  0.00    +0.000 C 
ATOM      7  C   UNL     1     112.083 130.512 140.248  0.00  0.00    +0.000 C 
ATOM      8  C   UNL     1     111.860 130.444 141.039  0.00  0.00    +0.000 C 
ENDROOT
BRANCH   4   9
ATOM      9  O   UNL     1     110.169 131.006 139.323  0.00  0.00    +0.000 OA
BRANCH   9  11
ATOM     10  O   UNL     1     110.435 132.403 139.466  0.00  0.00    +0.000 OA
ATOM     11  C   UNL     1     110.114 131.777 139.035  0.00  0.00    +0.000 C 
BRANCH  11  15
ATOM     12  O   UNL     1     107.897 131.378 137.276  0.00  0.00    +0.000 OA
ATOM     13  O   UNL     1     110.070 133.054 136.479  0.00  0.00    +0.000 OA
ATOM     14  O   UNL     1     108.606 132.362 136.158  0.00  0.00    +0.000 OA
ATOM     15  C   UNL     1     109.736 131.923 138.315  0.00  0.00    +0.000 A 
ATOM     16  C   UNL     1     110.092 132.416 137.757  0.00  0.00    +0.000 A 
ATOM     17  C   UNL     1     109.005 131.578 138.155  0.00  0.00    +0.000 A 
ATOM     18  C   UNL     1     108.628 131.724 137.437  0.00  0.00    +0.000 A 
ATOM     19  C   UNL     1     109.715 132.561 137.038  0.00  0.00    +0.000 A 
ATOM     20  C   UNL     1     108.983 132.216 136.878  0.00  0.00    +0.000 A 
ENDBRANCH  11  15
ENDBRANCH   9  11
ENDBRANCH   4   9
BRANCH   8  21
ATOM     21  O   UNL     1     112.425 130.257 141.612  0.00  0.00    +0.000 OA
BRANCH  21  25
ATOM     22  O   UNL     1     111.817 131.219 144.259  0.00  0.00    +0.000 OA
ATOM     23  O   UNL     1     111.622 128.400 143.631  0.00  0.00    +0.000 OA
ATOM     24  O   UNL     1     111.310 128.841 144.968  0.00  0.00    +0.000 OA
ATOM     25  C   UNL     1     112.189 130.102 142.388  0.00  0.00    +0.000 A 
ATOM     26  C   UNL     1     112.120 130.720 142.929  0.00  0.00    +0.000 A 
ATOM     27  C   UNL     1     112.024 129.328 142.621  0.00  0.00    +0.000 A 
ATOM     28  C   UNL     1     111.885 130.566 143.704  0.00  0.00    +0.000 A 
ATOM     29  C   UNL     1     111.719 129.792 143.939  0.00  0.00    +0.000 A 
ATOM     30  C   UNL     1     111.573 131.064 145.068  0.00  0.00    +0.000 C 
ATOM     31  C   UNL     1     111.788 129.173 143.397  0.00  0.00    +0.000 A 
ATOM     32  C   UNL     1     111.400 130.258 145.311  0.00  0.00    +0.000 C 
ATOM     33  C   UNL     1     111.474 129.618 144.743  0.00  0.00    +0.000 C 
ATOM     34  C   UNL     1     112.286 131.494 142.695  0.00  0.00    +0.000 C 
ATOM     35  C   UNL     1     112.093 128.710 142.080  0.00  0.00    +0.000 C 
BRANCH  30  36
ATOM     36  C   UNL     1     111.504 131.685 145.608  0.00  0.00    +0.000 A 
ATOM     37  C   UNL     1     110.790 132.092 145.680  0.00  0.00    +0.000 A 
ATOM     38  C   UNL     1     112.151 131.898 146.074  0.00  0.00    +0.000 A 
ATOM     39  C   UNL     1     110.723 132.712 146.220  0.00  0.00    +0.000 A 
ATOM     40  C   UNL     1     112.083 132.519 146.614  0.00  0.00    +0.000 A 
ATOM     41  C   UNL     1     111.369 132.926 146.686  0.00  0.00    +0.000 A 
BRANCH  41  42
ATOM     42  O   UNL     1     111.300 133.546 147.226  0.00  0.00    +0.000 OA
ATOM     43  C   UNL     1     111.260 133.388 148.034  0.00  0.00    +0.000 C 
ENDBRANCH  41  42
ENDBRANCH  30  36
ENDBRANCH  21  25
ENDBRANCH   8  21
BRANCH   6  44
ATOM     44  C   UNL     1     109.724 130.870 140.906  0.00  0.00    +0.000 C 
BRANCH  44  45
ATOM     45  O   UNL     1     109.354 130.340 141.419  0.00  0.00    +0.000 OA
BRANCH  45  47
ATOM     46  O   UNL     1     108.153 131.115 141.426  0.00  0.00    +0.000 OA
ATOM     47  C   UNL     1     108.635 130.542 141.770  0.00  0.00    +0.000 C 
BRANCH  47  51
ATOM     48  O   UNL     1     107.828 130.695 144.507  0.00  0.00    +0.000 OA
ATOM     49  O   UNL     1     108.026 128.154 143.217  0.00  0.00    +0.000 OA
ATOM     50  O   UNL     1     107.691 129.053 144.560  0.00  0.00    +0.000 OA
ATOM     51  C   UNL     1     108.399 130.170 142.468  0.00  0.00    +0.000 A 
ATOM     52  C   UNL     1     108.330 129.347 142.494  0.00  0.00    +0.000 A 
ATOM     53  C   UNL     1     108.231 130.618 143.139  0.00  0.00    +0.000 A 
ATOM     54  C   UNL     1     107.995 130.246 143.837  0.00  0.00    +0.000 A 
ATOM     55  C   UNL     1     108.094 128.975 143.191  0.00  0.00    +0.000 A 
ATOM     56  C   UNL     1     107.927 129.425 143.862  0.00  0.00    +0.000 A 
ENDBRANCH  47  51
ENDBRANCH  45  47
ENDBRANCH  44  45
ENDBRANCH   6  44
TORSDOF 11
ENDMDL
MODEL 6
REMARK VINA RESULT:     -10.1      2.433      5.222
REMARK  Name = 42607945
REMARK  11 active torsions:
REMARK  status: ('A' for Active; 'I' for Inactive)
REMARK    1  A    between atoms: O_2  and  C_19
REMARK    2  A    between atoms: O_2  and  C_30
REMARK    3  A    between atoms: O_3  and  C_23
REMARK    4  A    between atoms: O_3  and  C_25
REMARK    5  A    between atoms: O_6  and  C_24
REMARK    6  A    between atoms: O_6  and  C_39
REMARK    7  A    between atoms: O_12  and  C_49
REMARK    8  A    between atoms: C_21  and  C_24
REMARK    9  A    between atoms: C_30  and  C_38
REMARK   10  A    between atoms: C_31  and  C_37
REMARK   11  A    between atoms: C_39  and  C_42
REMARK                            x       y       z     vdW  Elec       q    Type
REMARK                         _______ _______ _______ _____ _____    ______ ____
ROOT
ATOM      1  O   UNL     1     111.665 130.226 138.445  0.00  0.00    +0.000 OA
ATOM      2  O   UNL     1     111.601 131.920 136.642  0.00  0.00    +0.000 OA
ATOM      3  O   UNL     1     113.047 131.465 137.296  0.00  0.00    +0.000 OA
ATOM      4  C   UNL     1     110.921 131.019 137.517  0.00  0.00    +0.000 C 
ATOM      5  C   UNL     1     111.623 131.356 137.243  0.00  0.00    +0.000 C 
ATOM      6  C   UNL     1     110.942 130.454 138.118  0.00  0.00    +0.000 C 
ATOM      7  C   UNL     1     112.345 131.128 137.570  0.00  0.00    +0.000 C 
ATOM      8  C   UNL     1     112.366 130.563 138.170  0.00  0.00    +0.000 C 
ENDROOT
BRANCH   4   9
ATOM      9  O   UNL     1     110.199 131.246 137.191  0.00  0.00    +0.000 OA
BRANCH   9  11
ATOM     10  O   UNL     1     110.404 130.350 136.096  0.00  0.00    +0.000 OA
ATOM     11  C   UNL     1     109.967 130.949 136.457  0.00  0.00    +0.000 C 
BRANCH  11  15
ATOM     12  O   UNL     1     107.137 130.938 136.054  0.00  0.00    +0.000 OA
ATOM     13  O   UNL     1     108.778 132.781 134.612  0.00  0.00    +0.000 OA
ATOM     14  O   UNL     1     107.288 132.163 134.959  0.00  0.00    +0.000 OA
ATOM     15  C   UNL     1     109.296 131.253 136.082  0.00  0.00    +0.000 A 
ATOM     16  C   UNL     1     109.372 131.865 135.534  0.00  0.00    +0.000 A 
ATOM     17  C   UNL     1     108.551 130.944 136.255  0.00  0.00    +0.000 A 
ATOM     18  C   UNL     1     107.882 131.247 135.881  0.00  0.00    +0.000 A 
ATOM     19  C   UNL     1     108.702 132.168 135.160  0.00  0.00    +0.000 A 
ATOM     20  C   UNL     1     107.957 131.859 135.334  0.00  0.00    +0.000 A 
ENDBRANCH  11  15
ENDBRANCH   9  11
ENDBRANCH   4   9
BRANCH   8  21
ATOM     21  O   UNL     1     113.089 130.335 138.497  0.00  0.00    +0.000 OA
BRANCH  21  25
ATOM     22  O   UNL     1     113.306 127.469 138.293  0.00  0.00    +0.000 OA
ATOM     23  O   UNL     1     113.312 128.770 140.878  0.00  0.00    +0.000 OA
ATOM     24  O   UNL     1     113.422 127.334 140.819  0.00  0.00    +0.000 OA
ATOM     25  C   UNL     1     113.162 129.600 138.865  0.00  0.00    +0.000 A 
ATOM     26  C   UNL     1     113.197 128.914 138.410  0.00  0.00    +0.000 A 
ATOM     27  C   UNL     1     113.201 129.553 139.688  0.00  0.00    +0.000 A 
ATOM     28  C   UNL     1     113.270 128.179 138.778  0.00  0.00    +0.000 A 
ATOM     29  C   UNL     1     113.309 128.131 139.601  0.00  0.00    +0.000 A 
ATOM     30  C   UNL     1     113.382 126.701 138.670  0.00  0.00    +0.000 C 
ATOM     31  C   UNL     1     113.274 128.819 140.056  0.00  0.00    +0.000 A 
ATOM     32  C   UNL     1     113.422 126.653 139.527  0.00  0.00    +0.000 C 
ATOM     33  C   UNL     1     113.385 127.372 139.996  0.00  0.00    +0.000 C 
ATOM     34  C   UNL     1     113.159 128.961 137.587  0.00  0.00    +0.000 C 
ATOM     35  C   UNL     1     113.166 130.240 140.143  0.00  0.00    +0.000 C 
BRANCH  30  36
ATOM     36  C   UNL     1     113.417 126.015 138.212  0.00  0.00    +0.000 A 
ATOM     37  C   UNL     1     112.721 125.665 137.941  0.00  0.00    +0.000 A 
ATOM     38  C   UNL     1     114.148 125.680 138.027  0.00  0.00    +0.000 A 
ATOM     39  C   UNL     1     112.757 124.980 137.483  0.00  0.00    +0.000 A 
ATOM     40  C   UNL     1     114.183 124.995 137.570  0.00  0.00    +0.000 A 
ATOM     41  C   UNL     1     113.487 124.644 137.298  0.00  0.00    +0.000 A 
BRANCH  41  42
ATOM     42  O   UNL     1     113.522 123.959 136.840  0.00  0.00    +0.000 OA
ATOM     43  C   UNL     1     112.834 123.532 136.684  0.00  0.00    +0.000 C 
ENDBRANCH  41  42
ENDBRANCH  30  36
ENDBRANCH  21  25
ENDBRANCH   8  21
BRANCH   6  44
ATOM     44  C   UNL     1     110.242 130.116 138.392  0.00  0.00    +0.000 C 
BRANCH  44  45
ATOM     45  O   UNL     1     110.223 129.745 139.129  0.00  0.00    +0.000 OA
BRANCH  45  47
ATOM     46  O   UNL     1     108.806 129.561 139.123  0.00  0.00    +0.000 OA
ATOM     47  C   UNL     1     109.557 129.313 139.356  0.00  0.00    +0.000 C 
BRANCH  47  51
ATOM     48  O   UNL     1     109.876 128.083 141.915  0.00  0.00    +0.000 OA
ATOM     49  O   UNL     1     109.754 126.470 139.560  0.00  0.00    +0.000 OA
ATOM     50  O   UNL     1     109.901 126.598 141.199  0.00  0.00    +0.000 OA
ATOM     51  C   UNL     1     109.643 128.635 139.817  0.00  0.00    +0.000 A 
ATOM     52  C   UNL     1     109.655 127.891 139.458  0.00  0.00    +0.000 A 
ATOM     53  C   UNL     1     109.717 128.698 140.636  0.00  0.00    +0.000 A 
ATOM     54  C   UNL     1     109.803 128.019 141.096  0.00  0.00    +0.000 A 
ATOM     55  C   UNL     1     109.742 127.212 139.919  0.00  0.00    +0.000 A 
ATOM     56  C   UNL     1     109.815 127.277 140.738  0.00  0.00    +0.000 A 
ENDBRANCH  47  51
ENDBRANCH  45  47
ENDBRANCH  44  45
ENDBRANCH   6  44
TORSDOF 11
ENDMDL
MODEL 7
REMARK VINA RESULT:     -10.0      6.167      8.198
REMARK  Name = 42607945
REMARK  11 active torsions:
REMARK  status: ('A' for Active; 'I' for Inactive)
REMARK    1  A    between atoms: O_2  and  C_19
REMARK    2  A    between atoms: O_2  and  C_30
REMARK    3  A    between atoms: O_3  and  C_23
REMARK    4  A    between atoms: O_3  and  C_25
REMARK    5  A    between atoms: O_6  and  C_24
REMARK    6  A    between atoms: O_6  and  C_39
REMARK    7  A    between atoms: O_12  and  C_49
REMARK    8  A    between atoms: C_21  and  C_24
REMARK    9  A    between atoms: C_30  and  C_38
REMARK   10  A    between atoms: C_31  and  C_37
REMARK   11  A    between atoms: C_39  and  C_42
REMARK                            x       y       z     vdW  Elec       q    Type
REMARK                         _______ _______ _______ _____ _____    ______ ____
ROOT
ATOM      1  O   UNL     1     105.950 127.188 143.128  0.00  0.00    +0.000 OA
ATOM      2  O   UNL     1     105.020 127.257 140.835  0.00  0.00    +0.000 OA
ATOM      3  O   UNL     1     105.370 128.663 141.626  0.00  0.00    +0.000 OA
ATOM      4  C   UNL     1     105.465 126.508 141.968  0.00  0.00    +0.000 C 
ATOM      5  C   UNL     1     105.330 127.234 141.599  0.00  0.00    +0.000 C 
ATOM      6  C   UNL     1     105.774 126.485 142.732  0.00  0.00    +0.000 C 
ATOM      7  C   UNL     1     105.505 127.936 141.994  0.00  0.00    +0.000 C 
ATOM      8  C   UNL     1     105.814 127.913 142.759  0.00  0.00    +0.000 C 
ENDROOT
BRANCH   4   9
ATOM      9  O   UNL     1     105.290 125.806 141.573  0.00  0.00    +0.000 OA
BRANCH   9  11
ATOM     10  O   UNL     1     106.510 125.910 140.836  0.00  0.00    +0.000 OA
ATOM     11  C   UNL     1     105.789 125.534 140.974  0.00  0.00    +0.000 C 
BRANCH  11  15
ATOM     12  O   UNL     1     105.941 122.739 140.398  0.00  0.00    +0.000 OA
ATOM     13  O   UNL     1     104.304 124.443 138.790  0.00  0.00    +0.000 OA
ATOM     14  O   UNL     1     104.900 122.943 139.134  0.00  0.00    +0.000 OA
ATOM     15  C   UNL     1     105.567 124.886 140.514  0.00  0.00    +0.000 A 
ATOM     16  C   UNL     1     105.046 124.989 139.882  0.00  0.00    +0.000 A 
ATOM     17  C   UNL     1     105.865 124.136 140.686  0.00  0.00    +0.000 A 
ATOM     18  C   UNL     1     105.643 123.489 140.226  0.00  0.00    +0.000 A 
ATOM     19  C   UNL     1     104.825 124.341 139.423  0.00  0.00    +0.000 A 
ATOM     20  C   UNL     1     105.123 123.591 139.594  0.00  0.00    +0.000 A 
ENDBRANCH  11  15
ENDBRANCH   9  11
ENDBRANCH   4   9
BRANCH   8  21
ATOM     21  O   UNL     1     105.990 128.616 143.155  0.00  0.00    +0.000 OA
BRANCH  21  25
ATOM     22  O   UNL     1     105.144 128.722 145.907  0.00  0.00    +0.000 OA
ATOM     23  O   UNL     1     107.942 128.426 145.233  0.00  0.00    +0.000 OA
ATOM     24  O   UNL     1     107.560 128.474 146.622  0.00  0.00    +0.000 OA
ATOM     25  C   UNL     1     106.180 128.602 143.957  0.00  0.00    +0.000 A 
ATOM     26  C   UNL     1     105.584 128.667 144.523  0.00  0.00    +0.000 A 
ATOM     27  C   UNL     1     106.966 128.521 144.193  0.00  0.00    +0.000 A 
ATOM     28  C   UNL     1     105.774 128.652 145.326  0.00  0.00    +0.000 A 
ATOM     29  C   UNL     1     106.560 128.572 145.563  0.00  0.00    +0.000 A 
ATOM     30  C   UNL     1     105.335 128.707 146.744  0.00  0.00    +0.000 C 
ATOM     31  C   UNL     1     107.156 128.506 144.996  0.00  0.00    +0.000 A 
ATOM     32  C   UNL     1     106.154 128.623 146.990  0.00  0.00    +0.000 C 
ATOM     33  C   UNL     1     106.771 128.555 146.395  0.00  0.00    +0.000 C 
ATOM     34  C   UNL     1     104.797 128.748 144.287  0.00  0.00    +0.000 C 
ATOM     35  C   UNL     1     107.562 128.455 143.627  0.00  0.00    +0.000 C 
BRANCH  30  36
ATOM     36  C   UNL     1     104.736 128.773 147.309  0.00  0.00    +0.000 A 
ATOM     37  C   UNL     1     104.392 128.094 147.626  0.00  0.00    +0.000 A 
ATOM     38  C   UNL     1     104.483 129.519 147.555  0.00  0.00    +0.000 A 
ATOM     39  C   UNL     1     103.794 128.161 148.190  0.00  0.00    +0.000 A 
ATOM     40  C   UNL     1     103.885 129.585 148.120  0.00  0.00    +0.000 A 
ATOM     41  C   UNL     1     103.540 128.906 148.437  0.00  0.00    +0.000 A 
BRANCH  41  42
ATOM     42  O   UNL     1     102.942 128.972 149.001  0.00  0.00    +0.000 OA
ATOM     43  C   UNL     1     102.184 129.206 148.774  0.00  0.00    +0.000 C 
ENDBRANCH  41  42
ENDBRANCH  30  36
ENDBRANCH  21  25
ENDBRANCH   8  21
BRANCH   6  44
ATOM     44  C   UNL     1     105.910 125.760 143.101  0.00  0.00    +0.000 C 
BRANCH  44  45
ATOM     45  O   UNL     1     105.611 125.620 143.857  0.00  0.00    +0.000 OA
BRANCH  45  47
ATOM     46  O   UNL     1     106.363 124.408 143.949  0.00  0.00    +0.000 OA
ATOM     47  C   UNL     1     105.905 124.992 144.306  0.00  0.00    +0.000 C 
BRANCH  47  51
ATOM     48  O   UNL     1     106.796 125.040 147.021  0.00  0.00    +0.000 OA
ATOM     49  O   UNL     1     104.021 124.696 146.435  0.00  0.00    +0.000 OA
ATOM     50  O   UNL     1     105.243 124.826 147.535  0.00  0.00    +0.000 OA
ATOM     51  C   UNL     1     105.739 124.951 145.113  0.00  0.00    +0.000 A 
ATOM     52  C   UNL     1     104.962 124.844 145.371  0.00  0.00    +0.000 A 
ATOM     53  C   UNL     1     106.350 125.016 145.664  0.00  0.00    +0.000 A 
ATOM     54  C   UNL     1     106.185 124.975 146.471  0.00  0.00    +0.000 A 
ATOM     55  C   UNL     1     104.797 124.802 146.178  0.00  0.00    +0.000 A 
ATOM     56  C   UNL     1     105.409 124.868 146.728  0.00  0.00    +0.000 A 
ENDBRANCH  47  51
ENDBRANCH  45  47
ENDBRANCH  44  45
ENDBRANCH   6  44
TORSDOF 11
ENDMDL
MODEL 8
REMARK VINA RESULT:      -9.9      2.612      6.263
REMARK  Name = 42607945
REMARK  11 active torsions:
REMARK  status: ('A' for Active; 'I' for Inactive)
REMARK    1  A    between atoms: O_2  and  C_19
REMARK    2  A    between atoms: O_2  and  C_30
REMARK    3  A    between atoms: O_3  and  C_23
REMARK    4  A    between atoms: O_3  and  C_25
REMARK    5  A    between atoms: O_6  and  C_24
REMARK    6  A    between atoms: O_6  and  C_39
REMARK    7  A    between atoms: O_12  and  C_49
REMARK    8  A    between atoms: C_21  and  C_24
REMARK    9  A    between atoms: C_30  and  C_38
REMARK   10  A    between atoms: C_31  and  C_37
REMARK   11  A    between atoms: C_39  and  C_42
REMARK                            x       y       z     vdW  Elec       q    Type
REMARK                         _______ _______ _______ _____ _____    ______ ____
ROOT
ATOM      1  O   UNL     1     110.610 127.305 138.522  0.00  0.00    +0.000 OA
ATOM      2  O   UNL     1     110.515 125.934 140.580  0.00  0.00    +0.000 OA
ATOM      3  O   UNL     1     111.362 125.397 139.270  0.00  0.00    +0.000 OA
ATOM      4  C   UNL     1     110.154 127.116 139.863  0.00  0.00    +0.000 C 
ATOM      5  C   UNL     1     110.546 126.391 139.894  0.00  0.00    +0.000 C 
ATOM      6  C   UNL     1     110.186 127.573 139.177  0.00  0.00    +0.000 C 
ATOM      7  C   UNL     1     110.970 126.123 139.239  0.00  0.00    +0.000 C 
ATOM      8  C   UNL     1     111.002 126.580 138.553  0.00  0.00    +0.000 C 
ENDROOT
BRANCH   4   9
ATOM      9  O   UNL     1     109.730 127.384 140.518  0.00  0.00    +0.000 OA
BRANCH   9  11
ATOM     10  O   UNL     1     108.585 126.642 140.094  0.00  0.00    +0.000 OA
ATOM     11  C   UNL     1     108.972 127.095 140.665  0.00  0.00    +0.000 C 
BRANCH  11  15
ATOM     12  O   UNL     1     108.421 128.897 142.813  0.00  0.00    +0.000 OA
ATOM     13  O   UNL     1     107.289 126.273 142.824  0.00  0.00    +0.000 OA
ATOM     14  O   UNL     1     107.483 127.749 143.536  0.00  0.00    +0.000 OA
ATOM     15  C   UNL     1     108.599 127.259 141.383  0.00  0.00    +0.000 A 
ATOM     16  C   UNL     1     108.130 126.684 141.744  0.00  0.00    +0.000 A 
ATOM     17  C   UNL     1     108.696 127.996 141.740  0.00  0.00    +0.000 A 
ATOM     18  C   UNL     1     108.324 128.159 142.457  0.00  0.00    +0.000 A 
ATOM     19  C   UNL     1     107.758 126.848 142.462  0.00  0.00    +0.000 A 
ATOM     20  C   UNL     1     107.855 127.586 142.818  0.00  0.00    +0.000 A 
ENDBRANCH  11  15
ENDBRANCH   9  11
ENDBRANCH   4   9
BRANCH   8  21
ATOM     21  O   UNL     1     111.426 126.312 137.898  0.00  0.00    +0.000 OA
BRANCH  21  25
ATOM     22  O   UNL     1     112.908 128.248 136.363  0.00  0.00    +0.000 OA
ATOM     23  O   UNL     1     110.369 127.240 135.410  0.00  0.00    +0.000 OA
ATOM     24  O   UNL     1     111.080 128.208 134.612  0.00  0.00    +0.000 OA
ATOM     25  C   UNL     1     111.491 126.786 137.226  0.00  0.00    +0.000 A 
ATOM     26  C   UNL     1     112.151 127.271 137.127  0.00  0.00    +0.000 A 
ATOM     27  C   UNL     1     110.897 126.775 136.654  0.00  0.00    +0.000 A 
ATOM     28  C   UNL     1     112.216 127.746 136.456  0.00  0.00    +0.000 A 
ATOM     29  C   UNL     1     111.622 127.736 135.883  0.00  0.00    +0.000 A 
ATOM     30  C   UNL     1     112.983 128.745 135.667  0.00  0.00    +0.000 C 
ATOM     31  C   UNL     1     110.962 127.250 135.983  0.00  0.00    +0.000 A 
ATOM     32  C   UNL     1     112.363 128.733 135.071  0.00  0.00    +0.000 C 
ATOM     33  C   UNL     1     111.678 128.225 135.179  0.00  0.00    +0.000 C 
ATOM     34  C   UNL     1     112.745 127.283 137.699  0.00  0.00    +0.000 C 
ATOM     35  C   UNL     1     110.238 126.290 136.753  0.00  0.00    +0.000 C 
BRANCH  30  36
ATOM     36  C   UNL     1     113.643 129.230 135.570  0.00  0.00    +0.000 A 
ATOM     37  C   UNL     1     113.667 129.972 135.930  0.00  0.00    +0.000 A 
ATOM     38  C   UNL     1     114.281 128.971 135.113  0.00  0.00    +0.000 A 
ATOM     39  C   UNL     1     114.328 130.455 135.833  0.00  0.00    +0.000 A 
ATOM     40  C   UNL     1     114.941 129.456 135.017  0.00  0.00    +0.000 A 
ATOM     41  C   UNL     1     114.965 130.198 135.376  0.00  0.00    +0.000 A 
BRANCH  41  42
ATOM     42  O   UNL     1     115.626 130.682 135.280  0.00  0.00    +0.000 OA
ATOM     43  C   UNL     1     115.614 131.290 134.722  0.00  0.00    +0.000 C 
ENDBRANCH  41  42
ENDBRANCH  30  36
ENDBRANCH  21  25
ENDBRANCH   8  21
BRANCH   6  44
ATOM     44  C   UNL     1     109.794 128.298 139.146  0.00  0.00    +0.000 C 
BRANCH  44  45
ATOM     45  O   UNL     1     110.185 128.967 138.861  0.00  0.00    +0.000 OA
BRANCH  45  47
ATOM     46  O   UNL     1     108.945 129.673 138.778  0.00  0.00    +0.000 OA
ATOM     47  C   UNL     1     109.750 129.621 138.608  0.00  0.00    +0.000 C 
BRANCH  47  51
ATOM     48  O   UNL     1     109.902 131.294 136.297  0.00  0.00    +0.000 OA
ATOM     49  O   UNL     1     111.833 131.565 138.384  0.00  0.00    +0.000 OA
ATOM     50  O   UNL     1     111.239 132.033 136.917  0.00  0.00    +0.000 OA
ATOM     51  C   UNL     1     110.123 130.224 138.186  0.00  0.00    +0.000 A 
ATOM     52  C   UNL     1     110.793 130.594 138.496  0.00  0.00    +0.000 A 
ATOM     53  C   UNL     1     109.826 130.458 137.452  0.00  0.00    +0.000 A 
ATOM     54  C   UNL     1     110.199 131.061 137.030  0.00  0.00    +0.000 A 
ATOM     55  C   UNL     1     111.165 131.197 138.074  0.00  0.00    +0.000 A 
ATOM     56  C   UNL     1     110.867 131.430 137.340  0.00  0.00    +0.000 A 
ENDBRANCH  47  51
ENDBRANCH  45  47
ENDBRANCH  44  45
ENDBRANCH   6  44
TORSDOF 11
ENDMDL
MODEL 9
REMARK VINA RESULT:      -9.8      1.933      6.951
REMARK  Name = 42607945
REMARK  11 active torsions:
REMARK  status: ('A' for Active; 'I' for Inactive)
REMARK    1  A    between atoms: O_2  and  C_19
REMARK    2  A    between atoms: O_2  and  C_30
REMARK    3  A    between atoms: O_3  and  C_23
REMARK    4  A    between atoms: O_3  and  C_25
REMARK    5  A    between atoms: O_6  and  C_24
REMARK    6  A    between atoms: O_6  and  C_39
REMARK    7  A    between atoms: O_12  and  C_49
REMARK    8  A    between atoms: C_21  and  C_24
REMARK    9  A    between atoms: C_30  and  C_38
REMARK   10  A    between atoms: C_31  and  C_37
REMARK   11  A    between atoms: C_39  and  C_42
REMARK                            x       y       z     vdW  Elec       q    Type
REMARK                         _______ _______ _______ _____ _____    ______ ____
ROOT
ATOM      1  O   UNL     1     110.185 130.214 138.737  0.00  0.00    +0.000 OA
ATOM      2  O   UNL     1     108.986 131.258 140.634  0.00  0.00    +0.000 OA
ATOM      3  O   UNL     1     108.147 130.752 139.306  0.00  0.00    +0.000 OA
ATOM      4  C   UNL     1     110.205 130.815 140.034  0.00  0.00    +0.000 C 
ATOM      5  C   UNL     1     109.385 130.910 140.002  0.00  0.00    +0.000 C 
ATOM      6  C   UNL     1     110.604 130.467 139.402  0.00  0.00    +0.000 C 
ATOM      7  C   UNL     1     108.966 130.657 139.338  0.00  0.00    +0.000 C 
ATOM      8  C   UNL     1     109.366 130.309 138.706  0.00  0.00    +0.000 C 
ENDROOT
BRANCH   4   9
ATOM      9  O   UNL     1     110.624 131.068 140.698  0.00  0.00    +0.000 OA
BRANCH   9  11
ATOM     10  O   UNL     1     110.159 129.929 141.426  0.00  0.00    +0.000 OA
ATOM     11  C   UNL     1     110.609 130.619 141.390  0.00  0.00    +0.000 C 
BRANCH  11  15
ATOM     12  O   UNL     1     112.065 129.983 143.765  0.00  0.00    +0.000 OA
ATOM     13  O   UNL     1     111.766 132.708 142.960  0.00  0.00    +0.000 OA
ATOM     14  O   UNL     1     112.351 131.588 144.020  0.00  0.00    +0.000 OA
ATOM     15  C   UNL     1     111.045 130.861 142.048  0.00  0.00    +0.000 A 
ATOM     16  C   UNL     1     111.187 131.664 142.175  0.00  0.00    +0.000 A 
ATOM     17  C   UNL     1     111.337 130.301 142.578  0.00  0.00    +0.000 A 
ATOM     18  C   UNL     1     111.773 130.543 143.235  0.00  0.00    +0.000 A 
ATOM     19  C   UNL     1     111.623 131.905 142.833  0.00  0.00    +0.000 A 
ATOM     20  C   UNL     1     111.915 131.345 143.363  0.00  0.00    +0.000 A 
ENDBRANCH  11  15
ENDBRANCH   9  11
ENDBRANCH   4   9
BRANCH   8  21
ATOM     21  O   UNL     1     108.947 130.056 138.041  0.00  0.00    +0.000 OA
BRANCH  21  25
ATOM     22  O   UNL     1     110.183 127.868 136.632  0.00  0.00    +0.000 OA
ATOM     23  O   UNL     1     110.146 130.527 135.491  0.00  0.00    +0.000 OA
ATOM     24  O   UNL     1     110.775 129.459 134.753  0.00  0.00    +0.000 OA
ATOM     25  C   UNL     1     109.352 129.775 137.380  0.00  0.00    +0.000 A 
ATOM     26  C   UNL     1     109.563 128.980 137.332  0.00  0.00    +0.000 A 
ATOM     27  C   UNL     1     109.546 130.292 136.766  0.00  0.00    +0.000 A 
ATOM     28  C   UNL     1     109.968 128.700 136.671  0.00  0.00    +0.000 A 
ATOM     29  C   UNL     1     110.163 129.215 136.057  0.00  0.00    +0.000 A 
ATOM     30  C   UNL     1     110.605 127.570 135.946  0.00  0.00    +0.000 C 
ATOM     31  C   UNL     1     109.952 130.012 136.105  0.00  0.00    +0.000 A 
ATOM     32  C   UNL     1     110.807 128.108 135.307  0.00  0.00    +0.000 C 
ATOM     33  C   UNL     1     110.585 128.936 135.362  0.00  0.00    +0.000 C 
ATOM     34  C   UNL     1     109.369 128.463 137.946  0.00  0.00    +0.000 C 
ATOM     35  C   UNL     1     109.335 131.088 136.814  0.00  0.00    +0.000 C 
BRANCH  30  36
ATOM     36  C   UNL     1     110.815 126.773 135.901  0.00  0.00    +0.000 A 
ATOM     37  C   UNL     1     110.313 126.235 135.529  0.00  0.00    +0.000 A 
ATOM     38  C   UNL     1     111.528 126.516 136.227  0.00  0.00    +0.000 A 
ATOM     39  C   UNL     1     110.523 125.439 135.484  0.00  0.00    +0.000 A 
ATOM     40  C   UNL     1     111.738 125.719 136.182  0.00  0.00    +0.000 A 
ATOM     41  C   UNL     1     111.236 125.180 135.810  0.00  0.00    +0.000 A 
BRANCH  41  42
ATOM     42  O   UNL     1     111.446 124.384 135.765  0.00  0.00    +0.000 OA
ATOM     43  C   UNL     1     111.821 124.019 136.403  0.00  0.00    +0.000 C 
ENDBRANCH  41  42
ENDBRANCH  30  36
ENDBRANCH  21  25
ENDBRANCH   8  21
BRANCH   6  44
ATOM     44  C   UNL     1     111.423 130.371 139.433  0.00  0.00    +0.000 C 
BRANCH  44  45
ATOM     45  O   UNL     1     111.895 130.647 138.815  0.00  0.00    +0.000 OA
BRANCH  45  47
ATOM     46  O   UNL     1     113.083 130.123 139.412  0.00  0.00    +0.000 OA
ATOM     47  C   UNL     1     112.676 130.389 138.746  0.00  0.00    +0.000 C 
BRANCH  47  51
ATOM     48  O   UNL     1     113.619 131.828 136.465  0.00  0.00    +0.000 OA
ATOM     49  O   UNL     1     113.970 128.997 136.612  0.00  0.00    +0.000 OA
ATOM     50  O   UNL     1     114.168 130.421 135.803  0.00  0.00    +0.000 OA
ATOM     51  C   UNL     1     113.049 130.397 138.010  0.00  0.00    +0.000 A 
ATOM     52  C   UNL     1     113.323 129.692 137.679  0.00  0.00    +0.000 A 
ATOM     53  C   UNL     1     113.148 131.108 137.605  0.00  0.00    +0.000 A 
ATOM     54  C   UNL     1     113.521 131.117 136.869  0.00  0.00    +0.000 A 
ATOM     55  C   UNL     1     113.696 129.700 136.943  0.00  0.00    +0.000 A 
ATOM     56  C   UNL     1     113.795 130.413 136.539  0.00  0.00    +0.000 A 
ENDBRANCH  47  51
ENDBRANCH  45  47
ENDBRANCH  44  45
ENDBRANCH   6  44
TORSDOF 11
ENDMDL
MODEL 10
REMARK VINA RESULT:      -9.8      1.514      6.083
REMARK  Name = 42607945
REMARK  11 active torsions:
REMARK  status: ('A' for Active; 'I' for Inactive)
REMARK    1  A    between atoms: O_2  and  C_19
REMARK    2  A    between atoms: O_2  and  C_30
REMARK    3  A    between atoms: O_3  and  C_23
REMARK    4  A    between atoms: O_3  and  C_25
REMARK    5  A    between atoms: O_6  and  C_24
REMARK    6  A    between atoms: O_6  and  C_39
REMARK    7  A    between atoms: O_12  and  C_49
REMARK    8  A    between atoms: C_21  and  C_24
REMARK    9  A    between atoms: C_30  and  C_38
REMARK   10  A    between atoms: C_31  and  C_37
REMARK   11  A    between atoms: C_39  and  C_42
REMARK                            x       y       z     vdW  Elec       q    Type
REMARK                         _______ _______ _______ _____ _____    ______ ____
ROOT
ATOM      1  O   UNL     1     112.615 129.993 139.440  0.00  0.00    +0.000 OA
ATOM      2  O   UNL     1     114.053 130.493 141.392  0.00  0.00    +0.000 OA
ATOM      3  O   UNL     1     114.732 130.247 139.908  0.00  0.00    +0.000 OA
ATOM      4  C   UNL     1     112.755 130.283 140.833  0.00  0.00    +0.000 C 
ATOM      5  C   UNL     1     113.574 130.326 140.741  0.00  0.00    +0.000 C 
ATOM      6  C   UNL     1     112.276 130.116 140.183  0.00  0.00    +0.000 C 
ATOM      7  C   UNL     1     113.913 130.204 140.000  0.00  0.00    +0.000 C 
ATOM      8  C   UNL     1     113.434 130.037 139.350  0.00  0.00    +0.000 C 
ENDROOT
BRANCH   4   9
ATOM      9  O   UNL     1     112.416 130.405 141.575  0.00  0.00    +0.000 OA
BRANCH   9  11
ATOM     10  O   UNL     1     112.800 129.087 141.970  0.00  0.00    +0.000 OA
ATOM     11  C   UNL     1     112.431 129.805 142.140  0.00  0.00    +0.000 C 
BRANCH  11  15
ATOM     12  O   UNL     1     111.655 131.551 144.264  0.00  0.00    +0.000 OA
ATOM     13  O   UNL     1     111.083 128.756 144.431  0.00  0.00    +0.000 OA
ATOM     14  O   UNL     1     111.015 130.270 145.084  0.00  0.00    +0.000 OA
ATOM     15  C   UNL     1     112.077 129.921 142.876  0.00  0.00    +0.000 A 
ATOM     16  C   UNL     1     111.757 129.280 143.286  0.00  0.00    +0.000 A 
ATOM     17  C   UNL     1     112.043 130.678 143.203  0.00  0.00    +0.000 A 
ATOM     18  C   UNL     1     111.689 130.794 143.938  0.00  0.00    +0.000 A 
ATOM     19  C   UNL     1     111.403 129.397 144.021  0.00  0.00    +0.000 A 
ATOM     20  C   UNL     1     111.369 130.154 144.348  0.00  0.00    +0.000 A 
ENDBRANCH  11  15
ENDBRANCH   9  11
ENDBRANCH   4   9
BRANCH   8  21
ATOM     21  O   UNL     1     113.774 129.914 138.607  0.00  0.00    +0.000 OA
BRANCH  21  25
ATOM     22  O   UNL     1     112.570 127.662 137.273  0.00  0.00    +0.000 OA
ATOM     23  O   UNL     1     112.236 130.344 136.237  0.00  0.00    +0.000 OA
ATOM     24  O   UNL     1     111.617 129.243 135.540  0.00  0.00    +0.000 OA
ATOM     25  C   UNL     1     113.317 129.616 137.989  0.00  0.00    +0.000 A 
ATOM     26  C   UNL     1     113.172 128.807 137.936  0.00  0.00    +0.000 A 
ATOM     27  C   UNL     1     113.005 130.130 137.422  0.00  0.00    +0.000 A 
ATOM     28  C   UNL     1     112.714 128.509 137.318  0.00  0.00    +0.000 A 
ATOM     29  C   UNL     1     112.402 129.021 136.751  0.00  0.00    +0.000 A 
ATOM     30  C   UNL     1     112.094 127.346 136.632  0.00  0.00    +0.000 C 
ATOM     31  C   UNL     1     112.548 129.832 136.804  0.00  0.00    +0.000 A 
ATOM     32  C   UNL     1     111.770 127.880 136.042  0.00  0.00    +0.000 C 
ATOM     33  C   UNL     1     111.925 128.723 136.102  0.00  0.00    +0.000 C 
ATOM     34  C   UNL     1     113.483 128.293 138.502  0.00  0.00    +0.000 C 
ATOM     35  C   UNL     1     113.150 130.939 137.475  0.00  0.00    +0.000 C 
BRANCH  30  36
ATOM     36  C   UNL     1     111.951 126.535 136.582  0.00  0.00    +0.000 A 
ATOM     37  C   UNL     1     112.521 126.034 136.258  0.00  0.00    +0.000 A 
ATOM     38  C   UNL     1     111.236 126.225 136.856  0.00  0.00    +0.000 A 
ATOM     39  C   UNL     1     112.376 125.223 136.208  0.00  0.00    +0.000 A 
ATOM     40  C   UNL     1     111.092 125.414 136.806  0.00  0.00    +0.000 A 
ATOM     41  C   UNL     1     111.662 124.913 136.482  0.00  0.00    +0.000 A 
BRANCH  41  42
ATOM     42  O   UNL     1     111.519 124.102 136.432  0.00  0.00    +0.000 OA
ATOM     43  C   UNL     1     111.888 123.585 136.957  0.00  0.00    +0.000 C 
ENDBRANCH  41  42
ENDBRANCH  30  36
ENDBRANCH  21  25
ENDBRANCH   8  21
BRANCH   6  44
ATOM     44  C   UNL     1     111.457 130.072 140.273  0.00  0.00    +0.000 C 
BRANCH  44  45
ATOM     45  O   UNL     1     110.961 130.468 139.746  0.00  0.00    +0.000 OA
BRANCH  45  47
ATOM     46  O   UNL     1     109.810 129.851 140.326  0.00  0.00    +0.000 OA
ATOM     47  C   UNL     1     110.159 130.278 139.713  0.00  0.00    +0.000 C 
BRANCH  47  51
ATOM     48  O   UNL     1     108.874 132.347 138.219  0.00  0.00    +0.000 OA
ATOM     49  O   UNL     1     108.723 129.636 137.327  0.00  0.00    +0.000 OA
ATOM     50  O   UNL     1     108.345 131.230 137.126  0.00  0.00    +0.000 OA
ATOM     51  C   UNL     1     109.705 130.516 139.066  0.00  0.00    +0.000 A 
ATOM     52  C   UNL     1     109.441 129.957 138.519  0.00  0.00    +0.000 A 
ATOM     53  C   UNL     1     109.516 131.312 138.965  0.00  0.00    +0.000 A 
ATOM     54  C   UNL     1     109.062 131.550 138.319  0.00  0.00    +0.000 A 
ATOM     55  C   UNL     1     108.987 130.195 137.873  0.00  0.00    +0.000 A 
ATOM     56  C   UNL     1     108.798 130.992 137.773  0.00  0.00    +0.000 A 
ENDBRANCH  47  51
ENDBRANCH  45  47
ENDBRANCH  44  45
ENDBRANCH   6  44
TORSDOF 11
ENDMDL
