MODEL 1
REMARK VINA RESULT:      -9.1      0.000      0.000
REMARK  Name = 14345560
REMARK  4 active torsions:
REMARK  status: ('A' for Active; 'I' for Inactive)
REMARK    1  A    between atoms: O_2  and  C_16
REMARK    2  A    between atoms: O_2  and  C_22
REMARK    3  A    between atoms: C_15  and  C_21
REMARK    4  A    between atoms: C_20  and  C_24
REMARK                            x       y       z     vdW  Elec       q    Type
REMARK                         _______ _______ _______ _____ _____    ______ ____
ROOT
ATOM      1  O   UNL     1     106.465 124.868 146.132  0.00  0.00    +0.000 OA
ATOM      2  O   UNL     1     107.026 126.761 147.061  0.00  0.00    +0.000 OA
ATOM      3  O   UNL     1     105.329 124.273 143.517  0.00  0.00    +0.000 OA
ATOM      4  C   UNL     1     106.746 126.217 146.508  0.00  0.00    +0.000 C 
ATOM      5  C   UNL     1     106.468 126.479 145.776  0.00  0.00    +0.000 C 
ATOM      6  C   UNL     1     106.189 125.935 145.223  0.00  0.00    +0.000 A 
ATOM      7  C   UNL     1     106.745 125.412 146.685  0.00  0.00    +0.000 C 
ATOM      8  C   UNL     1     105.902 126.221 144.464  0.00  0.00    +0.000 A 
ATOM      9  C   UNL     1     106.187 125.129 145.400  0.00  0.00    +0.000 A 
ATOM     10  C   UNL     1     105.609 125.659 143.884  0.00  0.00    +0.000 A 
ATOM     11  C   UNL     1     105.899 124.554 144.832  0.00  0.00    +0.000 A 
ATOM     12  C   UNL     1     105.608 124.820 144.069  0.00  0.00    +0.000 A 
ENDROOT
BRANCH   7  15
ATOM     13  O   UNL     1     106.237 124.412 149.314  0.00  0.00    +0.000 OA
ATOM     14  O   UNL     1     107.860 124.366 149.610  0.00  0.00    +0.000 OA
ATOM     15  C   UNL     1     107.023 125.150 147.417  0.00  0.00    +0.000 A 
ATOM     16  C   UNL     1     106.491 124.912 148.000  0.00  0.00    +0.000 A 
ATOM     17  C   UNL     1     107.835 125.127 147.564  0.00  0.00    +0.000 A 
ATOM     18  C   UNL     1     106.770 124.651 148.731  0.00  0.00    +0.000 A 
ATOM     19  C   UNL     1     108.113 124.866 148.295  0.00  0.00    +0.000 A 
ATOM     20  C   UNL     1     107.581 124.628 148.879  0.00  0.00    +0.000 A 
ENDBRANCH   7  15
BRANCH   8  21
ATOM     21  O   UNL     1     105.907 127.028 144.296  0.00  0.00    +0.000 OA
BRANCH  21  30
ATOM     22  O   UNL     1     106.879 127.087 143.250  0.00  0.00    +0.000 OA
ATOM     23  O   UNL     1     105.349 128.494 141.907  0.00  0.00    +0.000 OA
ATOM     24  O   UNL     1     106.830 128.083 141.309  0.00  0.00    +0.000 OA
ATOM     25  O   UNL     1     104.887 127.967 143.400  0.00  0.00    +0.000 OA
ATOM     26  C   UNL     1     105.859 128.025 142.354  0.00  0.00    +0.000 C 
ATOM     27  C   UNL     1     106.600 127.819 142.056  0.00  0.00    +0.000 C 
ATOM     28  C   UNL     1     105.628 127.761 143.102  0.00  0.00    +0.000 C 
ATOM     29  C   UNL     1     107.110 127.350 142.504  0.00  0.00    +0.000 C 
ATOM     30  C   UNL     1     106.138 127.292 143.549  0.00  0.00    +0.000 C 
BRANCH  29  32
ATOM     31  O   UNL     1     108.512 127.154 142.697  0.00  0.00    +0.000 OA
ATOM     32  C   UNL     1     107.850 127.145 142.205  0.00  0.00    +0.000 C 
ENDBRANCH  29  32
ENDBRANCH  21  30
ENDBRANCH   8  21
TORSDOF 4
ENDMDL
MODEL 2
REMARK VINA RESULT:      -9.1     10.158     11.110
REMARK  Name = 14345560
REMARK  4 active torsions:
REMARK  status: ('A' for Active; 'I' for Inactive)
REMARK    1  A    between atoms: O_2  and  C_16
REMARK    2  A    between atoms: O_2  and  C_22
REMARK    3  A    between atoms: C_15  and  C_21
REMARK    4  A    between atoms: C_20  and  C_24
REMARK                            x       y       z     vdW  Elec       q    Type
REMARK                         _______ _______ _______ _____ _____    ______ ____
ROOT
ATOM      1  O   UNL     1     113.670 127.361 136.265  0.00  0.00    +0.000 OA
ATOM      2  O   UNL     1     112.468 126.847 138.013  0.00  0.00    +0.000 OA
ATOM      3  O   UNL     1     114.225 129.925 135.001  0.00  0.00    +0.000 OA
ATOM      4  C   UNL     1     112.835 127.291 137.423  0.00  0.00    +0.000 C 
ATOM      5  C   UNL     1     112.735 128.110 137.399  0.00  0.00    +0.000 C 
ATOM      6  C   UNL     1     113.102 128.553 136.809  0.00  0.00    +0.000 A 
ATOM      7  C   UNL     1     113.303 126.917 136.855  0.00  0.00    +0.000 C 
ATOM      8  C   UNL     1     112.990 129.406 136.796  0.00  0.00    +0.000 A 
ATOM      9  C   UNL     1     113.570 128.180 136.242  0.00  0.00    +0.000 A 
ATOM     10  C   UNL     1     113.370 129.874 136.184  0.00  0.00    +0.000 A 
ATOM     11  C   UNL     1     113.957 128.631 135.622  0.00  0.00    +0.000 A 
ATOM     12  C   UNL     1     113.856 129.484 135.593  0.00  0.00    +0.000 A 
ENDROOT
BRANCH   7  15
ATOM     13  O   UNL     1     114.860 124.632 137.577  0.00  0.00    +0.000 OA
ATOM     14  O   UNL     1     113.701 123.642 136.947  0.00  0.00    +0.000 OA
ATOM     15  C   UNL     1     113.403 126.098 136.878  0.00  0.00    +0.000 A 
ATOM     16  C   UNL     1     114.081 125.774 137.216  0.00  0.00    +0.000 A 
ATOM     17  C   UNL     1     112.823 125.603 136.563  0.00  0.00    +0.000 A 
ATOM     18  C   UNL     1     114.181 124.956 137.239  0.00  0.00    +0.000 A 
ATOM     19  C   UNL     1     112.922 124.785 136.586  0.00  0.00    +0.000 A 
ATOM     20  C   UNL     1     113.601 124.460 136.924  0.00  0.00    +0.000 A 
ENDBRANCH   7  15
BRANCH   8  21
ATOM     21  O   UNL     1     112.520 129.772 137.368  0.00  0.00    +0.000 OA
BRANCH  21  30
ATOM     22  O   UNL     1     111.391 130.111 136.561  0.00  0.00    +0.000 OA
ATOM     23  O   UNL     1     111.307 132.347 137.619  0.00  0.00    +0.000 OA
ATOM     24  O   UNL     1     110.206 131.941 136.461  0.00  0.00    +0.000 OA
ATOM     25  O   UNL     1     112.465 131.262 138.073  0.00  0.00    +0.000 OA
ATOM     26  C   UNL     1     111.335 131.602 137.267  0.00  0.00    +0.000 C 
ATOM     27  C   UNL     1     110.784 131.398 136.687  0.00  0.00    +0.000 C 
ATOM     28  C   UNL     1     111.914 131.059 137.494  0.00  0.00    +0.000 C 
ATOM     29  C   UNL     1     110.812 130.653 136.335  0.00  0.00    +0.000 C 
ATOM     30  C   UNL     1     111.942 130.313 137.141  0.00  0.00    +0.000 C 
BRANCH  29  32
ATOM     31  O   UNL     1     109.908 129.704 135.764  0.00  0.00    +0.000 OA
ATOM     32  C   UNL     1     110.262 130.450 135.755  0.00  0.00    +0.000 C 
ENDBRANCH  29  32
ENDBRANCH  21  30
ENDBRANCH   8  21
TORSDOF 4
ENDMDL
MODEL 3
REMARK VINA RESULT:      -8.9      9.040     10.000
REMARK  Name = 14345560
REMARK  4 active torsions:
REMARK  status: ('A' for Active; 'I' for Inactive)
REMARK    1  A    between atoms: O_2  and  C_16
REMARK    2  A    between atoms: O_2  and  C_22
REMARK    3  A    between atoms: C_15  and  C_21
REMARK    4  A    between atoms: C_20  and  C_24
REMARK                            x       y       z     vdW  Elec       q    Type
REMARK                         _______ _______ _______ _____ _____    ______ ____
ROOT
ATOM      1  O   UNL     1     113.227 129.234 138.962  0.00  0.00    +0.000 OA
ATOM      2  O   UNL     1     113.835 128.112 140.733  0.00  0.00    +0.000 OA
ATOM      3  O   UNL     1     111.897 128.386 136.513  0.00  0.00    +0.000 OA
ATOM      4  C   UNL     1     113.520 128.287 139.991  0.00  0.00    +0.000 C 
ATOM      5  C   UNL     1     113.182 127.687 139.535  0.00  0.00    +0.000 C 
ATOM      6  C   UNL     1     112.867 127.862 138.793  0.00  0.00    +0.000 A 
ATOM      7  C   UNL     1     113.542 129.060 139.703  0.00  0.00    +0.000 C 
ATOM      8  C   UNL     1     112.518 127.228 138.328  0.00  0.00    +0.000 A 
ATOM      9  C   UNL     1     112.889 128.635 138.505  0.00  0.00    +0.000 A 
ATOM     10  C   UNL     1     112.188 127.404 137.554  0.00  0.00    +0.000 A 
ATOM     11  C   UNL     1     112.565 128.828 137.734  0.00  0.00    +0.000 A 
ATOM     12  C   UNL     1     112.212 128.209 137.255  0.00  0.00    +0.000 A 
ENDROOT
BRANCH   7  15
ATOM     13  O   UNL     1     113.298 131.083 141.707  0.00  0.00    +0.000 OA
ATOM     14  O   UNL     1     114.895 131.455 141.526  0.00  0.00    +0.000 OA
ATOM     15  C   UNL     1     113.880 129.659 140.160  0.00  0.00    +0.000 A 
ATOM     16  C   UNL     1     113.420 130.072 140.705  0.00  0.00    +0.000 A 
ATOM     17  C   UNL     1     114.679 129.845 140.069  0.00  0.00    +0.000 A 
ATOM     18  C   UNL     1     113.758 130.670 141.161  0.00  0.00    +0.000 A 
ATOM     19  C   UNL     1     115.017 130.443 140.524  0.00  0.00    +0.000 A 
ATOM     20  C   UNL     1     114.557 130.857 141.071  0.00  0.00    +0.000 A 
ENDBRANCH   7  15
BRANCH   8  21
ATOM     21  O   UNL     1     112.500 126.458 138.622  0.00  0.00    +0.000 OA
BRANCH  21  30
ATOM     22  O   UNL     1     113.346 125.767 137.701  0.00  0.00    +0.000 OA
ATOM     23  O   UNL     1     111.623 124.011 137.435  0.00  0.00    +0.000 OA
ATOM     24  O   UNL     1     113.043 123.906 136.603  0.00  0.00    +0.000 OA
ATOM     25  O   UNL     1     111.351 125.287 138.445  0.00  0.00    +0.000 OA
ATOM     26  C   UNL     1     112.197 124.596 137.524  0.00  0.00    +0.000 C 
ATOM     27  C   UNL     1     112.908 124.544 137.108  0.00  0.00    +0.000 C 
ATOM     28  C   UNL     1     112.061 125.235 138.029  0.00  0.00    +0.000 C 
ATOM     29  C   UNL     1     113.482 125.129 137.197  0.00  0.00    +0.000 C 
ATOM     30  C   UNL     1     112.636 125.820 138.118  0.00  0.00    +0.000 C 
BRANCH  29  32
ATOM     31  O   UNL     1     114.909 125.201 137.170  0.00  0.00    +0.000 OA
ATOM     32  C   UNL     1     114.192 125.077 136.781  0.00  0.00    +0.000 C 
ENDBRANCH  29  32
ENDBRANCH  21  30
ENDBRANCH   8  21
TORSDOF 4
ENDMDL
MODEL 4
REMARK VINA RESULT:      -8.9      9.332     11.718
REMARK  Name = 14345560
REMARK  4 active torsions:
REMARK  status: ('A' for Active; 'I' for Inactive)
REMARK    1  A    between atoms: O_2  and  C_16
REMARK    2  A    between atoms: O_2  and  C_22
REMARK    3  A    between atoms: C_15  and  C_21
REMARK    4  A    between atoms: C_20  and  C_24
REMARK                            x       y       z     vdW  Elec       q    Type
REMARK                         _______ _______ _______ _____ _____    ______ ____
ROOT
ATOM      1  O   UNL     1     110.127 131.182 136.303  0.00  0.00    +0.000 OA
ATOM      2  O   UNL     1     109.543 129.932 134.612  0.00  0.00    +0.000 OA
ATOM      3  O   UNL     1     112.455 131.085 138.051  0.00  0.00    +0.000 OA
ATOM      4  C   UNL     1     109.975 130.231 135.248  0.00  0.00    +0.000 C 
ATOM      5  C   UNL     1     110.689 129.877 135.465  0.00  0.00    +0.000 C 
ATOM      6  C   UNL     1     111.121 130.175 136.101  0.00  0.00    +0.000 A 
ATOM      7  C   UNL     1     109.695 130.883 135.667  0.00  0.00    +0.000 C 
ATOM      8  C   UNL     1     111.862 129.797 136.316  0.00  0.00    +0.000 A 
ATOM      9  C   UNL     1     110.841 130.828 136.520  0.00  0.00    +0.000 A 
ATOM     10  C   UNL     1     112.317 130.104 136.978  0.00  0.00    +0.000 A 
ATOM     11  C   UNL     1     111.282 131.148 137.184  0.00  0.00    +0.000 A 
ATOM     12  C   UNL     1     112.025 130.784 137.415  0.00  0.00    +0.000 A 
ENDROOT
BRANCH   7  15
ATOM     13  O   UNL     1     106.881 131.214 136.039  0.00  0.00    +0.000 OA
ATOM     14  O   UNL     1     106.844 132.300 134.798  0.00  0.00    +0.000 OA
ATOM     15  C   UNL     1     108.982 131.238 135.450  0.00  0.00    +0.000 A 
ATOM     16  C   UNL     1     108.288 131.049 135.853  0.00  0.00    +0.000 A 
ATOM     17  C   UNL     1     108.964 131.781 134.829  0.00  0.00    +0.000 A 
ATOM     18  C   UNL     1     107.576 131.403 135.636  0.00  0.00    +0.000 A 
ATOM     19  C   UNL     1     108.252 132.134 134.612  0.00  0.00    +0.000 A 
ATOM     20  C   UNL     1     107.557 131.946 135.015  0.00  0.00    +0.000 A 
ENDBRANCH   7  15
BRANCH   8  21
ATOM     21  O   UNL     1     112.135 129.145 135.891  0.00  0.00    +0.000 OA
BRANCH  21  30
ATOM     22  O   UNL     1     111.983 128.134 136.890  0.00  0.00    +0.000 OA
ATOM     23  O   UNL     1     114.201 127.212 136.294  0.00  0.00    +0.000 OA
ATOM     24  O   UNL     1     113.309 126.508 137.490  0.00  0.00    +0.000 OA
ATOM     25  O   UNL     1     113.614 128.530 135.494  0.00  0.00    +0.000 OA
ATOM     26  C   UNL     1     113.462 127.519 136.492  0.00  0.00    +0.000 C 
ATOM     27  C   UNL     1     113.015 127.167 137.091  0.00  0.00    +0.000 C 
ATOM     28  C   UNL     1     113.168 128.179 136.092  0.00  0.00    +0.000 C 
ATOM     29  C   UNL     1     112.276 127.475 137.289  0.00  0.00    +0.000 C 
ATOM     30  C   UNL     1     112.428 128.486 136.291  0.00  0.00    +0.000 C 
BRANCH  29  32
ATOM     31  O   UNL     1     111.030 126.963 137.766  0.00  0.00    +0.000 OA
ATOM     32  C   UNL     1     111.830 127.123 137.887  0.00  0.00    +0.000 C 
ENDBRANCH  29  32
ENDBRANCH  21  30
ENDBRANCH   8  21
TORSDOF 4
ENDMDL
MODEL 5
REMARK VINA RESULT:      -8.9      9.458     11.362
REMARK  Name = 14345560
REMARK  4 active torsions:
REMARK  status: ('A' for Active; 'I' for Inactive)
REMARK    1  A    between atoms: O_2  and  C_16
REMARK    2  A    between atoms: O_2  and  C_22
REMARK    3  A    between atoms: C_15  and  C_21
REMARK    4  A    between atoms: C_20  and  C_24
REMARK                            x       y       z     vdW  Elec       q    Type
REMARK                         _______ _______ _______ _____ _____    ______ ____
ROOT
ATOM      1  O   UNL     1     111.981 126.513 136.033  0.00  0.00    +0.000 OA
ATOM      2  O   UNL     1     113.789 125.974 137.129  0.00  0.00    +0.000 OA
ATOM      3  O   UNL     1     111.235 128.961 134.643  0.00  0.00    +0.000 OA
ATOM      4  C   UNL     1     113.248 126.409 136.686  0.00  0.00    +0.000 C 
ATOM      5  C   UNL     1     113.432 127.179 136.450  0.00  0.00    +0.000 C 
ATOM      6  C   UNL     1     112.890 127.615 136.006  0.00  0.00    +0.000 A 
ATOM      7  C   UNL     1     112.522 126.077 136.477  0.00  0.00    +0.000 C 
ATOM      8  C   UNL     1     113.094 128.415 135.767  0.00  0.00    +0.000 A 
ATOM      9  C   UNL     1     112.164 127.282 135.797  0.00  0.00    +0.000 A 
ATOM     10  C   UNL     1     112.534 128.874 135.305  0.00  0.00    +0.000 A 
ATOM     11  C   UNL     1     111.593 127.727 135.335  0.00  0.00    +0.000 A 
ATOM     12  C   UNL     1     111.779 128.528 135.087  0.00  0.00    +0.000 A 
ENDROOT
BRANCH   7  15
ATOM     13  O   UNL     1     111.171 124.285 138.247  0.00  0.00    +0.000 OA
ATOM     14  O   UNL     1     111.789 123.000 137.417  0.00  0.00    +0.000 OA
ATOM     15  C   UNL     1     112.338 125.307 136.712  0.00  0.00    +0.000 A 
ATOM     16  C   UNL     1     111.847 125.181 137.361  0.00  0.00    +0.000 A 
ATOM     17  C   UNL     1     112.647 124.665 136.297  0.00  0.00    +0.000 A 
ATOM     18  C   UNL     1     111.663 124.412 137.596  0.00  0.00    +0.000 A 
ATOM     19  C   UNL     1     112.464 123.896 136.532  0.00  0.00    +0.000 A 
ATOM     20  C   UNL     1     111.972 123.769 137.182  0.00  0.00    +0.000 A 
ENDBRANCH   7  15
BRANCH   8  21
ATOM     21  O   UNL     1     113.822 128.740 135.980  0.00  0.00    +0.000 OA
BRANCH  21  30
ATOM     22  O   UNL     1     113.411 129.858 136.769  0.00  0.00    +0.000 OA
ATOM     23  O   UNL     1     114.976 131.314 135.521  0.00  0.00    +0.000 OA
ATOM     24  O   UNL     1     114.043 131.946 136.725  0.00  0.00    +0.000 OA
ATOM     25  O   UNL     1     114.865 129.710 135.148  0.00  0.00    +0.000 OA
ATOM     26  C   UNL     1     114.454 130.828 135.937  0.00  0.00    +0.000 C 
ATOM     27  C   UNL     1     113.988 131.144 136.539  0.00  0.00    +0.000 C 
ATOM     28  C   UNL     1     114.399 130.026 135.751  0.00  0.00    +0.000 C 
ATOM     29  C   UNL     1     113.466 130.659 136.956  0.00  0.00    +0.000 C 
ATOM     30  C   UNL     1     113.877 129.541 136.167  0.00  0.00    +0.000 C 
BRANCH  29  32
ATOM     31  O   UNL     1     112.898 130.560 138.263  0.00  0.00    +0.000 OA
ATOM     32  C   UNL     1     113.000 130.976 137.557  0.00  0.00    +0.000 C 
ENDBRANCH  29  32
ENDBRANCH  21  30
ENDBRANCH   8  21
TORSDOF 4
ENDMDL
MODEL 6
REMARK VINA RESULT:      -8.8      8.343     11.095
REMARK  Name = 14345560
REMARK  4 active torsions:
REMARK  status: ('A' for Active; 'I' for Inactive)
REMARK    1  A    between atoms: O_2  and  C_16
REMARK    2  A    between atoms: O_2  and  C_22
REMARK    3  A    between atoms: C_15  and  C_21
REMARK    4  A    between atoms: C_20  and  C_24
REMARK                            x       y       z     vdW  Elec       q    Type
REMARK                         _______ _______ _______ _____ _____    ______ ____
ROOT
ATOM      1  O   UNL     1     110.482 129.508 135.778  0.00  0.00    +0.000 OA
ATOM      2  O   UNL     1     108.484 128.657 135.553  0.00  0.00    +0.000 OA
ATOM      3  O   UNL     1     113.087 128.240 136.071  0.00  0.00    +0.000 OA
ATOM      4  C   UNL     1     109.302 128.712 135.645  0.00  0.00    +0.000 C 
ATOM      5  C   UNL     1     109.758 128.027 135.697  0.00  0.00    +0.000 C 
ATOM      6  C   UNL     1     110.576 128.082 135.789  0.00  0.00    +0.000 A 
ATOM      7  C   UNL     1     109.664 129.452 135.686  0.00  0.00    +0.000 C 
ATOM      8  C   UNL     1     111.040 127.360 135.841  0.00  0.00    +0.000 A 
ATOM      9  C   UNL     1     110.938 128.822 135.829  0.00  0.00    +0.000 A 
ATOM     10  C   UNL     1     111.892 127.411 135.937  0.00  0.00    +0.000 A 
ATOM     11  C   UNL     1     111.789 128.892 135.925  0.00  0.00    +0.000 A 
ATOM     12  C   UNL     1     112.269 128.182 135.979  0.00  0.00    +0.000 A 
ENDROOT
BRANCH   7  15
ATOM     13  O   UNL     1     107.940 131.377 136.908  0.00  0.00    +0.000 OA
ATOM     14  O   UNL     1     107.838 132.194 135.478  0.00  0.00    +0.000 OA
ATOM     15  C   UNL     1     109.207 130.138 135.634  0.00  0.00    +0.000 A 
ATOM     16  C   UNL     1     108.802 130.415 136.296  0.00  0.00    +0.000 A 
ATOM     17  C   UNL     1     109.157 130.546 134.919  0.00  0.00    +0.000 A 
ATOM     18  C   UNL     1     108.346 131.100 136.244  0.00  0.00    +0.000 A 
ATOM     19  C   UNL     1     108.700 131.231 134.867  0.00  0.00    +0.000 A 
ATOM     20  C   UNL     1     108.295 131.509 135.530  0.00  0.00    +0.000 A 
ENDBRANCH   7  15
BRANCH   8  21
ATOM     21  O   UNL     1     110.670 126.624 135.800  0.00  0.00    +0.000 OA
BRANCH  21  30
ATOM     22  O   UNL     1     110.863 126.148 137.133  0.00  0.00    +0.000 OA
ATOM     23  O   UNL     1     111.605 123.960 136.245  0.00  0.00    +0.000 OA
ATOM     24  O   UNL     1     111.551 124.214 137.874  0.00  0.00    +0.000 OA
ATOM     25  O   UNL     1     111.165 125.165 135.208  0.00  0.00    +0.000 OA
ATOM     26  C   UNL     1     111.358 124.690 136.541  0.00  0.00    +0.000 C 
ATOM     27  C   UNL     1     111.330 124.817 137.356  0.00  0.00    +0.000 C 
ATOM     28  C   UNL     1     111.137 125.293 136.022  0.00  0.00    +0.000 C 
ATOM     29  C   UNL     1     111.083 125.546 137.652  0.00  0.00    +0.000 C 
ATOM     30  C   UNL     1     110.890 126.022 136.318  0.00  0.00    +0.000 C 
BRANCH  29  32
ATOM     31  O   UNL     1     110.390 126.020 138.808  0.00  0.00    +0.000 OA
ATOM     32  C   UNL     1     111.056 125.673 138.466  0.00  0.00    +0.000 C 
ENDBRANCH  29  32
ENDBRANCH  21  30
ENDBRANCH   8  21
TORSDOF 4
ENDMDL
MODEL 7
REMARK VINA RESULT:      -8.8      8.081      9.766
REMARK  Name = 14345560
REMARK  4 active torsions:
REMARK  status: ('A' for Active; 'I' for Inactive)
REMARK    1  A    between atoms: O_2  and  C_16
REMARK    2  A    between atoms: O_2  and  C_22
REMARK    3  A    between atoms: C_15  and  C_21
REMARK    4  A    between atoms: C_20  and  C_24
REMARK                            x       y       z     vdW  Elec       q    Type
REMARK                         _______ _______ _______ _____ _____    ______ ____
ROOT
ATOM      1  O   UNL     1     111.546 125.840 137.559  0.00  0.00    +0.000 OA
ATOM      2  O   UNL     1     112.747 126.817 136.020  0.00  0.00    +0.000 OA
ATOM      3  O   UNL     1     108.792 126.266 138.405  0.00  0.00    +0.000 OA
ATOM      4  C   UNL     1     112.109 126.627 136.507  0.00  0.00    +0.000 C 
ATOM      5  C   UNL     1     111.394 127.033 136.429  0.00  0.00    +0.000 C 
ATOM      6  C   UNL     1     110.757 126.843 136.916  0.00  0.00    +0.000 A 
ATOM      7  C   UNL     1     112.184 126.030 137.072  0.00  0.00    +0.000 C 
ATOM      8  C   UNL     1     110.018 127.274 136.824  0.00  0.00    +0.000 A 
ATOM      9  C   UNL     1     110.831 126.246 137.481  0.00  0.00    +0.000 A 
ATOM     10  C   UNL     1     109.350 127.080 137.328  0.00  0.00    +0.000 A 
ATOM     11  C   UNL     1     110.174 126.040 137.993  0.00  0.00    +0.000 A 
ATOM     12  C   UNL     1     109.428 126.459 137.917  0.00  0.00    +0.000 A 
ENDROOT
BRANCH   7  15
ATOM     13  O   UNL     1     114.694 125.666 138.389  0.00  0.00    +0.000 OA
ATOM     14  O   UNL     1     115.039 124.405 137.382  0.00  0.00    +0.000 OA
ATOM     15  C   UNL     1     112.898 125.624 137.150  0.00  0.00    +0.000 A 
ATOM     16  C   UNL     1     113.439 125.848 137.730  0.00  0.00    +0.000 A 
ATOM     17  C   UNL     1     113.070 124.994 136.647  0.00  0.00    +0.000 A 
ATOM     18  C   UNL     1     114.153 125.442 137.808  0.00  0.00    +0.000 A 
ATOM     19  C   UNL     1     113.784 124.587 136.724  0.00  0.00    +0.000 A 
ATOM     20  C   UNL     1     114.325 124.811 137.305  0.00  0.00    +0.000 A 
ENDBRANCH   7  15
BRANCH   8  21
ATOM     21  O   UNL     1     109.952 127.869 136.256  0.00  0.00    +0.000 OA
BRANCH  21  30
ATOM     22  O   UNL     1     109.836 129.021 137.093  0.00  0.00    +0.000 OA
ATOM     23  O   UNL     1     107.943 129.829 135.718  0.00  0.00    +0.000 OA
ATOM     24  O   UNL     1     108.458 130.712 137.013  0.00  0.00    +0.000 OA
ATOM     25  O   UNL     1     108.690 128.407 135.340  0.00  0.00    +0.000 OA
ATOM     26  C   UNL     1     108.574 129.560 136.176  0.00  0.00    +0.000 C 
ATOM     27  C   UNL     1     108.832 130.001 136.824  0.00  0.00    +0.000 C 
ATOM     28  C   UNL     1     108.948 128.848 135.987  0.00  0.00    +0.000 C 
ATOM     29  C   UNL     1     109.463 129.731 137.282  0.00  0.00    +0.000 C 
ATOM     30  C   UNL     1     109.579 128.579 136.446  0.00  0.00    +0.000 C 
BRANCH  29  32
ATOM     31  O   UNL     1     110.527 130.245 138.086  0.00  0.00    +0.000 OA
ATOM     32  C   UNL     1     109.720 130.173 137.929  0.00  0.00    +0.000 C 
ENDBRANCH  29  32
ENDBRANCH  21  30
ENDBRANCH   8  21
TORSDOF 4
ENDMDL
MODEL 8
REMARK VINA RESULT:      -8.8      8.784     10.173
REMARK  Name = 14345560
REMARK  4 active torsions:
REMARK  status: ('A' for Active; 'I' for Inactive)
REMARK    1  A    between atoms: O_2  and  C_16
REMARK    2  A    between atoms: O_2  and  C_22
REMARK    3  A    between atoms: C_15  and  C_21
REMARK    4  A    between atoms: C_20  and  C_24
REMARK                            x       y       z     vdW  Elec       q    Type
REMARK                         _______ _______ _______ _____ _____    ______ ____
ROOT
ATOM      1  O   UNL     1     111.545 127.161 136.281  0.00  0.00    +0.000 OA
ATOM      2  O   UNL     1     109.599 126.173 136.262  0.00  0.00    +0.000 OA
ATOM      3  O   UNL     1     112.288 129.949 135.890  0.00  0.00    +0.000 OA
ATOM      4  C   UNL     1     110.174 126.762 136.219  0.00  0.00    +0.000 C 
ATOM      5  C   UNL     1     109.954 127.544 136.069  0.00  0.00    +0.000 C 
ATOM      6  C   UNL     1     110.530 128.133 136.026  0.00  0.00    +0.000 A 
ATOM      7  C   UNL     1     110.970 126.571 136.324  0.00  0.00    +0.000 C 
ATOM      8  C   UNL     1     110.287 128.943 135.870  0.00  0.00    +0.000 A 
ATOM      9  C   UNL     1     111.326 127.942 136.131  0.00  0.00    +0.000 A 
ATOM     10  C   UNL     1     110.882 129.561 135.823  0.00  0.00    +0.000 A 
ATOM     11  C   UNL     1     111.933 128.547 136.088  0.00  0.00    +0.000 A 
ATOM     12  C   UNL     1     111.710 129.362 135.933  0.00  0.00    +0.000 A 
ENDROOT
BRANCH   7  15
ATOM     13  O   UNL     1     111.522 124.465 138.175  0.00  0.00    +0.000 OA
ATOM     14  O   UNL     1     111.850 123.447 136.919  0.00  0.00    +0.000 OA
ATOM     15  C   UNL     1     111.190 125.790 136.474  0.00  0.00    +0.000 A 
ATOM     16  C   UNL     1     111.246 125.518 137.249  0.00  0.00    +0.000 A 
ATOM     17  C   UNL     1     111.354 125.281 135.845  0.00  0.00    +0.000 A 
ATOM     18  C   UNL     1     111.466 124.737 137.398  0.00  0.00    +0.000 A 
ATOM     19  C   UNL     1     111.574 124.500 135.994  0.00  0.00    +0.000 A 
ATOM     20  C   UNL     1     111.630 124.227 136.770  0.00  0.00    +0.000 A 
ENDBRANCH   7  15
BRANCH   8  21
ATOM     21  O   UNL     1     109.489 129.125 135.765  0.00  0.00    +0.000 OA
BRANCH  21  30
ATOM     22  O   UNL     1     109.235 129.834 136.980  0.00  0.00    +0.000 OA
ATOM     23  O   UNL     1     108.011 131.570 135.709  0.00  0.00    +0.000 OA
ATOM     24  O   UNL     1     108.165 131.700 137.346  0.00  0.00    +0.000 OA
ATOM     25  O   UNL     1     108.674 130.282 134.918  0.00  0.00    +0.000 OA
ATOM     26  C   UNL     1     108.419 130.991 136.132  0.00  0.00    +0.000 C 
ATOM     27  C   UNL     1     108.496 131.056 136.951  0.00  0.00    +0.000 C 
ATOM     28  C   UNL     1     108.751 130.347 135.737  0.00  0.00    +0.000 C 
ATOM     29  C   UNL     1     108.904 130.477 137.375  0.00  0.00    +0.000 C 
ATOM     30  C   UNL     1     109.158 129.768 136.161  0.00  0.00    +0.000 C 
BRANCH  29  32
ATOM     31  O   UNL     1     108.824 129.892 138.676  0.00  0.00    +0.000 OA
ATOM     32  C   UNL     1     108.980 130.543 138.193  0.00  0.00    +0.000 C 
ENDBRANCH  29  32
ENDBRANCH  21  30
ENDBRANCH   8  21
TORSDOF 4
ENDMDL
MODEL 9
REMARK VINA RESULT:      -8.7      8.628     10.122
REMARK  Name = 14345560
REMARK  4 active torsions:
REMARK  status: ('A' for Active; 'I' for Inactive)
REMARK    1  A    between atoms: O_2  and  C_16
REMARK    2  A    between atoms: O_2  and  C_22
REMARK    3  A    between atoms: C_15  and  C_21
REMARK    4  A    between atoms: C_20  and  C_24
REMARK                            x       y       z     vdW  Elec       q    Type
REMARK                         _______ _______ _______ _____ _____    ______ ____
ROOT
ATOM      1  O   UNL     1     112.949 127.446 137.782  0.00  0.00    +0.000 OA
ATOM      2  O   UNL     1     113.249 126.124 139.492  0.00  0.00    +0.000 OA
ATOM      3  O   UNL     1     112.480 130.316 137.632  0.00  0.00    +0.000 OA
ATOM      4  C   UNL     1     113.116 126.806 139.049  0.00  0.00    +0.000 C 
ATOM      5  C   UNL     1     113.019 127.533 139.428  0.00  0.00    +0.000 C 
ATOM      6  C   UNL     1     112.886 128.215 138.985  0.00  0.00    +0.000 A 
ATOM      7  C   UNL     1     113.082 126.764 138.225  0.00  0.00    +0.000 C 
ATOM      8  C   UNL     1     112.786 128.965 139.392  0.00  0.00    +0.000 A 
ATOM      9  C   UNL     1     112.852 128.173 138.161  0.00  0.00    +0.000 A 
ATOM     10  C   UNL     1     112.648 129.680 138.936  0.00  0.00    +0.000 A 
ATOM     11  C   UNL     1     112.714 128.877 137.689  0.00  0.00    +0.000 A 
ATOM     12  C   UNL     1     112.612 129.635 138.078  0.00  0.00    +0.000 A 
ENDROOT
BRANCH   7  15
ATOM     13  O   UNL     1     111.959 124.411 137.054  0.00  0.00    +0.000 OA
ATOM     14  O   UNL     1     113.475 123.859 136.708  0.00  0.00    +0.000 OA
ATOM     15  C   UNL     1     113.179 126.037 137.846  0.00  0.00    +0.000 A 
ATOM     16  C   UNL     1     112.521 125.587 137.639  0.00  0.00    +0.000 A 
ATOM     17  C   UNL     1     113.938 125.762 137.673  0.00  0.00    +0.000 A 
ATOM     18  C   UNL     1     112.619 124.861 137.260  0.00  0.00    +0.000 A 
ATOM     19  C   UNL     1     114.036 125.036 137.294  0.00  0.00    +0.000 A 
ATOM     20  C   UNL     1     113.377 124.585 137.087  0.00  0.00    +0.000 A 
ENDBRANCH   7  15
BRANCH   8  21
ATOM     21  O   UNL     1     112.822 128.999 140.216  0.00  0.00    +0.000 OA
BRANCH  21  30
ATOM     22  O   UNL     1     113.975 129.825 140.392  0.00  0.00    +0.000 OA
ATOM     23  O   UNL     1     112.761 131.157 142.089  0.00  0.00    +0.000 OA
ATOM     24  O   UNL     1     114.318 131.538 141.699  0.00  0.00    +0.000 OA
ATOM     25  O   UNL     1     112.013 129.887 141.347  0.00  0.00    +0.000 OA
ATOM     26  C   UNL     1     113.166 130.713 141.523  0.00  0.00    +0.000 C 
ATOM     27  C   UNL     1     113.944 130.903 141.328  0.00  0.00    +0.000 C 
ATOM     28  C   UNL     1     112.792 130.077 141.152  0.00  0.00    +0.000 C 
ATOM     29  C   UNL     1     114.349 130.459 140.763  0.00  0.00    +0.000 C 
ATOM     30  C   UNL     1     113.196 129.633 140.586  0.00  0.00    +0.000 C 
BRANCH  29  32
ATOM     31  O   UNL     1     115.705 130.061 140.551  0.00  0.00    +0.000 OA
ATOM     32  C   UNL     1     115.127 130.650 140.568  0.00  0.00    +0.000 C 
ENDBRANCH  29  32
ENDBRANCH  21  30
ENDBRANCH   8  21
TORSDOF 4
ENDMDL
MODEL 10
REMARK VINA RESULT:      -8.7      6.639      9.506
REMARK  Name = 14345560
REMARK  4 active torsions:
REMARK  status: ('A' for Active; 'I' for Inactive)
REMARK    1  A    between atoms: O_2  and  C_16
REMARK    2  A    between atoms: O_2  and  C_22
REMARK    3  A    between atoms: C_15  and  C_21
REMARK    4  A    between atoms: C_20  and  C_24
REMARK                            x       y       z     vdW  Elec       q    Type
REMARK                         _______ _______ _______ _____ _____    ______ ____
ROOT
ATOM      1  O   UNL     1     113.319 126.330 138.944  0.00  0.00    +0.000 OA
ATOM      2  O   UNL     1     111.658 127.362 137.976  0.00  0.00    +0.000 OA
ATOM      3  O   UNL     1     115.038 127.115 141.161  0.00  0.00    +0.000 OA
ATOM      4  C   UNL     1     112.282 127.202 138.489  0.00  0.00    +0.000 C 
ATOM      5  C   UNL     1     112.496 127.755 139.064  0.00  0.00    +0.000 C 
ATOM      6  C   UNL     1     113.121 127.595 139.578  0.00  0.00    +0.000 A 
ATOM      7  C   UNL     1     112.694 126.490 138.431  0.00  0.00    +0.000 C 
ATOM      8  C   UNL     1     113.334 128.180 140.171  0.00  0.00    +0.000 A 
ATOM      9  C   UNL     1     113.533 126.883 139.519  0.00  0.00    +0.000 A 
ATOM     10  C   UNL     1     113.984 128.019 140.710  0.00  0.00    +0.000 A 
ATOM     11  C   UNL     1     114.185 126.706 140.048  0.00  0.00    +0.000 A 
ATOM     12  C   UNL     1     114.412 127.277 140.648  0.00  0.00    +0.000 A 
ENDROOT
BRANCH   7  15
ATOM     13  O   UNL     1     111.308 124.103 137.686  0.00  0.00    +0.000 OA
ATOM     14  O   UNL     1     111.840 124.279 136.133  0.00  0.00    +0.000 OA
ATOM     15  C   UNL     1     112.480 125.936 137.856  0.00  0.00    +0.000 A 
ATOM     16  C   UNL     1     112.001 125.297 138.058  0.00  0.00    +0.000 A 
ATOM     17  C   UNL     1     112.746 126.025 137.080  0.00  0.00    +0.000 A 
ATOM     18  C   UNL     1     111.788 124.744 137.484  0.00  0.00    +0.000 A 
ATOM     19  C   UNL     1     112.532 125.473 136.506  0.00  0.00    +0.000 A 
ATOM     20  C   UNL     1     112.053 124.832 136.707  0.00  0.00    +0.000 A 
ENDBRANCH   7  15
BRANCH   8  21
ATOM     21  O   UNL     1     112.917 128.890 140.223  0.00  0.00    +0.000 OA
BRANCH  21  30
ATOM     22  O   UNL     1     112.320 128.712 141.509  0.00  0.00    +0.000 OA
ATOM     23  O   UNL     1     112.856 131.060 142.082  0.00  0.00    +0.000 OA
ATOM     24  O   UNL     1     112.081 130.100 143.177  0.00  0.00    +0.000 OA
ATOM     25  O   UNL     1     113.274 130.455 140.605  0.00  0.00    +0.000 OA
ATOM     26  C   UNL     1     112.677 130.277 141.891  0.00  0.00    +0.000 C 
ATOM     27  C   UNL     1     112.290 129.797 142.438  0.00  0.00    +0.000 C 
ATOM     28  C   UNL     1     112.887 129.974 141.152  0.00  0.00    +0.000 C 
ATOM     29  C   UNL     1     112.111 129.014 142.247  0.00  0.00    +0.000 C 
ATOM     30  C   UNL     1     112.708 129.192 140.961  0.00  0.00    +0.000 C 
BRANCH  29  32
ATOM     31  O   UNL     1     111.142 128.007 142.543  0.00  0.00    +0.000 OA
ATOM     32  C   UNL     1     111.723 128.535 142.795  0.00  0.00    +0.000 C 
ENDBRANCH  29  32
ENDBRANCH  21  30
ENDBRANCH   8  21
TORSDOF 4
ENDMDL
