MODEL 1
REMARK VINA RESULT:      -8.2      0.000      0.000
REMARK  Name = 12289982
REMARK  5 active torsions:
REMARK  status: ('A' for Active; 'I' for Inactive)
REMARK    1  A    between atoms: O_2  and  C_12
REMARK    2  A    between atoms: O_3  and  C_17
REMARK    3  A    between atoms: O_7  and  C_21
REMARK    4  A    between atoms: O_8  and  C_22
REMARK    5  A    between atoms: C_11  and  C_13
REMARK                            x       y       z     vdW  Elec       q    Type
REMARK                         _______ _______ _______ _____ _____    ______ ____
ROOT
ATOM      1  O   UNL     1     105.127 124.332 147.473  0.00  0.00    +0.000 OA
ATOM      2  O   UNL     1     105.782 124.144 149.003  0.00  0.00    +0.000 OA
ATOM      3  O   UNL     1     107.564 125.577 146.546  0.00  0.00    +0.000 OA
ATOM      4  O   UNL     1     106.440 125.389 145.661  0.00  0.00    +0.000 OA
ATOM      5  C   UNL     1     106.332 124.948 147.015  0.00  0.00    +0.000 A 
ATOM      6  C   UNL     1     105.894 124.596 147.619  0.00  0.00    +0.000 A 
ATOM      7  C   UNL     1     104.796 124.422 146.721  0.00  0.00    +0.000 A 
ATOM      8  C   UNL     1     105.234 124.774 146.117  0.00  0.00    +0.000 A 
ATOM      9  C   UNL     1     106.002 125.037 146.265  0.00  0.00    +0.000 A 
ATOM     10  C   UNL     1     106.227 124.498 148.406  0.00  0.00    +0.000 A 
ATOM     11  C   UNL     1     107.134 125.226 147.156  0.00  0.00    +0.000 A 
ATOM     12  C   UNL     1     107.027 124.770 148.565  0.00  0.00    +0.000 A 
ATOM     13  C   UNL     1     107.482 125.136 147.936  0.00  0.00    +0.000 A 
ENDROOT
BRANCH   7  14
ATOM     14  C   UNL     1     104.029 124.158 146.575  0.00  0.00    +0.000 A 
ATOM     15  C   UNL     1     103.384 124.586 146.860  0.00  0.00    +0.000 A 
ATOM     16  C   UNL     1     103.906 123.465 146.143  0.00  0.00    +0.000 A 
ATOM     17  C   UNL     1     102.616 124.322 146.713  0.00  0.00    +0.000 A 
ATOM     18  C   UNL     1     102.493 123.630 146.282  0.00  0.00    +0.000 A 
ATOM     19  C   UNL     1     103.138 123.202 145.997  0.00  0.00    +0.000 A 
BRANCH  17  20
ATOM     20  O   UNL     1     101.971 124.750 146.998  0.00  0.00    +0.000 OA
ATOM     21  C   UNL     1     102.032 125.164 147.709  0.00  0.00    +0.000 C 
ENDBRANCH  17  20
BRANCH  18  22
ATOM     22  O   UNL     1     101.725 123.366 146.135  0.00  0.00    +0.000 OA
ATOM     23  C   UNL     1     101.595 122.754 145.598  0.00  0.00    +0.000 C 
ENDBRANCH  18  22
ENDBRANCH   7  14
BRANCH   8  24
ATOM     24  O   UNL     1     104.904 124.863 145.367  0.00  0.00    +0.000 OA
ATOM     25  C   UNL     1     105.331 125.240 144.771  0.00  0.00    +0.000 C 
ENDBRANCH   8  24
BRANCH  12  26
ATOM     26  O   UNL     1     107.354 124.679 149.317  0.00  0.00    +0.000 OA
ATOM     27  C   UNL     1     108.159 124.518 149.399  0.00  0.00    +0.000 C 
ENDBRANCH  12  26
TORSDOF 5
ENDMDL
MODEL 2
REMARK VINA RESULT:      -8.0      1.048      4.633
REMARK  Name = 12289982
REMARK  5 active torsions:
REMARK  status: ('A' for Active; 'I' for Inactive)
REMARK    1  A    between atoms: O_2  and  C_12
REMARK    2  A    between atoms: O_3  and  C_17
REMARK    3  A    between atoms: O_7  and  C_21
REMARK    4  A    between atoms: O_8  and  C_22
REMARK    5  A    between atoms: C_11  and  C_13
REMARK                            x       y       z     vdW  Elec       q    Type
REMARK                         _______ _______ _______ _____ _____    ______ ____
ROOT
ATOM      1  O   UNL     1     104.269 124.226 146.691  0.00  0.00    +0.000 OA
ATOM      2  O   UNL     1     103.634 122.979 145.770  0.00  0.00    +0.000 OA
ATOM      3  O   UNL     1     101.614 125.013 147.517  0.00  0.00    +0.000 OA
ATOM      4  O   UNL     1     102.780 125.725 147.979  0.00  0.00    +0.000 OA
ATOM      5  C   UNL     1     102.956 124.614 147.099  0.00  0.00    +0.000 A 
ATOM      6  C   UNL     1     103.452 124.115 146.670  0.00  0.00    +0.000 A 
ATOM      7  C   UNL     1     104.590 124.838 147.143  0.00  0.00    +0.000 A 
ATOM      8  C   UNL     1     104.093 125.338 147.573  0.00  0.00    +0.000 A 
ATOM      9  C   UNL     1     103.276 125.226 147.550  0.00  0.00    +0.000 A 
ATOM     10  C   UNL     1     103.130 123.474 146.196  0.00  0.00    +0.000 A 
ATOM     11  C   UNL     1     102.103 124.508 147.084  0.00  0.00    +0.000 A 
ATOM     12  C   UNL     1     102.280 123.353 146.169  0.00  0.00    +0.000 A 
ATOM     13  C   UNL     1     101.763 123.873 146.616  0.00  0.00    +0.000 A 
ENDROOT
BRANCH   7  14
ATOM     14  C   UNL     1     105.407 124.950 147.165  0.00  0.00    +0.000 A 
ATOM     15  C   UNL     1     105.791 125.311 146.531  0.00  0.00    +0.000 A 
ATOM     16  C   UNL     1     105.840 124.699 147.822  0.00  0.00    +0.000 A 
ATOM     17  C   UNL     1     106.609 125.422 146.554  0.00  0.00    +0.000 A 
ATOM     18  C   UNL     1     107.041 125.172 147.209  0.00  0.00    +0.000 A 
ATOM     19  C   UNL     1     106.657 124.810 147.844  0.00  0.00    +0.000 A 
BRANCH  17  20
ATOM     20  O   UNL     1     106.993 125.783 145.919  0.00  0.00    +0.000 OA
ATOM     21  C   UNL     1     106.579 126.294 145.422  0.00  0.00    +0.000 C 
ENDBRANCH  17  20
BRANCH  18  22
ATOM     22  O   UNL     1     107.859 125.282 147.232  0.00  0.00    +0.000 OA
ATOM     23  C   UNL     1     108.290 125.040 147.891  0.00  0.00    +0.000 C 
ENDBRANCH  18  22
ENDBRANCH   7  14
BRANCH   8  24
ATOM     24  O   UNL     1     104.414 125.949 148.024  0.00  0.00    +0.000 OA
ATOM     25  C   UNL     1     103.936 126.576 148.266  0.00  0.00    +0.000 C 
ENDBRANCH   8  24
BRANCH  12  26
ATOM     26  O   UNL     1     101.963 122.739 145.716  0.00  0.00    +0.000 OA
ATOM     27  C   UNL     1     101.164 122.752 145.508  0.00  0.00    +0.000 C 
ENDBRANCH  12  26
TORSDOF 5
ENDMDL
MODEL 3
REMARK VINA RESULT:      -7.8      1.245      4.289
REMARK  Name = 12289982
REMARK  5 active torsions:
REMARK  status: ('A' for Active; 'I' for Inactive)
REMARK    1  A    between atoms: O_2  and  C_12
REMARK    2  A    between atoms: O_3  and  C_17
REMARK    3  A    between atoms: O_7  and  C_21
REMARK    4  A    between atoms: O_8  and  C_22
REMARK    5  A    between atoms: C_11  and  C_13
REMARK                            x       y       z     vdW  Elec       q    Type
REMARK                         _______ _______ _______ _____ _____    ______ ____
ROOT
ATOM      1  O   UNL     1     104.576 124.858 146.841  0.00  0.00    +0.000 OA
ATOM      2  O   UNL     1     103.395 124.657 148.011  0.00  0.00    +0.000 OA
ATOM      3  O   UNL     1     103.392 122.767 145.237  0.00  0.00    +0.000 OA
ATOM      4  O   UNL     1     104.575 123.464 144.795  0.00  0.00    +0.000 OA
ATOM      5  C   UNL     1     103.990 123.824 146.048  0.00  0.00    +0.000 A 
ATOM      6  C   UNL     1     103.991 124.288 146.730  0.00  0.00    +0.000 A 
ATOM      7  C   UNL     1     105.162 124.964 146.268  0.00  0.00    +0.000 A 
ATOM      8  C   UNL     1     105.162 124.499 145.587  0.00  0.00    +0.000 A 
ATOM      9  C   UNL     1     104.575 123.929 145.477  0.00  0.00    +0.000 A 
ATOM     10  C   UNL     1     103.386 124.188 147.332  0.00  0.00    +0.000 A 
ATOM     11  C   UNL     1     103.384 123.227 145.922  0.00  0.00    +0.000 A 
ATOM     12  C   UNL     1     102.773 123.596 147.223  0.00  0.00    +0.000 A 
ATOM     13  C   UNL     1     102.772 123.112 146.513  0.00  0.00    +0.000 A 
ENDROOT
BRANCH   7  14
ATOM     14  C   UNL     1     105.748 125.534 146.379  0.00  0.00    +0.000 A 
ATOM     15  C   UNL     1     106.454 125.333 146.757  0.00  0.00    +0.000 A 
ATOM     16  C   UNL     1     105.628 126.305 146.111  0.00  0.00    +0.000 A 
ATOM     17  C   UNL     1     107.039 125.904 146.867  0.00  0.00    +0.000 A 
ATOM     18  C   UNL     1     106.919 126.675 146.600  0.00  0.00    +0.000 A 
ATOM     19  C   UNL     1     106.214 126.875 146.222  0.00  0.00    +0.000 A 
BRANCH  17  20
ATOM     20  O   UNL     1     107.744 125.703 147.246  0.00  0.00    +0.000 OA
ATOM     21  C   UNL     1     107.752 125.108 147.816  0.00  0.00    +0.000 C 
ENDBRANCH  17  20
BRANCH  18  22
ATOM     22  O   UNL     1     107.505 127.246 146.711  0.00  0.00    +0.000 OA
ATOM     23  C   UNL     1     107.406 128.003 146.400  0.00  0.00    +0.000 C 
ENDBRANCH  18  22
ENDBRANCH   7  14
BRANCH   8  24
ATOM     24  O   UNL     1     105.747 124.604 145.016  0.00  0.00    +0.000 OA
ATOM     25  C   UNL     1     105.590 124.423 144.226  0.00  0.00    +0.000 C 
ENDBRANCH   8  24
BRANCH  12  26
ATOM     26  O   UNL     1     102.189 123.493 147.797  0.00  0.00    +0.000 OA
ATOM     27  C   UNL     1     101.633 122.889 147.715  0.00  0.00    +0.000 C 
ENDBRANCH  12  26
TORSDOF 5
ENDMDL
MODEL 4
REMARK VINA RESULT:      -7.7      2.256      4.322
REMARK  Name = 12289982
REMARK  5 active torsions:
REMARK  status: ('A' for Active; 'I' for Inactive)
REMARK    1  A    between atoms: O_2  and  C_12
REMARK    2  A    between atoms: O_3  and  C_17
REMARK    3  A    between atoms: O_7  and  C_21
REMARK    4  A    between atoms: O_8  and  C_22
REMARK    5  A    between atoms: C_11  and  C_13
REMARK                            x       y       z     vdW  Elec       q    Type
REMARK                         _______ _______ _______ _____ _____    ______ ____
ROOT
ATOM      1  O   UNL     1     106.361 125.145 145.732  0.00  0.00    +0.000 OA
ATOM      2  O   UNL     1     105.951 124.082 144.503  0.00  0.00    +0.000 OA
ATOM      3  O   UNL     1     106.181 127.378 143.907  0.00  0.00    +0.000 OA
ATOM      4  O   UNL     1     106.531 127.574 145.292  0.00  0.00    +0.000 OA
ATOM      5  C   UNL     1     106.272 126.249 144.828  0.00  0.00    +0.000 A 
ATOM      6  C   UNL     1     106.215 125.439 144.975  0.00  0.00    +0.000 A 
ATOM      7  C   UNL     1     106.564 125.662 146.343  0.00  0.00    +0.000 A 
ATOM      8  C   UNL     1     106.621 126.472 146.196  0.00  0.00    +0.000 A 
ATOM      9  C   UNL     1     106.475 126.765 145.439  0.00  0.00    +0.000 A 
ATOM     10  C   UNL     1     106.005 124.891 144.347  0.00  0.00    +0.000 A 
ATOM     11  C   UNL     1     106.122 126.566 144.044  0.00  0.00    +0.000 A 
ATOM     12  C   UNL     1     105.852 125.190 143.557  0.00  0.00    +0.000 A 
ATOM     13  C   UNL     1     105.911 126.034 143.404  0.00  0.00    +0.000 A 
ENDROOT
BRANCH   7  14
ATOM     14  C   UNL     1     106.710 125.368 147.099  0.00  0.00    +0.000 A 
ATOM     15  C   UNL     1     106.081 125.194 147.603  0.00  0.00    +0.000 A 
ATOM     16  C   UNL     1     107.487 125.247 147.352  0.00  0.00    +0.000 A 
ATOM     17  C   UNL     1     106.228 124.900 148.360  0.00  0.00    +0.000 A 
ATOM     18  C   UNL     1     107.003 124.780 148.613  0.00  0.00    +0.000 A 
ATOM     19  C   UNL     1     107.633 124.953 148.109  0.00  0.00    +0.000 A 
BRANCH  17  20
ATOM     20  O   UNL     1     105.599 124.726 148.864  0.00  0.00    +0.000 OA
ATOM     21  C   UNL     1     104.822 124.788 148.592  0.00  0.00    +0.000 C 
ENDBRANCH  17  20
BRANCH  18  22
ATOM     22  O   UNL     1     107.151 124.485 149.370  0.00  0.00    +0.000 OA
ATOM     23  C   UNL     1     107.925 124.338 149.612  0.00  0.00    +0.000 C 
ENDBRANCH  18  22
ENDBRANCH   7  14
BRANCH   8  24
ATOM     24  O   UNL     1     106.824 126.988 146.806  0.00  0.00    +0.000 OA
ATOM     25  C   UNL     1     106.622 127.786 146.755  0.00  0.00    +0.000 C 
ENDBRANCH   8  24
BRANCH  12  26
ATOM     26  O   UNL     1     105.649 124.671 142.948  0.00  0.00    +0.000 OA
ATOM     27  C   UNL     1     105.828 124.863 142.166  0.00  0.00    +0.000 C 
ENDBRANCH  12  26
TORSDOF 5
ENDMDL
MODEL 5
REMARK VINA RESULT:      -7.6      1.247      3.134
REMARK  Name = 12289982
REMARK  5 active torsions:
REMARK  status: ('A' for Active; 'I' for Inactive)
REMARK    1  A    between atoms: O_2  and  C_12
REMARK    2  A    between atoms: O_3  and  C_17
REMARK    3  A    between atoms: O_7  and  C_21
REMARK    4  A    between atoms: O_8  and  C_22
REMARK    5  A    between atoms: C_11  and  C_13
REMARK                            x       y       z     vdW  Elec       q    Type
REMARK                         _______ _______ _______ _____ _____    ______ ____
ROOT
ATOM      1  O   UNL     1     106.488 125.133 146.286  0.00  0.00    +0.000 OA
ATOM      2  O   UNL     1     107.943 125.197 147.115  0.00  0.00    +0.000 OA
ATOM      3  O   UNL     1     105.097 124.417 148.715  0.00  0.00    +0.000 OA
ATOM      4  O   UNL     1     104.390 124.557 147.466  0.00  0.00    +0.000 OA
ATOM      5  C   UNL     1     105.801 124.779 147.488  0.00  0.00    +0.000 A 
ATOM      6  C   UNL     1     106.500 124.970 147.095  0.00  0.00    +0.000 A 
ATOM      7  C   UNL     1     105.775 125.103 145.870  0.00  0.00    +0.000 A 
ATOM      8  C   UNL     1     105.076 124.911 146.264  0.00  0.00    +0.000 A 
ATOM      9  C   UNL     1     105.089 124.749 147.073  0.00  0.00    +0.000 A 
ATOM     10  C   UNL     1     107.248 125.004 147.517  0.00  0.00    +0.000 A 
ATOM     11  C   UNL     1     105.801 124.607 148.331  0.00  0.00    +0.000 A 
ATOM     12  C   UNL     1     107.268 124.836 148.359  0.00  0.00    +0.000 A 
ATOM     13  C   UNL     1     106.540 124.637 148.768  0.00  0.00    +0.000 A 
ENDROOT
BRANCH   7  14
ATOM     14  C   UNL     1     105.763 125.265 145.062  0.00  0.00    +0.000 A 
ATOM     15  C   UNL     1     105.661 126.040 144.797  0.00  0.00    +0.000 A 
ATOM     16  C   UNL     1     105.854 124.651 144.517  0.00  0.00    +0.000 A 
ATOM     17  C   UNL     1     105.649 126.201 143.988  0.00  0.00    +0.000 A 
ATOM     18  C   UNL     1     105.739 125.589 143.444  0.00  0.00    +0.000 A 
ATOM     19  C   UNL     1     105.841 124.814 143.708  0.00  0.00    +0.000 A 
BRANCH  17  20
ATOM     20  O   UNL     1     105.546 126.976 143.724  0.00  0.00    +0.000 OA
ATOM     21  C   UNL     1     105.574 127.602 144.260  0.00  0.00    +0.000 C 
ENDBRANCH  17  20
BRANCH  18  22
ATOM     22  O   UNL     1     105.727 125.750 142.635  0.00  0.00    +0.000 OA
ATOM     23  C   UNL     1     105.853 125.143 142.091  0.00  0.00    +0.000 C 
ENDBRANCH  18  22
ENDBRANCH   7  14
BRANCH   8  24
ATOM     24  O   UNL     1     104.364 124.882 145.848  0.00  0.00    +0.000 OA
ATOM     25  C   UNL     1     103.726 124.459 146.154  0.00  0.00    +0.000 C 
ENDBRANCH   8  24
BRANCH  12  26
ATOM     26  O   UNL     1     107.982 124.867 148.771  0.00  0.00    +0.000 OA
ATOM     27  C   UNL     1     108.051 124.495 149.505  0.00  0.00    +0.000 C 
ENDBRANCH  12  26
TORSDOF 5
ENDMDL
MODEL 6
REMARK VINA RESULT:      -7.6     12.466     14.431
REMARK  Name = 12289982
REMARK  5 active torsions:
REMARK  status: ('A' for Active; 'I' for Inactive)
REMARK    1  A    between atoms: O_2  and  C_12
REMARK    2  A    between atoms: O_3  and  C_17
REMARK    3  A    between atoms: O_7  and  C_21
REMARK    4  A    between atoms: O_8  and  C_22
REMARK    5  A    between atoms: C_11  and  C_13
REMARK                            x       y       z     vdW  Elec       q    Type
REMARK                         _______ _______ _______ _____ _____    ______ ____
ROOT
ATOM      1  O   UNL     1     113.806 128.216 135.886  0.00  0.00    +0.000 OA
ATOM      2  O   UNL     1     114.778 128.737 134.625  0.00  0.00    +0.000 OA
ATOM      3  O   UNL     1     113.976 130.815 137.136  0.00  0.00    +0.000 OA
ATOM      4  O   UNL     1     113.214 129.748 137.737  0.00  0.00    +0.000 OA
ATOM      5  C   UNL     1     113.890 129.502 136.504  0.00  0.00    +0.000 A 
ATOM      6  C   UNL     1     114.088 128.991 135.886  0.00  0.00    +0.000 A 
ATOM      7  C   UNL     1     113.326 127.951 136.504  0.00  0.00    +0.000 A 
ATOM      8  C   UNL     1     113.129 128.462 137.121  0.00  0.00    +0.000 A 
ATOM      9  C   UNL     1     113.412 129.237 137.120  0.00  0.00    +0.000 A 
ATOM     10  C   UNL     1     114.586 129.255 135.238  0.00  0.00    +0.000 A 
ATOM     11  C   UNL     1     114.178 130.312 136.515  0.00  0.00    +0.000 A 
ATOM     12  C   UNL     1     114.883 130.061 135.232  0.00  0.00    +0.000 A 
ATOM     13  C   UNL     1     114.677 130.593 135.875  0.00  0.00    +0.000 A 
ENDROOT
BRANCH   7  14
ATOM     14  C   UNL     1     113.045 127.176 136.504  0.00  0.00    +0.000 A 
ATOM     15  C   UNL     1     113.522 126.563 136.781  0.00  0.00    +0.000 A 
ATOM     16  C   UNL     1     112.284 127.014 136.225  0.00  0.00    +0.000 A 
ATOM     17  C   UNL     1     113.239 125.787 136.780  0.00  0.00    +0.000 A 
ATOM     18  C   UNL     1     112.480 125.625 136.502  0.00  0.00    +0.000 A 
ATOM     19  C   UNL     1     112.002 126.238 136.225  0.00  0.00    +0.000 A 
BRANCH  17  20
ATOM     20  O   UNL     1     113.716 125.174 137.057  0.00  0.00    +0.000 OA
ATOM     21  C   UNL     1     114.536 125.261 137.066  0.00  0.00    +0.000 C 
ENDBRANCH  17  20
BRANCH  18  22
ATOM     22  O   UNL     1     112.197 124.850 136.501  0.00  0.00    +0.000 OA
ATOM     23  C   UNL     1     111.429 124.691 136.248  0.00  0.00    +0.000 C 
ENDBRANCH  18  22
ENDBRANCH   7  14
BRANCH   8  24
ATOM     24  O   UNL     1     112.650 128.197 137.738  0.00  0.00    +0.000 OA
ATOM     25  C   UNL     1     112.738 128.516 138.494  0.00  0.00    +0.000 C 
ENDBRANCH   8  24
BRANCH  12  26
ATOM     26  O   UNL     1     115.362 130.322 134.613  0.00  0.00    +0.000 OA
ATOM     27  C   UNL     1     115.709 131.070 134.648  0.00  0.00    +0.000 C 
ENDBRANCH  12  26
TORSDOF 5
ENDMDL
MODEL 7
REMARK VINA RESULT:      -7.6      6.774      8.372
REMARK  Name = 12289982
REMARK  5 active torsions:
REMARK  status: ('A' for Active; 'I' for Inactive)
REMARK    1  A    between atoms: O_2  and  C_12
REMARK    2  A    between atoms: O_3  and  C_17
REMARK    3  A    between atoms: O_7  and  C_21
REMARK    4  A    between atoms: O_8  and  C_22
REMARK    5  A    between atoms: C_11  and  C_13
REMARK                            x       y       z     vdW  Elec       q    Type
REMARK                         _______ _______ _______ _____ _____    ______ ____
ROOT
ATOM      1  O   UNL     1     103.553 130.161 142.277  0.00  0.00    +0.000 OA
ATOM      2  O   UNL     1     104.514 129.774 143.594  0.00  0.00    +0.000 OA
ATOM      3  O   UNL     1     104.299 127.696 140.966  0.00  0.00    +0.000 OA
ATOM      4  O   UNL     1     103.394 128.628 140.340  0.00  0.00    +0.000 OA
ATOM      5  C   UNL     1     103.923 128.941 141.629  0.00  0.00    +0.000 A 
ATOM      6  C   UNL     1     103.975 129.452 142.275  0.00  0.00    +0.000 A 
ATOM      7  C   UNL     1     103.077 130.358 141.632  0.00  0.00    +0.000 A 
ATOM      8  C   UNL     1     103.024 129.848 140.986  0.00  0.00    +0.000 A 
ATOM      9  C   UNL     1     103.447 129.139 140.985  0.00  0.00    +0.000 A 
ATOM     10  C   UNL     1     104.468 129.257 142.952  0.00  0.00    +0.000 A 
ATOM     11  C   UNL     1     104.358 128.200 141.616  0.00  0.00    +0.000 A 
ATOM     12  C   UNL     1     104.910 128.521 142.957  0.00  0.00    +0.000 A 
ATOM     13  C   UNL     1     104.855 127.989 142.285  0.00  0.00    +0.000 A 
ENDROOT
BRANCH   7  14
ATOM     14  C   UNL     1     102.655 131.067 141.634  0.00  0.00    +0.000 A 
ATOM     15  C   UNL     1     102.991 131.749 141.314  0.00  0.00    +0.000 A 
ATOM     16  C   UNL     1     101.895 131.093 141.955  0.00  0.00    +0.000 A 
ATOM     17  C   UNL     1     102.568 132.457 141.317  0.00  0.00    +0.000 A 
ATOM     18  C   UNL     1     101.809 132.483 141.638  0.00  0.00    +0.000 A 
ATOM     19  C   UNL     1     101.472 131.801 141.957  0.00  0.00    +0.000 A 
BRANCH  17  20
ATOM     20  O   UNL     1     102.904 133.140 140.997  0.00  0.00    +0.000 OA
ATOM     21  C   UNL     1     103.724 133.206 140.935  0.00  0.00    +0.000 C 
ENDBRANCH  17  20
BRANCH  18  22
ATOM     22  O   UNL     1     101.385 133.192 141.640  0.00  0.00    +0.000 OA
ATOM     23  C   UNL     1     100.710 133.268 142.108  0.00  0.00    +0.000 C 
ENDBRANCH  18  22
ENDBRANCH   7  14
BRANCH   8  24
ATOM     24  O   UNL     1     102.549 130.045 140.342  0.00  0.00    +0.000 OA
ATOM     25  C   UNL     1     102.278 129.455 139.833  0.00  0.00    +0.000 C 
ENDBRANCH   8  24
BRANCH  12  26
ATOM     26  O   UNL     1     105.385 128.326 143.603  0.00  0.00    +0.000 OA
ATOM     27  C   UNL     1     105.816 127.623 143.601  0.00  0.00    +0.000 C 
ENDBRANCH  12  26
TORSDOF 5
ENDMDL
MODEL 8
REMARK VINA RESULT:      -7.5     12.576     14.624
REMARK  Name = 12289982
REMARK  5 active torsions:
REMARK  status: ('A' for Active; 'I' for Inactive)
REMARK    1  A    between atoms: O_2  and  C_12
REMARK    2  A    between atoms: O_3  and  C_17
REMARK    3  A    between atoms: O_7  and  C_21
REMARK    4  A    between atoms: O_8  and  C_22
REMARK    5  A    between atoms: C_11  and  C_13
REMARK                            x       y       z     vdW  Elec       q    Type
REMARK                         _______ _______ _______ _____ _____    ______ ____
ROOT
ATOM      1  O   UNL     1     113.361 127.676 136.255  0.00  0.00    +0.000 OA
ATOM      2  O   UNL     1     113.815 126.252 137.012  0.00  0.00    +0.000 OA
ATOM      3  O   UNL     1     110.749 126.580 135.686  0.00  0.00    +0.000 OA
ATOM      4  O   UNL     1     111.100 127.917 135.277  0.00  0.00    +0.000 OA
ATOM      5  C   UNL     1     112.069 127.133 135.974  0.00  0.00    +0.000 A 
ATOM      6  C   UNL     1     112.823 127.052 136.300  0.00  0.00    +0.000 A 
ATOM      7  C   UNL     1     113.145 128.381 135.883  0.00  0.00    +0.000 A 
ATOM      8  C   UNL     1     112.391 128.461 135.558  0.00  0.00    +0.000 A 
ATOM      9  C   UNL     1     111.854 127.837 135.603  0.00  0.00    +0.000 A 
ATOM     10  C   UNL     1     113.059 126.323 136.689  0.00  0.00    +0.000 A 
ATOM     11  C   UNL     1     111.500 126.490 136.015  0.00  0.00    +0.000 A 
ATOM     12  C   UNL     1     112.504 125.670 136.739  0.00  0.00    +0.000 A 
ATOM     13  C   UNL     1     111.719 125.754 136.400  0.00  0.00    +0.000 A 
ENDROOT
BRANCH   7  14
ATOM     14  C   UNL     1     113.683 129.004 135.839  0.00  0.00    +0.000 A 
ATOM     15  C   UNL     1     113.749 129.538 136.464  0.00  0.00    +0.000 A 
ATOM     16  C   UNL     1     114.156 129.093 135.167  0.00  0.00    +0.000 A 
ATOM     17  C   UNL     1     114.288 130.162 136.418  0.00  0.00    +0.000 A 
ATOM     18  C   UNL     1     114.760 130.251 135.748  0.00  0.00    +0.000 A 
ATOM     19  C   UNL     1     114.694 129.717 135.123  0.00  0.00    +0.000 A 
BRANCH  17  20
ATOM     20  O   UNL     1     114.355 130.696 137.043  0.00  0.00    +0.000 OA
ATOM     21  C   UNL     1     113.996 130.531 137.767  0.00  0.00    +0.000 C 
ENDBRANCH  17  20
BRANCH  18  22
ATOM     22  O   UNL     1     115.299 130.874 135.702  0.00  0.00    +0.000 OA
ATOM     23  C   UNL     1     115.710 131.014 135.001  0.00  0.00    +0.000 C 
ENDBRANCH  18  22
ENDBRANCH   7  14
BRANCH   8  24
ATOM     24  O   UNL     1     112.176 129.165 135.187  0.00  0.00    +0.000 OA
ATOM     25  C   UNL     1     111.379 129.367 135.116  0.00  0.00    +0.000 C 
ENDBRANCH   8  24
BRANCH  12  26
ATOM     26  O   UNL     1     112.723 124.966 137.111  0.00  0.00    +0.000 OA
ATOM     27  C   UNL     1     112.219 124.313 137.087  0.00  0.00    +0.000 C 
ENDBRANCH  12  26
TORSDOF 5
ENDMDL
MODEL 9
REMARK VINA RESULT:      -7.5      9.311     11.328
REMARK  Name = 12289982
REMARK  5 active torsions:
REMARK  status: ('A' for Active; 'I' for Inactive)
REMARK    1  A    between atoms: O_2  and  C_12
REMARK    2  A    between atoms: O_3  and  C_17
REMARK    3  A    between atoms: O_7  and  C_21
REMARK    4  A    between atoms: O_8  and  C_22
REMARK    5  A    between atoms: C_11  and  C_13
REMARK                            x       y       z     vdW  Elec       q    Type
REMARK                         _______ _______ _______ _____ _____    ______ ____
ROOT
ATOM      1  O   UNL     1     112.255 126.297 138.413  0.00  0.00    +0.000 OA
ATOM      2  O   UNL     1     113.825 126.811 138.694  0.00  0.00    +0.000 OA
ATOM      3  O   UNL     1     111.638 126.538 141.226  0.00  0.00    +0.000 OA
ATOM      4  O   UNL     1     110.643 126.096 140.280  0.00  0.00    +0.000 OA
ATOM      5  C   UNL     1     111.951 126.416 139.804  0.00  0.00    +0.000 A 
ATOM      6  C   UNL     1     112.488 126.483 139.182  0.00  0.00    +0.000 A 
ATOM      7  C   UNL     1     111.483 126.043 138.266  0.00  0.00    +0.000 A 
ATOM      8  C   UNL     1     110.946 125.976 138.889  0.00  0.00    +0.000 A 
ATOM      9  C   UNL     1     111.180 126.163 139.657  0.00  0.00    +0.000 A 
ATOM     10  C   UNL     1     113.295 126.747 139.322  0.00  0.00    +0.000 A 
ATOM     11  C   UNL     1     112.183 126.608 140.610  0.00  0.00    +0.000 A 
ATOM     12  C   UNL     1     113.544 126.942 140.121  0.00  0.00    +0.000 A 
ATOM     13  C   UNL     1     112.984 126.872 140.769  0.00  0.00    +0.000 A 
ENDROOT
BRANCH   7  14
ATOM     14  C   UNL     1     111.250 125.857 137.497  0.00  0.00    +0.000 A 
ATOM     15  C   UNL     1     111.428 125.116 137.180  0.00  0.00    +0.000 A 
ATOM     16  C   UNL     1     110.839 126.412 137.045  0.00  0.00    +0.000 A 
ATOM     17  C   UNL     1     111.195 124.931 136.410  0.00  0.00    +0.000 A 
ATOM     18  C   UNL     1     110.784 125.485 135.959  0.00  0.00    +0.000 A 
ATOM     19  C   UNL     1     110.606 126.226 136.276  0.00  0.00    +0.000 A 
BRANCH  17  20
ATOM     20  O   UNL     1     111.372 124.191 136.093  0.00  0.00    +0.000 OA
ATOM     21  C   UNL     1     111.936 123.710 136.456  0.00  0.00    +0.000 C 
ENDBRANCH  17  20
BRANCH  18  22
ATOM     22  O   UNL     1     110.550 125.300 135.189  0.00  0.00    +0.000 OA
ATOM     23  C   UNL     1     110.081 125.826 134.762  0.00  0.00    +0.000 C 
ENDBRANCH  18  22
ENDBRANCH   7  14
BRANCH   8  24
ATOM     24  O   UNL     1     110.175 125.723 138.742  0.00  0.00    +0.000 OA
ATOM     25  C   UNL     1     109.575 125.893 139.282  0.00  0.00    +0.000 C 
ENDBRANCH   8  24
BRANCH  12  26
ATOM     26  O   UNL     1     114.316 127.196 140.264  0.00  0.00    +0.000 OA
ATOM     27  C   UNL     1     114.620 127.179 141.031  0.00  0.00    +0.000 C 
ENDBRANCH  12  26
TORSDOF 5
ENDMDL
MODEL 10
REMARK VINA RESULT:      -7.5      9.153     10.761
REMARK  Name = 12289982
REMARK  5 active torsions:
REMARK  status: ('A' for Active; 'I' for Inactive)
REMARK    1  A    between atoms: O_2  and  C_12
REMARK    2  A    between atoms: O_3  and  C_17
REMARK    3  A    between atoms: O_7  and  C_21
REMARK    4  A    between atoms: O_8  and  C_22
REMARK    5  A    between atoms: C_11  and  C_13
REMARK                            x       y       z     vdW  Elec       q    Type
REMARK                         _______ _______ _______ _____ _____    ______ ____
ROOT
ATOM      1  O   UNL     1     111.584 131.421 145.210  0.00  0.00    +0.000 OA
ATOM      2  O   UNL     1     111.289 129.788 144.979  0.00  0.00    +0.000 OA
ATOM      3  O   UNL     1     112.343 131.711 142.437  0.00  0.00    +0.000 OA
ATOM      4  O   UNL     1     112.361 132.839 143.336  0.00  0.00    +0.000 OA
ATOM      5  C   UNL     1     111.959 131.564 143.838  0.00  0.00    +0.000 A 
ATOM      6  C   UNL     1     111.700 131.091 144.463  0.00  0.00    +0.000 A 
ATOM      7  C   UNL     1     111.727 132.226 145.332  0.00  0.00    +0.000 A 
ATOM      8  C   UNL     1     111.986 132.698 144.707  0.00  0.00    +0.000 A 
ATOM      9  C   UNL     1     112.102 132.366 143.960  0.00  0.00    +0.000 A 
ATOM     10  C   UNL     1     111.548 130.253 144.349  0.00  0.00    +0.000 A 
ATOM     11  C   UNL     1     112.084 131.230 143.056  0.00  0.00    +0.000 A 
ATOM     12  C   UNL     1     111.667 129.903 143.573  0.00  0.00    +0.000 A 
ATOM     13  C   UNL     1     111.937 130.394 142.923  0.00  0.00    +0.000 A 
ENDROOT
BRANCH   7  14
ATOM     14  C   UNL     1     111.610 132.556 146.079  0.00  0.00    +0.000 A 
ATOM     15  C   UNL     1     110.883 132.895 146.272  0.00  0.00    +0.000 A 
ATOM     16  C   UNL     1     112.222 132.547 146.633  0.00  0.00    +0.000 A 
ATOM     17  C   UNL     1     110.768 133.225 147.019  0.00  0.00    +0.000 A 
ATOM     18  C   UNL     1     111.379 133.216 147.573  0.00  0.00    +0.000 A 
ATOM     19  C   UNL     1     112.106 132.877 147.380  0.00  0.00    +0.000 A 
BRANCH  17  20
ATOM     20  O   UNL     1     110.041 133.564 147.212  0.00  0.00    +0.000 OA
ATOM     21  C   UNL     1     109.350 133.291 146.855  0.00  0.00    +0.000 C 
ENDBRANCH  17  20
BRANCH  18  22
ATOM     22  O   UNL     1     111.264 133.546 148.321  0.00  0.00    +0.000 OA
ATOM     23  C   UNL     1     111.814 133.413 148.920  0.00  0.00    +0.000 C 
ENDBRANCH  18  22
ENDBRANCH   7  14
BRANCH   8  24
ATOM     24  O   UNL     1     112.128 133.501 144.829  0.00  0.00    +0.000 OA
ATOM     25  C   UNL     1     112.093 134.027 144.195  0.00  0.00    +0.000 C 
ENDBRANCH   8  24
BRANCH  12  26
ATOM     26  O   UNL     1     111.523 129.098 143.455  0.00  0.00    +0.000 OA
ATOM     27  C   UNL     1     111.755 128.738 142.750  0.00  0.00    +0.000 C 
ENDBRANCH  12  26
TORSDOF 5
ENDMDL
