MODEL 1
REMARK VINA RESULT:      -9.6      0.000      0.000
REMARK  Name = 44257184
REMARK  4 active torsions:
REMARK  status: ('A' for Active; 'I' for Inactive)
REMARK    1  A    between atoms: O_2  and  C_13
REMARK    2  A    between atoms: O_2  and  C_19
REMARK    3  A    between atoms: C_12  and  C_14
REMARK    4  A    between atoms: C_15  and  C_24
REMARK                            x       y       z     vdW  Elec       q    Type
REMARK                         _______ _______ _______ _____ _____    ______ ____
ROOT
ATOM      1  O   UNL     1     112.340 126.309 136.294  0.00  0.00    +0.000 OA
ATOM      2  O   UNL     1     109.815 125.439 135.177  0.00  0.00    +0.000 OA
ATOM      3  C   UNL     1     112.549 125.496 136.476  0.00  0.00    +0.000 C 
ATOM      4  C   UNL     1     112.002 124.863 136.280  0.00  0.00    +0.000 C 
ATOM      5  C   UNL     1     111.253 125.053 135.903  0.00  0.00    +0.000 C 
ATOM      6  C   UNL     1     111.061 125.871 135.728  0.00  0.00    +0.000 A 
ATOM      7  C   UNL     1     110.671 127.437 135.382  0.00  0.00    +0.000 A 
ATOM      8  C   UNL     1     111.587 126.479 135.917  0.00  0.00    +0.000 A 
ATOM      9  C   UNL     1     111.392 127.261 135.744  0.00  0.00    +0.000 A 
ATOM     10  C   UNL     1     110.341 126.046 135.366  0.00  0.00    +0.000 A 
ATOM     11  C   UNL     1     110.146 126.829 135.193  0.00  0.00    +0.000 A 
ENDROOT
BRANCH   3  12
ATOM     12  C   UNL     1     113.270 125.324 136.838  0.00  0.00    +0.000 A 
ATOM     13  C   UNL     1     113.404 125.552 137.620  0.00  0.00    +0.000 A 
ATOM     14  C   UNL     1     113.856 124.923 136.419  0.00  0.00    +0.000 A 
ATOM     15  C   UNL     1     114.125 125.380 137.981  0.00  0.00    +0.000 A 
ATOM     16  C   UNL     1     114.577 124.750 136.780  0.00  0.00    +0.000 A 
ATOM     17  C   UNL     1     114.712 124.979 137.561  0.00  0.00    +0.000 A 
ENDBRANCH   3  12
BRANCH   7  18
ATOM     18  O   UNL     1     110.475 128.220 135.209  0.00  0.00    +0.000 OA
BRANCH  18  27
ATOM     19  O   UNL     1     110.139 128.635 136.534  0.00  0.00    +0.000 OA
ATOM     20  O   UNL     1     108.244 129.953 135.639  0.00  0.00    +0.000 OA
ATOM     21  O   UNL     1     108.539 129.929 137.261  0.00  0.00    +0.000 OA
ATOM     22  O   UNL     1     109.212 129.098 134.612  0.00  0.00    +0.000 OA
ATOM     23  C   UNL     1     108.876 129.514 135.937  0.00  0.00    +0.000 C 
ATOM     24  C   UNL     1     109.024 129.502 136.749  0.00  0.00    +0.000 C 
ATOM     25  C   UNL     1     109.360 129.086 135.423  0.00  0.00    +0.000 C 
ATOM     26  C   UNL     1     109.655 129.063 137.047  0.00  0.00    +0.000 C 
ATOM     27  C   UNL     1     109.992 128.647 135.722  0.00  0.00    +0.000 C 
BRANCH  26  29
ATOM     28  O   UNL     1     110.552 129.244 138.145  0.00  0.00    +0.000 OA
ATOM     29  C   UNL     1     109.802 129.051 137.858  0.00  0.00    +0.000 C 
ENDBRANCH  26  29
ENDBRANCH  18  27
ENDBRANCH   7  18
TORSDOF 4
ENDMDL
MODEL 2
REMARK VINA RESULT:      -9.3     11.990     13.655
REMARK  Name = 44257184
REMARK  4 active torsions:
REMARK  status: ('A' for Active; 'I' for Inactive)
REMARK    1  A    between atoms: O_2  and  C_13
REMARK    2  A    between atoms: O_2  and  C_19
REMARK    3  A    between atoms: C_12  and  C_14
REMARK    4  A    between atoms: C_15  and  C_24
REMARK                            x       y       z     vdW  Elec       q    Type
REMARK                         _______ _______ _______ _____ _____    ______ ____
ROOT
ATOM      1  O   UNL     1     103.311 124.187 147.222  0.00  0.00    +0.000 OA
ATOM      2  O   UNL     1     104.884 123.593 144.865  0.00  0.00    +0.000 OA
ATOM      3  C   UNL     1     102.718 123.615 146.980  0.00  0.00    +0.000 C 
ATOM      4  C   UNL     1     102.826 123.174 146.250  0.00  0.00    +0.000 C 
ATOM      5  C   UNL     1     103.527 123.312 145.772  0.00  0.00    +0.000 C 
ATOM      6  C   UNL     1     104.110 123.888 146.029  0.00  0.00    +0.000 A 
ATOM      7  C   UNL     1     105.243 124.990 146.504  0.00  0.00    +0.000 A 
ATOM      8  C   UNL     1     104.005 124.311 146.730  0.00  0.00    +0.000 A 
ATOM      9  C   UNL     1     104.572 124.862 146.967  0.00  0.00    +0.000 A 
ATOM     10  C   UNL     1     104.780 124.016 145.566  0.00  0.00    +0.000 A 
ATOM     11  C   UNL     1     105.346 124.566 145.803  0.00  0.00    +0.000 A 
ENDROOT
BRANCH   3  12
ATOM     12  C   UNL     1     102.048 123.489 147.445  0.00  0.00    +0.000 A 
ATOM     13  C   UNL     1     101.380 123.962 147.342  0.00  0.00    +0.000 A 
ATOM     14  C   UNL     1     102.047 122.891 148.013  0.00  0.00    +0.000 A 
ATOM     15  C   UNL     1     100.710 123.836 147.808  0.00  0.00    +0.000 A 
ATOM     16  C   UNL     1     101.378 122.765 148.478  0.00  0.00    +0.000 A 
ATOM     17  C   UNL     1     100.710 123.238 148.376  0.00  0.00    +0.000 A 
ENDBRANCH   3  12
BRANCH   7  18
ATOM     18  O   UNL     1     105.810 125.540 146.741  0.00  0.00    +0.000 OA
BRANCH  18  27
ATOM     19  O   UNL     1     106.269 124.860 147.910  0.00  0.00    +0.000 OA
ATOM     20  O   UNL     1     108.596 125.516 147.378  0.00  0.00    +0.000 OA
ATOM     21  O   UNL     1     108.279 124.617 148.724  0.00  0.00    +0.000 OA
ATOM     22  O   UNL     1     107.361 125.978 146.386  0.00  0.00    +0.000 OA
ATOM     23  C   UNL     1     107.820 125.297 147.555  0.00  0.00    +0.000 C 
ATOM     24  C   UNL     1     107.662 124.848 148.228  0.00  0.00    +0.000 C 
ATOM     25  C   UNL     1     107.202 125.528 147.059  0.00  0.00    +0.000 C 
ATOM     26  C   UNL     1     106.886 124.629 148.406  0.00  0.00    +0.000 C 
ATOM     27  C   UNL     1     106.427 125.310 147.236  0.00  0.00    +0.000 C 
BRANCH  26  29
ATOM     28  O   UNL     1     106.067 124.348 149.543  0.00  0.00    +0.000 OA
ATOM     29  C   UNL     1     106.729 124.180 149.079  0.00  0.00    +0.000 C 
ENDBRANCH  26  29
ENDBRANCH  18  27
ENDBRANCH   7  18
TORSDOF 4
ENDMDL
MODEL 3
REMARK VINA RESULT:      -9.2      1.216      1.818
REMARK  Name = 44257184
REMARK  4 active torsions:
REMARK  status: ('A' for Active; 'I' for Inactive)
REMARK    1  A    between atoms: O_2  and  C_13
REMARK    2  A    between atoms: O_2  and  C_19
REMARK    3  A    between atoms: C_12  and  C_14
REMARK    4  A    between atoms: C_15  and  C_24
REMARK                            x       y       z     vdW  Elec       q    Type
REMARK                         _______ _______ _______ _____ _____    ______ ____
ROOT
ATOM      1  O   UNL     1     112.688 126.946 136.336  0.00  0.00    +0.000 OA
ATOM      2  O   UNL     1     112.933 129.617 135.247  0.00  0.00    +0.000 OA
ATOM      3  C   UNL     1     113.534 126.920 136.484  0.00  0.00    +0.000 C 
ATOM      4  C   UNL     1     114.022 127.597 136.277  0.00  0.00    +0.000 C 
ATOM      5  C   UNL     1     113.656 128.290 135.924  0.00  0.00    +0.000 C 
ATOM      6  C   UNL     1     112.809 128.298 135.784  0.00  0.00    +0.000 A 
ATOM      7  C   UNL     1     111.183 128.337 135.504  0.00  0.00    +0.000 A 
ATOM      8  C   UNL     1     112.341 127.648 135.982  0.00  0.00    +0.000 A 
ATOM      9  C   UNL     1     111.528 127.668 135.842  0.00  0.00    +0.000 A 
ATOM     10  C   UNL     1     112.465 128.967 135.445  0.00  0.00    +0.000 A 
ATOM     11  C   UNL     1     111.652 128.986 135.305  0.00  0.00    +0.000 A 
ENDROOT
BRANCH   3  12
ATOM     12  C   UNL     1     113.876 126.250 136.822  0.00  0.00    +0.000 A 
ATOM     13  C   UNL     1     113.822 126.126 137.636  0.00  0.00    +0.000 A 
ATOM     14  C   UNL     1     114.272 125.704 136.347  0.00  0.00    +0.000 A 
ATOM     15  C   UNL     1     114.164 125.456 137.975  0.00  0.00    +0.000 A 
ATOM     16  C   UNL     1     114.614 125.034 136.685  0.00  0.00    +0.000 A 
ATOM     17  C   UNL     1     114.560 124.910 137.498  0.00  0.00    +0.000 A 
ENDBRANCH   3  12
BRANCH   7  18
ATOM     18  O   UNL     1     110.371 128.356 135.364  0.00  0.00    +0.000 OA
BRANCH  18  27
ATOM     19  O   UNL     1     109.975 128.823 136.655  0.00  0.00    +0.000 OA
ATOM     20  O   UNL     1     108.230 130.234 135.609  0.00  0.00    +0.000 OA
ATOM     21  O   UNL     1     108.416 130.231 137.248  0.00  0.00    +0.000 OA
ATOM     22  O   UNL     1     109.208 129.297 134.667  0.00  0.00    +0.000 OA
ATOM     23  C   UNL     1     108.812 129.764 135.958  0.00  0.00    +0.000 C 
ATOM     24  C   UNL     1     108.905 129.762 136.777  0.00  0.00    +0.000 C 
ATOM     25  C   UNL     1     109.301 129.295 135.486  0.00  0.00    +0.000 C 
ATOM     26  C   UNL     1     109.486 129.292 137.126  0.00  0.00    +0.000 C 
ATOM     27  C   UNL     1     109.882 128.825 135.835  0.00  0.00    +0.000 C 
BRANCH  26  29
ATOM     28  O   UNL     1     109.462 128.595 138.373  0.00  0.00    +0.000 OA
ATOM     29  C   UNL     1     109.579 129.290 137.945  0.00  0.00    +0.000 C 
ENDBRANCH  26  29
ENDBRANCH  18  27
ENDBRANCH   7  18
TORSDOF 4
ENDMDL
MODEL 4
REMARK VINA RESULT:      -9.0      1.409      2.323
REMARK  Name = 44257184
REMARK  4 active torsions:
REMARK  status: ('A' for Active; 'I' for Inactive)
REMARK    1  A    between atoms: O_2  and  C_13
REMARK    2  A    between atoms: O_2  and  C_19
REMARK    3  A    between atoms: C_12  and  C_14
REMARK    4  A    between atoms: C_15  and  C_24
REMARK                            x       y       z     vdW  Elec       q    Type
REMARK                         _______ _______ _______ _____ _____    ______ ____
ROOT
ATOM      1  O   UNL     1     112.663 126.985 137.112  0.00  0.00    +0.000 OA
ATOM      2  O   UNL     1     112.944 129.539 135.779  0.00  0.00    +0.000 OA
ATOM      3  C   UNL     1     113.385 126.703 136.741  0.00  0.00    +0.000 C 
ATOM      4  C   UNL     1     113.820 127.221 136.211  0.00  0.00    +0.000 C 
ATOM      5  C   UNL     1     113.526 128.014 136.058  0.00  0.00    +0.000 C 
ATOM      6  C   UNL     1     112.803 128.279 136.438  0.00  0.00    +0.000 A 
ATOM      7  C   UNL     1     111.415 128.810 137.156  0.00  0.00    +0.000 A 
ATOM      8  C   UNL     1     112.386 127.781 136.947  0.00  0.00    +0.000 A 
ATOM      9  C   UNL     1     111.692 128.047 137.306  0.00  0.00    +0.000 A 
ATOM     10  C   UNL     1     112.527 129.041 136.288  0.00  0.00    +0.000 A 
ATOM     11  C   UNL     1     111.833 129.307 136.647  0.00  0.00    +0.000 A 
ENDROOT
BRANCH   3  12
ATOM     12  C   UNL     1     113.659 125.940 136.893  0.00  0.00    +0.000 A 
ATOM     13  C   UNL     1     113.335 125.297 136.489  0.00  0.00    +0.000 A 
ATOM     14  C   UNL     1     114.257 125.819 137.448  0.00  0.00    +0.000 A 
ATOM     15  C   UNL     1     113.609 124.534 136.641  0.00  0.00    +0.000 A 
ATOM     16  C   UNL     1     114.531 125.057 137.601  0.00  0.00    +0.000 A 
ATOM     17  C   UNL     1     114.207 124.414 137.197  0.00  0.00    +0.000 A 
ENDBRANCH   3  12
BRANCH   7  18
ATOM     18  O   UNL     1     110.721 129.076 137.515  0.00  0.00    +0.000 OA
BRANCH  18  27
ATOM     19  O   UNL     1     109.761 128.459 136.655  0.00  0.00    +0.000 OA
ATOM     20  O   UNL     1     108.442 130.553 136.627  0.00  0.00    +0.000 OA
ATOM     21  O   UNL     1     107.922 129.238 135.776  0.00  0.00    +0.000 OA
ATOM     22  O   UNL     1     109.841 130.471 137.497  0.00  0.00    +0.000 OA
ATOM     23  C   UNL     1     108.882 129.855 136.636  0.00  0.00    +0.000 C 
ATOM     24  C   UNL     1     108.622 129.197 136.211  0.00  0.00    +0.000 C 
ATOM     25  C   UNL     1     109.582 129.814 137.071  0.00  0.00    +0.000 C 
ATOM     26  C   UNL     1     109.062 128.499 136.220  0.00  0.00    +0.000 C 
ATOM     27  C   UNL     1     110.022 129.116 137.081  0.00  0.00    +0.000 C 
BRANCH  26  29
ATOM     28  O   UNL     1     108.592 127.150 136.191  0.00  0.00    +0.000 OA
ATOM     29  C   UNL     1     108.802 127.843 135.795  0.00  0.00    +0.000 C 
ENDBRANCH  26  29
ENDBRANCH  18  27
ENDBRANCH   7  18
TORSDOF 4
ENDMDL
MODEL 5
REMARK VINA RESULT:      -9.0      7.259     10.282
REMARK  Name = 44257184
REMARK  4 active torsions:
REMARK  status: ('A' for Active; 'I' for Inactive)
REMARK    1  A    between atoms: O_2  and  C_13
REMARK    2  A    between atoms: O_2  and  C_19
REMARK    3  A    between atoms: C_12  and  C_14
REMARK    4  A    between atoms: C_15  and  C_24
REMARK                            x       y       z     vdW  Elec       q    Type
REMARK                         _______ _______ _______ _____ _____    ______ ____
ROOT
ATOM      1  O   UNL     1     103.180 130.260 142.035  0.00  0.00    +0.000 OA
ATOM      2  O   UNL     1     103.744 127.984 140.337  0.00  0.00    +0.000 OA
ATOM      3  C   UNL     1     102.625 130.565 141.455  0.00  0.00    +0.000 C 
ATOM      4  C   UNL     1     102.492 130.131 140.725  0.00  0.00    +0.000 C 
ATOM      5  C   UNL     1     102.916 129.397 140.586  0.00  0.00    +0.000 C 
ATOM      6  C   UNL     1     103.467 129.106 141.177  0.00  0.00    +0.000 A 
ATOM      7  C   UNL     1     104.531 128.528 142.299  0.00  0.00    +0.000 A 
ATOM      8  C   UNL     1     103.595 129.523 141.878  0.00  0.00    +0.000 A 
ATOM      9  C   UNL     1     104.127 129.235 142.438  0.00  0.00    +0.000 A 
ATOM     10  C   UNL     1     103.871 128.401 141.037  0.00  0.00    +0.000 A 
ATOM     11  C   UNL     1     104.403 128.112 141.598  0.00  0.00    +0.000 A 
ENDROOT
BRANCH   3  12
ATOM     12  C   UNL     1     102.222 131.271 141.598  0.00  0.00    +0.000 A 
ATOM     13  C   UNL     1     102.584 131.993 141.430  0.00  0.00    +0.000 A 
ATOM     14  C   UNL     1     101.458 131.254 141.907  0.00  0.00    +0.000 A 
ATOM     15  C   UNL     1     102.181 132.699 141.573  0.00  0.00    +0.000 A 
ATOM     16  C   UNL     1     101.055 131.959 142.050  0.00  0.00    +0.000 A 
ATOM     17  C   UNL     1     101.416 132.682 141.883  0.00  0.00    +0.000 A 
ENDBRANCH   3  12
BRANCH   7  18
ATOM     18  O   UNL     1     105.063 128.240 142.859  0.00  0.00    +0.000 OA
BRANCH  18  27
ATOM     19  O   UNL     1     106.229 128.860 142.313  0.00  0.00    +0.000 OA
ATOM     20  O   UNL     1     107.575 126.879 142.936  0.00  0.00    +0.000 OA
ATOM     21  O   UNL     1     108.291 128.159 142.183  0.00  0.00    +0.000 OA
ATOM     22  O   UNL     1     105.961 126.919 143.275  0.00  0.00    +0.000 OA
ATOM     23  C   UNL     1     107.126 127.539 142.729  0.00  0.00    +0.000 C 
ATOM     24  C   UNL     1     107.484 128.180 142.351  0.00  0.00    +0.000 C 
ATOM     25  C   UNL     1     106.318 127.559 142.898  0.00  0.00    +0.000 C 
ATOM     26  C   UNL     1     107.035 128.840 142.144  0.00  0.00    +0.000 C 
ATOM     27  C   UNL     1     105.870 128.220 142.690  0.00  0.00    +0.000 C 
BRANCH  26  29
ATOM     28  O   UNL     1     107.200 129.660 140.985  0.00  0.00    +0.000 OA
ATOM     29  C   UNL     1     107.394 129.480 141.767  0.00  0.00    +0.000 C 
ENDBRANCH  26  29
ENDBRANCH  18  27
ENDBRANCH   7  18
TORSDOF 4
ENDMDL
MODEL 6
REMARK VINA RESULT:      -8.9      2.701      4.845
REMARK  Name = 44257184
REMARK  4 active torsions:
REMARK  status: ('A' for Active; 'I' for Inactive)
REMARK    1  A    between atoms: O_2  and  C_13
REMARK    2  A    between atoms: O_2  and  C_19
REMARK    3  A    between atoms: C_12  and  C_14
REMARK    4  A    between atoms: C_15  and  C_24
REMARK                            x       y       z     vdW  Elec       q    Type
REMARK                         _______ _______ _______ _____ _____    ______ ____
ROOT
ATOM      1  O   UNL     1     113.556 128.733 135.975  0.00  0.00    +0.000 OA
ATOM      2  O   UNL     1     111.002 127.806 134.975  0.00  0.00    +0.000 OA
ATOM      3  C   UNL     1     113.610 129.301 135.332  0.00  0.00    +0.000 C 
ATOM      4  C   UNL     1     112.978 129.347 134.752  0.00  0.00    +0.000 C 
ATOM      5  C   UNL     1     112.300 128.823 134.822  0.00  0.00    +0.000 C 
ATOM      6  C   UNL     1     112.262 128.262 135.471  0.00  0.00    +0.000 A 
ATOM      7  C   UNL     1     112.168 127.175 136.709  0.00  0.00    +0.000 A 
ATOM      8  C   UNL     1     112.869 128.218 136.028  0.00  0.00    +0.000 A 
ATOM      9  C   UNL     1     112.822 127.675 136.647  0.00  0.00    +0.000 A 
ATOM     10  C   UNL     1     111.609 127.763 135.532  0.00  0.00    +0.000 A 
ATOM     11  C   UNL     1     111.562 127.219 136.151  0.00  0.00    +0.000 A 
ENDROOT
BRANCH   3  12
ATOM     12  C   UNL     1     114.265 129.799 135.273  0.00  0.00    +0.000 A 
ATOM     13  C   UNL     1     114.367 130.412 135.816  0.00  0.00    +0.000 A 
ATOM     14  C   UNL     1     114.818 129.684 134.672  0.00  0.00    +0.000 A 
ATOM     15  C   UNL     1     115.022 130.911 135.756  0.00  0.00    +0.000 A 
ATOM     16  C   UNL     1     115.472 130.182 134.612  0.00  0.00    +0.000 A 
ATOM     17  C   UNL     1     115.575 130.795 135.154  0.00  0.00    +0.000 A 
ENDBRANCH   3  12
BRANCH   7  18
ATOM     18  O   UNL     1     112.121 126.631 137.328  0.00  0.00    +0.000 OA
BRANCH  18  27
ATOM     19  O   UNL     1     113.057 125.661 136.853  0.00  0.00    +0.000 OA
ATOM     20  O   UNL     1     111.512 123.846 137.521  0.00  0.00    +0.000 OA
ATOM     21  O   UNL     1     112.962 123.481 136.824  0.00  0.00    +0.000 OA
ATOM     22  O   UNL     1     111.091 125.421 137.772  0.00  0.00    +0.000 OA
ATOM     23  C   UNL     1     112.027 124.451 137.298  0.00  0.00    +0.000 C 
ATOM     24  C   UNL     1     112.752 124.269 136.950  0.00  0.00    +0.000 C 
ATOM     25  C   UNL     1     111.817 125.239 137.424  0.00  0.00    +0.000 C 
ATOM     26  C   UNL     1     113.267 124.874 136.727  0.00  0.00    +0.000 C 
ATOM     27  C   UNL     1     112.331 125.844 137.202  0.00  0.00    +0.000 C 
BRANCH  26  29
ATOM     28  O   UNL     1     114.694 124.944 136.730  0.00  0.00    +0.000 OA
ATOM     29  C   UNL     1     113.992 124.691 136.379  0.00  0.00    +0.000 C 
ENDBRANCH  26  29
ENDBRANCH  18  27
ENDBRANCH   7  18
TORSDOF 4
ENDMDL
MODEL 7
REMARK VINA RESULT:      -8.8      2.433      3.993
REMARK  Name = 44257184
REMARK  4 active torsions:
REMARK  status: ('A' for Active; 'I' for Inactive)
REMARK    1  A    between atoms: O_2  and  C_13
REMARK    2  A    between atoms: O_2  and  C_19
REMARK    3  A    between atoms: C_12  and  C_14
REMARK    4  A    between atoms: C_15  and  C_24
REMARK                            x       y       z     vdW  Elec       q    Type
REMARK                         _______ _______ _______ _____ _____    ______ ____
ROOT
ATOM      1  O   UNL     1     112.672 128.248 135.562  0.00  0.00    +0.000 OA
ATOM      2  O   UNL     1     109.938 128.329 134.612  0.00  0.00    +0.000 OA
ATOM      3  C   UNL     1     112.786 129.066 135.325  0.00  0.00    +0.000 C 
ATOM      4  C   UNL     1     112.139 129.497 134.960  0.00  0.00    +0.000 C 
ATOM      5  C   UNL     1     111.384 129.104 134.838  0.00  0.00    +0.000 C 
ATOM      6  C   UNL     1     111.287 128.286 135.082  0.00  0.00    +0.000 A 
ATOM      7  C   UNL     1     111.077 126.715 135.541  0.00  0.00    +0.000 A 
ATOM      8  C   UNL     1     111.910 127.872 135.431  0.00  0.00    +0.000 A 
ATOM      9  C   UNL     1     111.805 127.087 135.661  0.00  0.00    +0.000 A 
ATOM     10  C   UNL     1     110.561 127.915 134.962  0.00  0.00    +0.000 A 
ATOM     11  C   UNL     1     110.456 127.130 135.191  0.00  0.00    +0.000 A 
ENDROOT
BRANCH   3  12
ATOM     12  C   UNL     1     113.514 129.434 135.446  0.00  0.00    +0.000 A 
ATOM     13  C   UNL     1     113.652 129.859 136.140  0.00  0.00    +0.000 A 
ATOM     14  C   UNL     1     114.105 129.379 134.873  0.00  0.00    +0.000 A 
ATOM     15  C   UNL     1     114.380 130.228 136.261  0.00  0.00    +0.000 A 
ATOM     16  C   UNL     1     114.833 129.748 134.993  0.00  0.00    +0.000 A 
ATOM     17  C   UNL     1     114.970 130.172 135.687  0.00  0.00    +0.000 A 
ENDBRANCH   3  12
BRANCH   7  18
ATOM     18  O   UNL     1     110.972 125.930 135.771  0.00  0.00    +0.000 OA
BRANCH  18  27
ATOM     19  O   UNL     1     110.437 126.189 137.070  0.00  0.00    +0.000 OA
ATOM     20  O   UNL     1     111.702 124.263 137.975  0.00  0.00    +0.000 OA
ATOM     21  O   UNL     1     110.745 125.164 138.972  0.00  0.00    +0.000 OA
ATOM     22  O   UNL     1     111.816 124.646 136.374  0.00  0.00    +0.000 OA
ATOM     23  C   UNL     1     111.280 124.905 137.674  0.00  0.00    +0.000 C 
ATOM     24  C   UNL     1     110.801 125.356 138.172  0.00  0.00    +0.000 C 
ATOM     25  C   UNL     1     111.337 125.097 136.872  0.00  0.00    +0.000 C 
ATOM     26  C   UNL     1     110.380 125.997 137.870  0.00  0.00    +0.000 C 
ATOM     27  C   UNL     1     110.915 125.739 136.571  0.00  0.00    +0.000 C 
BRANCH  26  29
ATOM     28  O   UNL     1     109.098 126.535 138.202  0.00  0.00    +0.000 OA
ATOM     29  C   UNL     1     109.901 126.447 138.369  0.00  0.00    +0.000 C 
ENDBRANCH  26  29
ENDBRANCH  18  27
ENDBRANCH   7  18
TORSDOF 4
ENDMDL
MODEL 8
REMARK VINA RESULT:      -8.8      3.641      4.875
REMARK  Name = 44257184
REMARK  4 active torsions:
REMARK  status: ('A' for Active; 'I' for Inactive)
REMARK    1  A    between atoms: O_2  and  C_13
REMARK    2  A    between atoms: O_2  and  C_19
REMARK    3  A    between atoms: C_12  and  C_14
REMARK    4  A    between atoms: C_15  and  C_24
REMARK                            x       y       z     vdW  Elec       q    Type
REMARK                         _______ _______ _______ _____ _____    ______ ____
ROOT
ATOM      1  O   UNL     1     113.575 126.297 138.838  0.00  0.00    +0.000 OA
ATOM      2  O   UNL     1     110.842 126.468 139.779  0.00  0.00    +0.000 OA
ATOM      3  C   UNL     1     113.314 125.881 138.133  0.00  0.00    +0.000 C 
ATOM      4  C   UNL     1     112.478 125.716 138.022  0.00  0.00    +0.000 C 
ATOM      5  C   UNL     1     111.913 125.970 138.618  0.00  0.00    +0.000 C 
ATOM      6  C   UNL     1     112.192 126.385 139.317  0.00  0.00    +0.000 A 
ATOM      7  C   UNL     1     112.703 127.184 140.667  0.00  0.00    +0.000 A 
ATOM      8  C   UNL     1     112.995 126.543 139.423  0.00  0.00    +0.000 A 
ATOM      9  C   UNL     1     113.251 126.943 140.098  0.00  0.00    +0.000 A 
ATOM     10  C   UNL     1     111.645 126.626 139.885  0.00  0.00    +0.000 A 
ATOM     11  C   UNL     1     111.901 127.026 140.560  0.00  0.00    +0.000 A 
ENDROOT
BRANCH   3  12
ATOM     12  C   UNL     1     113.863 125.641 137.566  0.00  0.00    +0.000 A 
ATOM     13  C   UNL     1     114.295 124.947 137.677  0.00  0.00    +0.000 A 
ATOM     14  C   UNL     1     113.981 126.096 136.887  0.00  0.00    +0.000 A 
ATOM     15  C   UNL     1     114.844 124.707 137.110  0.00  0.00    +0.000 A 
ATOM     16  C   UNL     1     114.530 125.856 136.320  0.00  0.00    +0.000 A 
ATOM     17  C   UNL     1     114.961 125.162 136.432  0.00  0.00    +0.000 A 
ENDBRANCH   3  12
BRANCH   7  18
ATOM     18  O   UNL     1     112.959 127.583 141.342  0.00  0.00    +0.000 OA
BRANCH  18  27
ATOM     19  O   UNL     1     113.325 128.846 140.782  0.00  0.00    +0.000 OA
ATOM     20  O   UNL     1     112.114 130.005 142.603  0.00  0.00    +0.000 OA
ATOM     21  O   UNL     1     112.883 130.881 141.437  0.00  0.00    +0.000 OA
ATOM     22  O   UNL     1     112.152 128.356 142.556  0.00  0.00    +0.000 OA
ATOM     23  C   UNL     1     112.517 129.619 141.996  0.00  0.00    +0.000 C 
ATOM     24  C   UNL     1     112.902 130.056 141.413  0.00  0.00    +0.000 C 
ATOM     25  C   UNL     1     112.536 128.793 141.973  0.00  0.00    +0.000 C 
ATOM     26  C   UNL     1     113.306 129.670 140.805  0.00  0.00    +0.000 C 
ATOM     27  C   UNL     1     112.940 128.407 141.366  0.00  0.00    +0.000 C 
BRANCH  26  29
ATOM     28  O   UNL     1     114.501 130.015 140.102  0.00  0.00    +0.000 OA
ATOM     29  C   UNL     1     113.690 130.108 140.222  0.00  0.00    +0.000 C 
ENDBRANCH  26  29
ENDBRANCH  18  27
ENDBRANCH   7  18
TORSDOF 4
ENDMDL
MODEL 9
REMARK VINA RESULT:      -8.7     11.950     13.469
REMARK  Name = 44257184
REMARK  4 active torsions:
REMARK  status: ('A' for Active; 'I' for Inactive)
REMARK    1  A    between atoms: O_2  and  C_13
REMARK    2  A    between atoms: O_2  and  C_19
REMARK    3  A    between atoms: C_12  and  C_14
REMARK    4  A    between atoms: C_15  and  C_24
REMARK                            x       y       z     vdW  Elec       q    Type
REMARK                         _______ _______ _______ _____ _____    ______ ____
ROOT
ATOM      1  O   UNL     1     102.768 123.560 147.415  0.00  0.00    +0.000 OA
ATOM      2  O   UNL     1     102.863 122.807 144.621  0.00  0.00    +0.000 OA
ATOM      3  C   UNL     1     101.949 123.306 147.464  0.00  0.00    +0.000 C 
ATOM      4  C   UNL     1     101.562 122.984 146.767  0.00  0.00    +0.000 C 
ATOM      5  C   UNL     1     102.001 122.921 146.030  0.00  0.00    +0.000 C 
ATOM      6  C   UNL     1     102.819 123.179 146.000  0.00  0.00    +0.000 A 
ATOM      7  C   UNL     1     104.392 123.670 145.918  0.00  0.00    +0.000 A 
ATOM      8  C   UNL     1     103.190 123.489 146.669  0.00  0.00    +0.000 A 
ATOM      9  C   UNL     1     103.976 123.734 146.628  0.00  0.00    +0.000 A 
ATOM     10  C   UNL     1     103.234 123.116 145.291  0.00  0.00    +0.000 A 
ATOM     11  C   UNL     1     104.021 123.361 145.250  0.00  0.00    +0.000 A 
ENDROOT
BRANCH   3  12
ATOM     12  C   UNL     1     101.536 123.371 148.175  0.00  0.00    +0.000 A 
ATOM     13  C   UNL     1     101.132 124.067 148.356  0.00  0.00    +0.000 A 
ATOM     14  C   UNL     1     101.527 122.739 148.706  0.00  0.00    +0.000 A 
ATOM     15  C   UNL     1     100.719 124.132 149.067  0.00  0.00    +0.000 A 
ATOM     16  C   UNL     1     101.114 122.803 149.417  0.00  0.00    +0.000 A 
ATOM     17  C   UNL     1     100.710 123.500 149.597  0.00  0.00    +0.000 A 
ENDBRANCH   3  12
BRANCH   7  18
ATOM     18  O   UNL     1     105.179 123.916 145.877  0.00  0.00    +0.000 OA
BRANCH  18  27
ATOM     19  O   UNL     1     104.983 125.324 146.020  0.00  0.00    +0.000 OA
ATOM     20  O   UNL     1     106.648 125.737 144.235  0.00  0.00    +0.000 OA
ATOM     21  O   UNL     1     105.897 127.006 144.973  0.00  0.00    +0.000 OA
ATOM     22  O   UNL     1     106.288 124.191 144.687  0.00  0.00    +0.000 OA
ATOM     23  C   UNL     1     106.093 125.599 144.830  0.00  0.00    +0.000 C 
ATOM     24  C   UNL     1     105.717 126.234 145.199  0.00  0.00    +0.000 C 
ATOM     25  C   UNL     1     105.913 124.826 145.056  0.00  0.00    +0.000 C 
ATOM     26  C   UNL     1     105.163 126.096 145.794  0.00  0.00    +0.000 C 
ATOM     27  C   UNL     1     105.358 124.688 145.651  0.00  0.00    +0.000 C 
BRANCH  26  29
ATOM     28  O   UNL     1     104.757 126.772 146.986  0.00  0.00    +0.000 OA
ATOM     29  C   UNL     1     104.788 126.731 146.163  0.00  0.00    +0.000 C 
ENDBRANCH  26  29
ENDBRANCH  18  27
ENDBRANCH   7  18
TORSDOF 4
ENDMDL
MODEL 10
REMARK VINA RESULT:      -8.7      2.704      4.566
REMARK  Name = 44257184
REMARK  4 active torsions:
REMARK  status: ('A' for Active; 'I' for Inactive)
REMARK    1  A    between atoms: O_2  and  C_13
REMARK    2  A    between atoms: O_2  and  C_19
REMARK    3  A    between atoms: C_12  and  C_14
REMARK    4  A    between atoms: C_15  and  C_24
REMARK                            x       y       z     vdW  Elec       q    Type
REMARK                         _______ _______ _______ _____ _____    ______ ____
ROOT
ATOM      1  O   UNL     1     111.746 126.657 137.137  0.00  0.00    +0.000 OA
ATOM      2  O   UNL     1     114.207 125.739 138.354  0.00  0.00    +0.000 OA
ATOM      3  C   UNL     1     111.855 126.109 136.485  0.00  0.00    +0.000 C 
ATOM      4  C   UNL     1     112.544 125.596 136.472  0.00  0.00    +0.000 C 
ATOM      5  C   UNL     1     113.117 125.639 137.112  0.00  0.00    +0.000 C 
ATOM      6  C   UNL     1     112.992 126.194 137.756  0.00  0.00    +0.000 A 
ATOM      7  C   UNL     1     112.774 127.252 139.003  0.00  0.00    +0.000 A 
ATOM      8  C   UNL     1     112.330 126.686 137.768  0.00  0.00    +0.000 A 
ATOM      9  C   UNL     1     112.221 127.215 138.391  0.00  0.00    +0.000 A 
ATOM     10  C   UNL     1     113.545 126.231 138.366  0.00  0.00    +0.000 A 
ATOM     11  C   UNL     1     113.436 126.760 138.990  0.00  0.00    +0.000 A 
ENDROOT
BRANCH   3  12
ATOM     12  C   UNL     1     111.300 126.074 135.875  0.00  0.00    +0.000 A 
ATOM     13  C   UNL     1     111.211 126.714 135.362  0.00  0.00    +0.000 A 
ATOM     14  C   UNL     1     110.835 125.400 135.779  0.00  0.00    +0.000 A 
ATOM     15  C   UNL     1     110.656 126.679 134.752  0.00  0.00    +0.000 A 
ATOM     16  C   UNL     1     110.281 125.364 135.169  0.00  0.00    +0.000 A 
ATOM     17  C   UNL     1     110.191 126.004 134.656  0.00  0.00    +0.000 A 
ENDBRANCH   3  12
BRANCH   7  18
ATOM     18  O   UNL     1     112.665 127.781 139.627  0.00  0.00    +0.000 OA
BRANCH  18  27
ATOM     19  O   UNL     1     113.061 128.978 138.955  0.00  0.00    +0.000 OA
ATOM     20  O   UNL     1     114.266 129.719 140.987  0.00  0.00    +0.000 OA
ATOM     21  O   UNL     1     114.260 130.669 139.639  0.00  0.00    +0.000 OA
ATOM     22  O   UNL     1     113.468 128.274 140.981  0.00  0.00    +0.000 OA
ATOM     23  C   UNL     1     113.864 129.472 140.310  0.00  0.00    +0.000 C 
ATOM     24  C   UNL     1     113.861 129.947 139.635  0.00  0.00    +0.000 C 
ATOM     25  C   UNL     1     113.465 128.749 140.307  0.00  0.00    +0.000 C 
ATOM     26  C   UNL     1     113.460 129.700 138.958  0.00  0.00    +0.000 C 
ATOM     27  C   UNL     1     113.064 128.502 139.629  0.00  0.00    +0.000 C 
BRANCH  26  29
ATOM     28  O   UNL     1     112.743 130.442 137.969  0.00  0.00    +0.000 OA
ATOM     29  C   UNL     1     113.458 130.175 138.285  0.00  0.00    +0.000 C 
ENDBRANCH  26  29
ENDBRANCH  18  27
ENDBRANCH   7  18
TORSDOF 4
ENDMDL
