MODEL 1
REMARK VINA RESULT:      -9.8      0.000      0.000
REMARK  Name = 44257060
REMARK  3 active torsions:
REMARK  status: ('A' for Active; 'I' for Inactive)
REMARK    1  A    between atoms: O_1  and  C_11
REMARK    2  A    between atoms: O_1  and  C_14
REMARK    3  A    between atoms: C_16  and  C_20
REMARK                            x       y       z     vdW  Elec       q    Type
REMARK                         _______ _______ _______ _____ _____    ______ ____
ROOT
ATOM      1  O   UNL     1     105.499 124.432 147.759  0.00  0.00    +0.000 OA
ATOM      2  O   UNL     1     108.029 125.558 146.934  0.00  0.00    +0.000 OA
ATOM      3  O   UNL     1     107.746 124.427 149.612  0.00  0.00    +0.000 OA
ATOM      4  C   UNL     1     105.642 124.987 146.450  0.00  0.00    +0.000 C 
ATOM      5  C   UNL     1     105.178 124.616 147.022  0.00  0.00    +0.000 C 
ATOM      6  C   UNL     1     106.429 125.173 146.615  0.00  0.00    +0.000 C 
ATOM      7  C   UNL     1     106.751 124.989 147.352  0.00  0.00    +0.000 A 
ATOM      8  C   UNL     1     106.285 124.618 147.924  0.00  0.00    +0.000 A 
ATOM      9  C   UNL     1     107.571 125.188 147.512  0.00  0.00    +0.000 A 
ATOM     10  C   UNL     1     106.608 124.421 148.695  0.00  0.00    +0.000 A 
ATOM     11  C   UNL     1     107.912 124.998 148.278  0.00  0.00    +0.000 A 
ATOM     12  C   UNL     1     107.427 124.613 148.874  0.00  0.00    +0.000 A 
ENDROOT
BRANCH   5  14
ATOM     13  O   UNL     1     102.032 123.871 146.360  0.00  0.00    +0.000 OA
ATOM     14  C   UNL     1     104.390 124.430 146.857  0.00  0.00    +0.000 A 
ATOM     15  C   UNL     1     104.211 123.756 146.417  0.00  0.00    +0.000 A 
ATOM     16  C   UNL     1     103.785 124.918 147.131  0.00  0.00    +0.000 A 
ATOM     17  C   UNL     1     103.423 123.570 146.251  0.00  0.00    +0.000 A 
ATOM     18  C   UNL     1     102.999 124.732 146.966  0.00  0.00    +0.000 A 
ATOM     19  C   UNL     1     102.817 124.058 146.526  0.00  0.00    +0.000 A 
ENDBRANCH   5  14
BRANCH   4  20
ATOM     20  O   UNL     1     105.321 125.171 145.713  0.00  0.00    +0.000 OA
BRANCH  20  26
ATOM     21  O   UNL     1     105.486 126.587 145.619  0.00  0.00    +0.000 OA
ATOM     22  O   UNL     1     106.062 124.987 144.250  0.00  0.00    +0.000 OA
ATOM     23  O   UNL     1     106.598 126.311 143.425  0.00  0.00    +0.000 OA
ATOM     24  O   UNL     1     106.393 127.820 144.062  0.00  0.00    +0.000 OA
ATOM     25  C   UNL     1     105.959 125.742 144.569  0.00  0.00    +0.000 C 
ATOM     26  C   UNL     1     105.589 125.834 145.300  0.00  0.00    +0.000 C 
ATOM     27  C   UNL     1     106.227 126.403 144.156  0.00  0.00    +0.000 C 
ATOM     28  C   UNL     1     106.124 127.157 144.475  0.00  0.00    +0.000 C 
ATOM     29  C   UNL     1     105.754 127.249 145.206  0.00  0.00    +0.000 C 
ATOM     30  C   UNL     1     105.652 128.003 145.524  0.00  0.00    +0.000 C 
ENDBRANCH  20  26
ENDBRANCH   4  20
TORSDOF 3
ENDMDL
MODEL 2
REMARK VINA RESULT:      -9.7     11.908     12.988
REMARK  Name = 44257060
REMARK  3 active torsions:
REMARK  status: ('A' for Active; 'I' for Inactive)
REMARK    1  A    between atoms: O_1  and  C_11
REMARK    2  A    between atoms: O_1  and  C_14
REMARK    3  A    between atoms: C_16  and  C_20
REMARK                            x       y       z     vdW  Elec       q    Type
REMARK                         _______ _______ _______ _____ _____    ______ ____
ROOT
ATOM      1  O   UNL     1     112.016 125.762 136.043  0.00  0.00    +0.000 OA
ATOM      2  O   UNL     1     110.566 128.209 135.535  0.00  0.00    +0.000 OA
ATOM      3  O   UNL     1     109.481 125.660 134.613  0.00  0.00    +0.000 OA
ATOM      4  C   UNL     1     112.543 127.012 136.493  0.00  0.00    +0.000 C 
ATOM      5  C   UNL     1     112.606 126.193 136.427  0.00  0.00    +0.000 C 
ATOM      6  C   UNL     1     111.888 127.402 136.175  0.00  0.00    +0.000 C 
ATOM      7  C   UNL     1     111.298 126.972 135.791  0.00  0.00    +0.000 A 
ATOM      8  C   UNL     1     111.362 126.152 135.726  0.00  0.00    +0.000 A 
ATOM      9  C   UNL     1     110.622 127.389 135.464  0.00  0.00    +0.000 A 
ATOM     10  C   UNL     1     110.754 125.693 135.329  0.00  0.00    +0.000 A 
ATOM     11  C   UNL     1     110.004 126.947 135.064  0.00  0.00    +0.000 A 
ATOM     12  C   UNL     1     110.070 126.092 134.996  0.00  0.00    +0.000 A 
ENDROOT
BRANCH   5  14
ATOM     13  O   UNL     1     115.222 124.635 137.699  0.00  0.00    +0.000 OA
ATOM     14  C   UNL     1     113.261 125.803 136.745  0.00  0.00    +0.000 A 
ATOM     15  C   UNL     1     113.278 125.616 137.548  0.00  0.00    +0.000 A 
ATOM     16  C   UNL     1     113.896 125.601 136.260  0.00  0.00    +0.000 A 
ATOM     17  C   UNL     1     113.933 125.226 137.866  0.00  0.00    +0.000 A 
ATOM     18  C   UNL     1     114.550 125.212 136.578  0.00  0.00    +0.000 A 
ATOM     19  C   UNL     1     114.569 125.024 137.381  0.00  0.00    +0.000 A 
ENDBRANCH   5  14
BRANCH   4  20
ATOM     20  O   UNL     1     113.133 127.443 136.876  0.00  0.00    +0.000 OA
BRANCH  20  26
ATOM     21  O   UNL     1     113.587 128.309 135.834  0.00  0.00    +0.000 OA
ATOM     22  O   UNL     1     113.016 128.733 137.898  0.00  0.00    +0.000 OA
ATOM     23  O   UNL     1     113.412 130.244 137.367  0.00  0.00    +0.000 OA
ATOM     24  O   UNL     1     113.924 130.466 135.814  0.00  0.00    +0.000 OA
ATOM     25  C   UNL     1     113.272 128.844 137.121  0.00  0.00    +0.000 C 
ATOM     26  C   UNL     1     113.331 128.198 136.610  0.00  0.00    +0.000 C 
ATOM     27  C   UNL     1     113.470 129.599 136.856  0.00  0.00    +0.000 C 
ATOM     28  C   UNL     1     113.726 129.709 136.079  0.00  0.00    +0.000 C 
ATOM     29  C   UNL     1     113.784 129.064 135.569  0.00  0.00    +0.000 C 
ATOM     30  C   UNL     1     114.041 129.175 134.792  0.00  0.00    +0.000 C 
ENDBRANCH  20  26
ENDBRANCH   4  20
TORSDOF 3
ENDMDL
MODEL 3
REMARK VINA RESULT:      -9.5     10.742     12.919
REMARK  Name = 44257060
REMARK  3 active torsions:
REMARK  status: ('A' for Active; 'I' for Inactive)
REMARK    1  A    between atoms: O_1  and  C_11
REMARK    2  A    between atoms: O_1  and  C_14
REMARK    3  A    between atoms: C_16  and  C_20
REMARK                            x       y       z     vdW  Elec       q    Type
REMARK                         _______ _______ _______ _____ _____    ______ ____
ROOT
ATOM      1  O   UNL     1     114.040 127.499 136.172  0.00  0.00    +0.000 OA
ATOM      2  O   UNL     1     111.790 129.239 135.668  0.00  0.00    +0.000 OA
ATOM      3  O   UNL     1     114.484 130.104 134.949  0.00  0.00    +0.000 OA
ATOM      4  C   UNL     1     112.720 127.080 136.523  0.00  0.00    +0.000 C 
ATOM      5  C   UNL     1     113.530 126.933 136.489  0.00  0.00    +0.000 C 
ATOM      6  C   UNL     1     112.418 127.794 136.239  0.00  0.00    +0.000 C 
ATOM      7  C   UNL     1     112.928 128.361 135.922  0.00  0.00    +0.000 A 
ATOM      8  C   UNL     1     113.739 128.212 135.889  0.00  0.00    +0.000 A 
ATOM      9  C   UNL     1     112.602 129.100 135.631  0.00  0.00    +0.000 A 
ATOM     10  C   UNL     1     114.280 128.794 135.562  0.00  0.00    +0.000 A 
ATOM     11  C   UNL     1     113.128 129.693 135.300  0.00  0.00    +0.000 A 
ATOM     12  C   UNL     1     113.972 129.540 135.265  0.00  0.00    +0.000 A 
ENDROOT
BRANCH   5  14
ATOM     13  O   UNL     1     114.735 124.077 137.623  0.00  0.00    +0.000 OA
ATOM     14  C   UNL     1     113.832 126.218 136.773  0.00  0.00    +0.000 A 
ATOM     15  C   UNL     1     113.955 126.116 137.582  0.00  0.00    +0.000 A 
ATOM     16  C   UNL     1     114.009 125.608 136.247  0.00  0.00    +0.000 A 
ATOM     17  C   UNL     1     114.257 125.401 137.865  0.00  0.00    +0.000 A 
ATOM     18  C   UNL     1     114.310 124.894 136.530  0.00  0.00    +0.000 A 
ATOM     19  C   UNL     1     114.434 124.790 137.339  0.00  0.00    +0.000 A 
ENDBRANCH   5  14
BRANCH   4  20
ATOM     20  O   UNL     1     112.210 126.514 136.839  0.00  0.00    +0.000 OA
BRANCH  20  26
ATOM     21  O   UNL     1     111.356 126.244 135.726  0.00  0.00    +0.000 OA
ATOM     22  O   UNL     1     110.888 126.678 137.813  0.00  0.00    +0.000 OA
ATOM     23  O   UNL     1     109.373 126.490 137.187  0.00  0.00    +0.000 OA
ATOM     24  O   UNL     1     109.180 126.138 135.586  0.00  0.00    +0.000 OA
ATOM     25  C   UNL     1     110.792 126.502 137.012  0.00  0.00    +0.000 C 
ATOM     26  C   UNL     1     111.453 126.420 136.525  0.00  0.00    +0.000 C 
ATOM     27  C   UNL     1     110.034 126.408 136.700  0.00  0.00    +0.000 C 
ATOM     28  C   UNL     1     109.938 126.232 135.900  0.00  0.00    +0.000 C 
ATOM     29  C   UNL     1     110.599 126.150 135.413  0.00  0.00    +0.000 C 
ATOM     30  C   UNL     1     110.502 125.974 134.612  0.00  0.00    +0.000 C 
ENDBRANCH  20  26
ENDBRANCH   4  20
TORSDOF 3
ENDMDL
MODEL 4
REMARK VINA RESULT:      -9.0     10.619     11.649
REMARK  Name = 44257060
REMARK  3 active torsions:
REMARK  status: ('A' for Active; 'I' for Inactive)
REMARK    1  A    between atoms: O_1  and  C_11
REMARK    2  A    between atoms: O_1  and  C_14
REMARK    3  A    between atoms: C_16  and  C_20
REMARK                            x       y       z     vdW  Elec       q    Type
REMARK                         _______ _______ _______ _____ _____    ______ ____
ROOT
ATOM      1  O   UNL     1     113.184 126.070 138.798  0.00  0.00    +0.000 OA
ATOM      2  O   UNL     1     113.264 128.943 139.091  0.00  0.00    +0.000 OA
ATOM      3  O   UNL     1     114.392 127.238 141.176  0.00  0.00    +0.000 OA
ATOM      4  C   UNL     1     112.633 126.908 137.780  0.00  0.00    +0.000 C 
ATOM      5  C   UNL     1     112.803 126.155 138.071  0.00  0.00    +0.000 C 
ATOM      6  C   UNL     1     112.843 127.576 138.217  0.00  0.00    +0.000 C 
ATOM      7  C   UNL     1     113.224 127.490 138.944  0.00  0.00    +0.000 A 
ATOM      8  C   UNL     1     113.394 126.737 139.234  0.00  0.00    +0.000 A 
ATOM      9  C   UNL     1     113.438 128.193 139.389  0.00  0.00    +0.000 A 
ATOM     10  C   UNL     1     113.790 126.635 139.990  0.00  0.00    +0.000 A 
ATOM     11  C   UNL     1     113.834 128.111 140.147  0.00  0.00    +0.000 A 
ATOM     12  C   UNL     1     114.012 127.326 140.450  0.00  0.00    +0.000 A 
ENDROOT
BRANCH   5  14
ATOM     13  O   UNL     1     111.960 123.485 136.325  0.00  0.00    +0.000 OA
ATOM     14  C   UNL     1     112.592 125.487 137.634  0.00  0.00    +0.000 A 
ATOM     15  C   UNL     1     111.820 125.199 137.669  0.00  0.00    +0.000 A 
ATOM     16  C   UNL     1     113.154 125.108 137.163  0.00  0.00    +0.000 A 
ATOM     17  C   UNL     1     111.610 124.530 137.232  0.00  0.00    +0.000 A 
ATOM     18  C   UNL     1     112.943 124.441 136.727  0.00  0.00    +0.000 A 
ATOM     19  C   UNL     1     112.171 124.152 136.761  0.00  0.00    +0.000 A 
ENDBRANCH   5  14
BRANCH   4  20
ATOM     20  O   UNL     1     112.252 126.993 137.053  0.00  0.00    +0.000 OA
BRANCH  20  26
ATOM     21  O   UNL     1     113.231 127.735 136.323  0.00  0.00    +0.000 OA
ATOM     22  O   UNL     1     111.078 128.026 136.528  0.00  0.00    +0.000 OA
ATOM     23  O   UNL     1     111.469 129.285 135.535  0.00  0.00    +0.000 OA
ATOM     24  O   UNL     1     113.036 129.510 135.068  0.00  0.00    +0.000 OA
ATOM     25  C   UNL     1     111.861 128.139 136.294  0.00  0.00    +0.000 C 
ATOM     26  C   UNL     1     112.449 127.623 136.557  0.00  0.00    +0.000 C 
ATOM     27  C   UNL     1     112.057 128.768 135.798  0.00  0.00    +0.000 C 
ATOM     28  C   UNL     1     112.840 128.880 135.565  0.00  0.00    +0.000 C 
ATOM     29  C   UNL     1     113.427 128.364 135.827  0.00  0.00    +0.000 C 
ATOM     30  C   UNL     1     114.210 128.477 135.593  0.00  0.00    +0.000 C 
ENDBRANCH  20  26
ENDBRANCH   4  20
TORSDOF 3
ENDMDL
MODEL 5
REMARK VINA RESULT:      -9.0      9.326     11.672
REMARK  Name = 44257060
REMARK  3 active torsions:
REMARK  status: ('A' for Active; 'I' for Inactive)
REMARK    1  A    between atoms: O_1  and  C_11
REMARK    2  A    between atoms: O_1  and  C_14
REMARK    3  A    between atoms: C_16  and  C_20
REMARK                            x       y       z     vdW  Elec       q    Type
REMARK                         _______ _______ _______ _____ _____    ______ ____
ROOT
ATOM      1  O   UNL     1     111.799 125.562 136.158  0.00  0.00    +0.000 OA
ATOM      2  O   UNL     1     109.470 126.781 137.356  0.00  0.00    +0.000 OA
ATOM      3  O   UNL     1     109.341 125.790 134.612  0.00  0.00    +0.000 OA
ATOM      4  C   UNL     1     111.857 126.048 137.500  0.00  0.00    +0.000 C 
ATOM      5  C   UNL     1     112.221 125.685 136.855  0.00  0.00    +0.000 C 
ATOM      6  C   UNL     1     111.069 126.288 137.447  0.00  0.00    +0.000 C 
ATOM      7  C   UNL     1     110.646 126.165 136.749  0.00  0.00    +0.000 A 
ATOM      8  C   UNL     1     111.012 125.801 136.105  0.00  0.00    +0.000 A 
ATOM      9  C   UNL     1     109.827 126.418 136.706  0.00  0.00    +0.000 A 
ATOM     10  C   UNL     1     110.582 125.667 135.373  0.00  0.00    +0.000 A 
ATOM     11  C   UNL     1     109.381 126.293 135.983  0.00  0.00    +0.000 A 
ATOM     12  C   UNL     1     109.761 125.915 135.311  0.00  0.00    +0.000 A 
ENDROOT
BRANCH   5  14
ATOM     13  O   UNL     1     115.372 124.727 137.068  0.00  0.00    +0.000 OA
ATOM     14  C   UNL     1     113.010 125.446 136.908  0.00  0.00    +0.000 A 
ATOM     15  C   UNL     1     113.196 124.714 137.240  0.00  0.00    +0.000 A 
ATOM     16  C   UNL     1     113.610 125.938 136.630  0.00  0.00    +0.000 A 
ATOM     17  C   UNL     1     113.984 124.474 137.294  0.00  0.00    +0.000 A 
ATOM     18  C   UNL     1     114.397 125.698 136.683  0.00  0.00    +0.000 A 
ATOM     19  C   UNL     1     114.585 124.967 137.015  0.00  0.00    +0.000 A 
ENDBRANCH   5  14
BRANCH   4  20
ATOM     20  O   UNL     1     112.280 126.172 138.198  0.00  0.00    +0.000 OA
BRANCH  20  26
ATOM     21  O   UNL     1     112.230 127.596 138.302  0.00  0.00    +0.000 OA
ATOM     22  O   UNL     1     111.841 126.040 139.783  0.00  0.00    +0.000 OA
ATOM     23  O   UNL     1     111.572 127.399 140.680  0.00  0.00    +0.000 OA
ATOM     24  O   UNL     1     111.743 128.889 139.992  0.00  0.00    +0.000 OA
ATOM     25  C   UNL     1     111.926 126.786 139.439  0.00  0.00    +0.000 C 
ATOM     26  C   UNL     1     112.145 126.851 138.646  0.00  0.00    +0.000 C 
ATOM     27  C   UNL     1     111.792 127.464 139.888  0.00  0.00    +0.000 C 
ATOM     28  C   UNL     1     111.877 128.209 139.543  0.00  0.00    +0.000 C 
ATOM     29  C   UNL     1     112.096 128.275 138.751  0.00  0.00    +0.000 C 
ATOM     30  C   UNL     1     112.181 129.020 138.407  0.00  0.00    +0.000 C 
ENDBRANCH  20  26
ENDBRANCH   4  20
TORSDOF 3
ENDMDL
MODEL 6
REMARK VINA RESULT:      -9.0      9.212     11.836
REMARK  Name = 44257060
REMARK  3 active torsions:
REMARK  status: ('A' for Active; 'I' for Inactive)
REMARK    1  A    between atoms: O_1  and  C_11
REMARK    2  A    between atoms: O_1  and  C_14
REMARK    3  A    between atoms: C_16  and  C_20
REMARK                            x       y       z     vdW  Elec       q    Type
REMARK                         _______ _______ _______ _____ _____    ______ ____
ROOT
ATOM      1  O   UNL     1     113.240 126.839 136.452  0.00  0.00    +0.000 OA
ATOM      2  O   UNL     1     113.045 129.231 138.059  0.00  0.00    +0.000 OA
ATOM      3  O   UNL     1     114.040 129.400 135.318  0.00  0.00    +0.000 OA
ATOM      4  C   UNL     1     112.754 126.761 137.793  0.00  0.00    +0.000 C 
ATOM      5  C   UNL     1     112.948 126.393 137.081  0.00  0.00    +0.000 C 
ATOM      6  C   UNL     1     112.852 127.577 137.875  0.00  0.00    +0.000 C 
ATOM      7  C   UNL     1     113.144 128.023 137.246  0.00  0.00    +0.000 A 
ATOM      8  C   UNL     1     113.338 127.653 136.534  0.00  0.00    +0.000 A 
ATOM      9  C   UNL     1     113.242 128.870 137.343  0.00  0.00    +0.000 A 
ATOM     10  C   UNL     1     113.643 128.107 135.871  0.00  0.00    +0.000 A 
ATOM     11  C   UNL     1     113.545 129.341 136.691  0.00  0.00    +0.000 A 
ATOM     12  C   UNL     1     113.748 128.956 135.950  0.00  0.00    +0.000 A 
ENDROOT
BRANCH   5  14
ATOM     13  O   UNL     1     112.555 123.133 136.753  0.00  0.00    +0.000 OA
ATOM     14  C   UNL     1     112.850 125.577 136.999  0.00  0.00    +0.000 A 
ATOM     15  C   UNL     1     112.110 125.269 136.805  0.00  0.00    +0.000 A 
ATOM     16  C   UNL     1     113.492 125.071 137.112  0.00  0.00    +0.000 A 
ATOM     17  C   UNL     1     112.012 124.453 136.723  0.00  0.00    +0.000 A 
ATOM     18  C   UNL     1     113.393 124.257 137.030  0.00  0.00    +0.000 A 
ATOM     19  C   UNL     1     112.653 123.947 136.835  0.00  0.00    +0.000 A 
ENDBRANCH   5  14
BRANCH   4  20
ATOM     20  O   UNL     1     112.462 126.316 138.423  0.00  0.00    +0.000 OA
BRANCH  20  26
ATOM     21  O   UNL     1     113.429 126.627 139.429  0.00  0.00    +0.000 OA
ATOM     22  O   UNL     1     111.249 126.554 139.516  0.00  0.00    +0.000 OA
ATOM     23  O   UNL     1     111.609 126.984 141.067  0.00  0.00    +0.000 OA
ATOM     24  O   UNL     1     113.182 127.176 141.527  0.00  0.00    +0.000 OA
ATOM     25  C   UNL     1     112.036 126.650 139.745  0.00  0.00    +0.000 C 
ATOM     26  C   UNL     1     112.643 126.531 139.199  0.00  0.00    +0.000 C 
ATOM     27  C   UNL     1     112.215 126.865 140.521  0.00  0.00    +0.000 C 
ATOM     28  C   UNL     1     113.002 126.961 140.750  0.00  0.00    +0.000 C 
ATOM     29  C   UNL     1     113.609 126.842 140.204  0.00  0.00    +0.000 C 
ATOM     30  C   UNL     1     114.395 126.938 140.434  0.00  0.00    +0.000 C 
ENDBRANCH  20  26
ENDBRANCH   4  20
TORSDOF 3
ENDMDL
MODEL 7
REMARK VINA RESULT:      -9.0     10.815     11.946
REMARK  Name = 44257060
REMARK  3 active torsions:
REMARK  status: ('A' for Active; 'I' for Inactive)
REMARK    1  A    between atoms: O_1  and  C_11
REMARK    2  A    between atoms: O_1  and  C_14
REMARK    3  A    between atoms: C_16  and  C_20
REMARK                            x       y       z     vdW  Elec       q    Type
REMARK                         _______ _______ _______ _____ _____    ______ ____
ROOT
ATOM      1  O   UNL     1     111.018 125.263 136.491  0.00  0.00    +0.000 OA
ATOM      2  O   UNL     1     113.900 125.456 136.513  0.00  0.00    +0.000 OA
ATOM      3  O   UNL     1     112.610 122.909 137.128  0.00  0.00    +0.000 OA
ATOM      4  C   UNL     1     111.654 126.507 136.191  0.00  0.00    +0.000 C 
ATOM      5  C   UNL     1     110.967 126.061 136.287  0.00  0.00    +0.000 C 
ATOM      6  C   UNL     1     112.393 126.155 136.298  0.00  0.00    +0.000 C 
ATOM      7  C   UNL     1     112.444 125.357 136.502  0.00  0.00    +0.000 A 
ATOM      8  C   UNL     1     111.756 124.912 136.598  0.00  0.00    +0.000 A 
ATOM      9  C   UNL     1     113.218 125.002 136.611  0.00  0.00    +0.000 A 
ATOM     10  C   UNL     1     111.796 124.080 136.811  0.00  0.00    +0.000 A 
ATOM     11  C   UNL     1     113.278 124.172 136.824  0.00  0.00    +0.000 A 
ATOM     12  C   UNL     1     112.562 123.707 136.924  0.00  0.00    +0.000 A 
ENDROOT
BRANCH   5  14
ATOM     13  O   UNL     1     108.013 127.469 135.856  0.00  0.00    +0.000 OA
ATOM     14  C   UNL     1     110.228 126.413 136.180  0.00  0.00    +0.000 A 
ATOM     15  C   UNL     1     109.913 126.486 135.421  0.00  0.00    +0.000 A 
ATOM     16  C   UNL     1     109.805 126.691 136.831  0.00  0.00    +0.000 A 
ATOM     17  C   UNL     1     109.174 126.839 135.313  0.00  0.00    +0.000 A 
ATOM     18  C   UNL     1     109.067 127.043 136.723  0.00  0.00    +0.000 A 
ATOM     19  C   UNL     1     108.751 127.117 135.964  0.00  0.00    +0.000 A 
ENDBRANCH   5  14
BRANCH   4  20
ATOM     20  O   UNL     1     111.603 127.305 135.987  0.00  0.00    +0.000 OA
BRANCH  20  26
ATOM     21  O   UNL     1     112.246 127.894 137.118  0.00  0.00    +0.000 OA
ATOM     22  O   UNL     1     112.464 128.291 134.983  0.00  0.00    +0.000 OA
ATOM     23  O   UNL     1     113.539 129.373 135.613  0.00  0.00    +0.000 OA
ATOM     24  O   UNL     1     113.752 129.470 137.246  0.00  0.00    +0.000 OA
ATOM     25  C   UNL     1     112.571 128.339 135.800  0.00  0.00    +0.000 C 
ATOM     26  C   UNL     1     112.140 127.846 136.302  0.00  0.00    +0.000 C 
ATOM     27  C   UNL     1     113.108 128.880 136.115  0.00  0.00    +0.000 C 
ATOM     28  C   UNL     1     113.214 128.928 136.931  0.00  0.00    +0.000 C 
ATOM     29  C   UNL     1     112.783 128.435 137.433  0.00  0.00    +0.000 C 
ATOM     30  C   UNL     1     112.890 128.484 138.250  0.00  0.00    +0.000 C 
ENDBRANCH  20  26
ENDBRANCH   4  20
TORSDOF 3
ENDMDL
MODEL 8
REMARK VINA RESULT:      -9.0      0.977      3.377
REMARK  Name = 44257060
REMARK  3 active torsions:
REMARK  status: ('A' for Active; 'I' for Inactive)
REMARK    1  A    between atoms: O_1  and  C_11
REMARK    2  A    between atoms: O_1  and  C_14
REMARK    3  A    between atoms: C_16  and  C_20
REMARK                            x       y       z     vdW  Elec       q    Type
REMARK                         _______ _______ _______ _____ _____    ______ ____
ROOT
ATOM      1  O   UNL     1     104.291 124.477 148.352  0.00  0.00    +0.000 OA
ATOM      2  O   UNL     1     102.867 124.303 145.844  0.00  0.00    +0.000 OA
ATOM      3  O   UNL     1     101.425 123.963 148.361  0.00  0.00    +0.000 OA
ATOM      4  C   UNL     1     104.993 124.643 147.118  0.00  0.00    +0.000 C 
ATOM      5  C   UNL     1     104.994 124.616 147.942  0.00  0.00    +0.000 C 
ATOM      6  C   UNL     1     104.288 124.530 146.703  0.00  0.00    +0.000 C 
ATOM      7  C   UNL     1     103.586 124.391 147.112  0.00  0.00    +0.000 A 
ATOM      8  C   UNL     1     103.588 124.364 147.937  0.00  0.00    +0.000 A 
ATOM      9  C   UNL     1     102.859 124.275 146.669  0.00  0.00    +0.000 A 
ATOM     10  C   UNL     1     102.863 124.220 148.375  0.00  0.00    +0.000 A 
ATOM     11  C   UNL     1     102.125 124.130 147.090  0.00  0.00    +0.000 A 
ATOM     12  C   UNL     1     102.126 124.102 147.948  0.00  0.00    +0.000 A 
ENDROOT
BRANCH   5  14
ATOM     13  O   UNL     1     107.811 125.066 149.602  0.00  0.00    +0.000 OA
ATOM     14  C   UNL     1     105.699 124.729 148.358  0.00  0.00    +0.000 A 
ATOM     15  C   UNL     1     106.231 124.104 148.443  0.00  0.00    +0.000 A 
ATOM     16  C   UNL     1     105.870 125.466 148.687  0.00  0.00    +0.000 A 
ATOM     17  C   UNL     1     106.935 124.217 148.858  0.00  0.00    +0.000 A 
ATOM     18  C   UNL     1     106.574 125.578 149.101  0.00  0.00    +0.000 A 
ATOM     19  C   UNL     1     107.107 124.954 149.187  0.00  0.00    +0.000 A 
ENDBRANCH   5  14
BRANCH   4  20
ATOM     20  O   UNL     1     105.695 124.782 146.709  0.00  0.00    +0.000 OA
BRANCH  20  26
ATOM     21  O   UNL     1     105.409 126.030 146.074  0.00  0.00    +0.000 OA
ATOM     22  O   UNL     1     106.255 124.183 145.277  0.00  0.00    +0.000 OA
ATOM     23  O   UNL     1     106.248 125.131 143.926  0.00  0.00    +0.000 OA
ATOM     24  O   UNL     1     105.681 126.678 144.008  0.00  0.00    +0.000 OA
ATOM     25  C   UNL     1     105.972 124.957 145.318  0.00  0.00    +0.000 C 
ATOM     26  C   UNL     1     105.692 125.257 146.034  0.00  0.00    +0.000 C 
ATOM     27  C   UNL     1     105.968 125.431 144.642  0.00  0.00    +0.000 C 
ATOM     28  C   UNL     1     105.685 126.204 144.684  0.00  0.00    +0.000 C 
ATOM     29  C   UNL     1     105.405 126.504 145.399  0.00  0.00    +0.000 C 
ATOM     30  C   UNL     1     105.122 127.278 145.439  0.00  0.00    +0.000 C 
ENDBRANCH  20  26
ENDBRANCH   4  20
TORSDOF 3
ENDMDL
MODEL 9
REMARK VINA RESULT:      -9.0      9.087     11.573
REMARK  Name = 44257060
REMARK  3 active torsions:
REMARK  status: ('A' for Active; 'I' for Inactive)
REMARK    1  A    between atoms: O_1  and  C_11
REMARK    2  A    between atoms: O_1  and  C_14
REMARK    3  A    between atoms: C_16  and  C_20
REMARK                            x       y       z     vdW  Elec       q    Type
REMARK                         _______ _______ _______ _____ _____    ______ ____
ROOT
ATOM      1  O   UNL     1     112.762 125.956 138.531  0.00  0.00    +0.000 OA
ATOM      2  O   UNL     1     109.894 126.292 138.621  0.00  0.00    +0.000 OA
ATOM      3  O   UNL     1     111.481 126.699 141.038  0.00  0.00    +0.000 OA
ATOM      4  C   UNL     1     111.981 125.758 137.350  0.00  0.00    +0.000 C 
ATOM      5  C   UNL     1     112.714 125.769 137.729  0.00  0.00    +0.000 C 
ATOM      6  C   UNL     1     111.295 125.935 137.775  0.00  0.00    +0.000 C 
ATOM      7  C   UNL     1     111.343 126.122 138.577  0.00  0.00    +0.000 A 
ATOM      8  C   UNL     1     112.077 126.133 138.954  0.00  0.00    +0.000 A 
ATOM      9  C   UNL     1     110.623 126.305 139.007  0.00  0.00    +0.000 A 
ATOM     10  C   UNL     1     112.140 126.326 139.789  0.00  0.00    +0.000 A 
ATOM     11  C   UNL     1     110.666 126.501 139.843  0.00  0.00    +0.000 A 
ATOM     12  C   UNL     1     111.430 126.512 140.237  0.00  0.00    +0.000 A 
ENDROOT
BRANCH   5  14
ATOM     13  O   UNL     1     115.454 125.060 136.032  0.00  0.00    +0.000 OA
ATOM     14  C   UNL     1     113.399 125.591 137.304  0.00  0.00    +0.000 A 
ATOM     15  C   UNL     1     113.633 124.806 137.209  0.00  0.00    +0.000 A 
ATOM     16  C   UNL     1     113.850 126.200 136.975  0.00  0.00    +0.000 A 
ATOM     17  C   UNL     1     114.319 124.629 136.785  0.00  0.00    +0.000 A 
ATOM     18  C   UNL     1     114.534 126.022 136.551  0.00  0.00    +0.000 A 
ATOM     19  C   UNL     1     114.769 125.237 136.456  0.00  0.00    +0.000 A 
ENDBRANCH   5  14
BRANCH   4  20
ATOM     20  O   UNL     1     111.933 125.570 136.548  0.00  0.00    +0.000 OA
BRANCH  20  26
ATOM     21  O   UNL     1     111.408 126.787 136.013  0.00  0.00    +0.000 OA
ATOM     22  O   UNL     1     110.821 124.711 135.683  0.00  0.00    +0.000 OA
ATOM     23  O   UNL     1     109.741 125.498 134.716  0.00  0.00    +0.000 OA
ATOM     24  O   UNL     1     109.772 127.145 134.613  0.00  0.00    +0.000 OA
ATOM     25  C   UNL     1     110.837 125.535 135.632  0.00  0.00    +0.000 C 
ATOM     26  C   UNL     1     111.393 125.965 136.065  0.00  0.00    +0.000 C 
ATOM     27  C   UNL     1     110.296 125.928 135.148  0.00  0.00    +0.000 C 
ATOM     28  C   UNL     1     110.313 126.751 135.098  0.00  0.00    +0.000 C 
ATOM     29  C   UNL     1     110.869 127.181 135.530  0.00  0.00    +0.000 C 
ATOM     30  C   UNL     1     110.884 128.004 135.478  0.00  0.00    +0.000 C 
ENDBRANCH  20  26
ENDBRANCH   4  20
TORSDOF 3
ENDMDL
MODEL 10
REMARK VINA RESULT:      -9.0      9.758     11.685
REMARK  Name = 44257060
REMARK  3 active torsions:
REMARK  status: ('A' for Active; 'I' for Inactive)
REMARK    1  A    between atoms: O_1  and  C_11
REMARK    2  A    between atoms: O_1  and  C_14
REMARK    3  A    between atoms: C_16  and  C_20
REMARK                            x       y       z     vdW  Elec       q    Type
REMARK                         _______ _______ _______ _____ _____    ______ ____
ROOT
ATOM      1  O   UNL     1     112.457 125.426 138.161  0.00  0.00    +0.000 OA
ATOM      2  O   UNL     1     111.290 126.057 135.594  0.00  0.00    +0.000 OA
ATOM      3  O   UNL     1     111.745 123.269 136.338  0.00  0.00    +0.000 OA
ATOM      4  C   UNL     1     112.233 126.788 137.792  0.00  0.00    +0.000 C 
ATOM      5  C   UNL     1     112.500 126.231 138.338  0.00  0.00    +0.000 C 
ATOM      6  C   UNL     1     111.923 126.541 137.068  0.00  0.00    +0.000 C 
ATOM      7  C   UNL     1     111.880 125.737 136.891  0.00  0.00    +0.000 A 
ATOM      8  C   UNL     1     112.148 125.179 137.438  0.00  0.00    +0.000 A 
ATOM      9  C   UNL     1     111.555 125.492 136.135  0.00  0.00    +0.000 A 
ATOM     10  C   UNL     1     112.108 124.339 137.264  0.00  0.00    +0.000 A 
ATOM     11  C   UNL     1     111.508 124.656 135.944  0.00  0.00    +0.000 A 
ATOM     12  C   UNL     1     111.787 124.075 136.512  0.00  0.00    +0.000 A 
ENDROOT
BRANCH   5  14
ATOM     13  O   UNL     1     113.739 127.219 141.232  0.00  0.00    +0.000 OA
ATOM     14  C   UNL     1     112.810 126.478 139.062  0.00  0.00    +0.000 A 
ATOM     15  C   UNL     1     112.304 126.643 139.692  0.00  0.00    +0.000 A 
ATOM     16  C   UNL     1     113.626 126.560 139.155  0.00  0.00    +0.000 A 
ATOM     17  C   UNL     1     112.614 126.891 140.416  0.00  0.00    +0.000 A 
ATOM     18  C   UNL     1     113.935 126.807 139.878  0.00  0.00    +0.000 A 
ATOM     19  C   UNL     1     113.430 126.972 140.509  0.00  0.00    +0.000 A 
ENDBRANCH   5  14
BRANCH   4  20
ATOM     20  O   UNL     1     112.275 127.593 137.970  0.00  0.00    +0.000 OA
BRANCH  20  26
ATOM     21  O   UNL     1     113.107 128.066 136.909  0.00  0.00    +0.000 OA
ATOM     22  O   UNL     1     111.222 128.834 137.697  0.00  0.00    +0.000 OA
ATOM     23  O   UNL     1     111.528 129.927 136.500  0.00  0.00    +0.000 OA
ATOM     24  O   UNL     1     112.886 129.780 135.575  0.00  0.00    +0.000 OA
ATOM     25  C   UNL     1     111.902 128.760 137.234  0.00  0.00    +0.000 C 
ATOM     26  C   UNL     1     112.429 128.139 137.371  0.00  0.00    +0.000 C 
ATOM     27  C   UNL     1     112.054 129.307 136.636  0.00  0.00    +0.000 C 
ATOM     28  C   UNL     1     112.734 129.232 136.174  0.00  0.00    +0.000 C 
ATOM     29  C   UNL     1     113.260 128.612 136.310  0.00  0.00    +0.000 C 
ATOM     30  C   UNL     1     113.939 128.539 135.847  0.00  0.00    +0.000 C 
ENDBRANCH  20  26
ENDBRANCH   4  20
TORSDOF 3
ENDMDL
