MODEL 1
REMARK VINA RESULT:     -10.1      0.000      0.000
REMARK  Name = 44257132
REMARK  8 active torsions:
REMARK  status: ('A' for Active; 'I' for Inactive)
REMARK    1  A    between atoms: O_3  and  C_19
REMARK    2  A    between atoms: O_3  and  C_28
REMARK    3  A    between atoms: O_4  and  C_24
REMARK    4  A    between atoms: O_4  and  C_32
REMARK    5  A    between atoms: C_22  and  C_35
REMARK    6  A    between atoms: C_25  and  C_36
REMARK    7  A    between atoms: C_31  and  C_37
REMARK    8  A    between atoms: C_33  and  C_38
REMARK                            x       y       z     vdW  Elec       q    Type
REMARK                         _______ _______ _______ _____ _____    ______ ____
ROOT
ATOM      1  O   UNL     1     112.629 129.479 135.486  0.00  0.00    +0.000 OA
ATOM      2  O   UNL     1     113.394 127.319 136.212  0.00  0.00    +0.000 OA
ATOM      3  C   UNL     1     112.029 128.192 135.852  0.00  0.00    +0.000 A 
ATOM      4  C   UNL     1     112.807 127.862 136.005  0.00  0.00    +0.000 C 
ATOM      5  C   UNL     1     111.363 127.717 135.959  0.00  0.00    +0.000 A 
ATOM      6  C   UNL     1     113.505 128.351 135.895  0.00  0.00    +0.000 C 
ATOM      7  C   UNL     1     111.943 128.974 135.601  0.00  0.00    +0.000 A 
ATOM      8  C   UNL     1     113.415 129.165 135.634  0.00  0.00    +0.000 C 
ATOM      9  C   UNL     1     110.524 128.805 135.565  0.00  0.00    +0.000 A 
ATOM     10  C   UNL     1     110.611 128.024 135.816  0.00  0.00    +0.000 A 
ATOM     11  C   UNL     1     111.190 129.280 135.458  0.00  0.00    +0.000 A 
ATOM     12  C   UNL     1     111.103 130.061 135.207  0.00  0.00    +0.000 C 
ENDROOT
BRANCH   8  13
ATOM     13  C   UNL     1     114.079 129.642 135.526  0.00  0.00    +0.000 A 
ATOM     14  C   UNL     1     114.477 129.639 134.803  0.00  0.00    +0.000 A 
ATOM     15  C   UNL     1     114.346 130.123 136.141  0.00  0.00    +0.000 A 
ATOM     16  C   UNL     1     115.142 130.116 134.695  0.00  0.00    +0.000 A 
ATOM     17  C   UNL     1     115.010 130.600 136.033  0.00  0.00    +0.000 A 
ATOM     18  C   UNL     1     115.408 130.596 135.310  0.00  0.00    +0.000 A 
ENDBRANCH   8  13
BRANCH  10  20
ATOM     19  O   UNL     1     109.551 127.238 135.267  0.00  0.00    +0.000 OA
ATOM     20  C   UNL     1     109.944 127.550 135.923  0.00  0.00    +0.000 C 
ENDBRANCH  10  20
BRANCH   5  21
ATOM     21  O   UNL     1     111.449 126.937 136.210  0.00  0.00    +0.000 OA
BRANCH  21  29
ATOM     22  O   UNL     1     111.306 126.354 137.508  0.00  0.00    +0.000 OA
ATOM     23  O   UNL     1     111.527 124.096 136.520  0.00  0.00    +0.000 OA
ATOM     24  O   UNL     1     111.597 125.430 135.551  0.00  0.00    +0.000 OA
ATOM     25  O   UNL     1     111.311 124.268 138.146  0.00  0.00    +0.000 OA
ATOM     26  C   UNL     1     111.454 124.850 136.849  0.00  0.00    +0.000 C 
ATOM     27  C   UNL     1     111.488 125.516 136.365  0.00  0.00    +0.000 C 
ATOM     28  C   UNL     1     111.346 124.935 137.662  0.00  0.00    +0.000 C 
ATOM     29  C   UNL     1     111.415 126.269 136.694  0.00  0.00    +0.000 C 
ATOM     30  C   UNL     1     111.272 125.688 137.992  0.00  0.00    +0.000 C 
BRANCH  30  32
ATOM     31  O   UNL     1     111.230 126.518 139.154  0.00  0.00    +0.000 OA
ATOM     32  C   UNL     1     111.164 125.773 138.805  0.00  0.00    +0.000 C 
ENDBRANCH  30  32
ENDBRANCH  21  29
ENDBRANCH   5  21
BRANCH   9  33
ATOM     33  O   UNL     1     109.771 129.111 135.422  0.00  0.00    +0.000 OA
BRANCH  33  41
ATOM     34  O   UNL     1     109.609 129.525 136.779  0.00  0.00    +0.000 OA
ATOM     35  O   UNL     1     107.929 131.198 136.067  0.00  0.00    +0.000 OA
ATOM     36  O   UNL     1     108.651 130.226 134.948  0.00  0.00    +0.000 OA
ATOM     37  O   UNL     1     108.327 131.055 137.662  0.00  0.00    +0.000 OA
ATOM     38  C   UNL     1     108.489 130.641 136.305  0.00  0.00    +0.000 C 
ATOM     39  C   UNL     1     108.851 130.154 135.745  0.00  0.00    +0.000 C 
ATOM     40  C   UNL     1     108.688 130.569 137.103  0.00  0.00    +0.000 C 
ATOM     41  C   UNL     1     109.411 129.597 135.982  0.00  0.00    +0.000 C 
ATOM     42  C   UNL     1     109.248 130.011 137.340  0.00  0.00    +0.000 C 
BRANCH  42  44
ATOM     43  O   UNL     1     109.219 129.270 138.561  0.00  0.00    +0.000 OA
ATOM     44  C   UNL     1     109.447 129.940 138.137  0.00  0.00    +0.000 C 
ENDBRANCH  42  44
ENDBRANCH  33  41
ENDBRANCH   9  33
TORSDOF 8
ENDMDL
MODEL 2
REMARK VINA RESULT:      -9.9      2.442      4.681
REMARK  Name = 44257132
REMARK  8 active torsions:
REMARK  status: ('A' for Active; 'I' for Inactive)
REMARK    1  A    between atoms: O_3  and  C_19
REMARK    2  A    between atoms: O_3  and  C_28
REMARK    3  A    between atoms: O_4  and  C_24
REMARK    4  A    between atoms: O_4  and  C_32
REMARK    5  A    between atoms: C_22  and  C_35
REMARK    6  A    between atoms: C_25  and  C_36
REMARK    7  A    between atoms: C_31  and  C_37
REMARK    8  A    between atoms: C_33  and  C_38
REMARK                            x       y       z     vdW  Elec       q    Type
REMARK                         _______ _______ _______ _____ _____    ______ ____
ROOT
ATOM      1  O   UNL     1     112.667 126.527 138.043  0.00  0.00    +0.000 OA
ATOM      2  O   UNL     1     111.347 126.910 136.071  0.00  0.00    +0.000 OA
ATOM      3  C   UNL     1     111.481 127.307 137.677  0.00  0.00    +0.000 A 
ATOM      4  C   UNL     1     111.529 127.020 136.869  0.00  0.00    +0.000 C 
ATOM      5  C   UNL     1     110.875 127.827 137.883  0.00  0.00    +0.000 A 
ATOM      6  C   UNL     1     112.159 126.477 136.648  0.00  0.00    +0.000 C 
ATOM      7  C   UNL     1     112.031 127.068 138.244  0.00  0.00    +0.000 A 
ATOM      8  C   UNL     1     112.731 126.229 137.239  0.00  0.00    +0.000 C 
ATOM      9  C   UNL     1     111.368 127.871 139.224  0.00  0.00    +0.000 A 
ATOM     10  C   UNL     1     110.819 128.109 138.656  0.00  0.00    +0.000 A 
ATOM     11  C   UNL     1     111.975 127.351 139.017  0.00  0.00    +0.000 A 
ATOM     12  C   UNL     1     112.524 127.113 139.585  0.00  0.00    +0.000 C 
ENDROOT
BRANCH   8  13
ATOM     13  C   UNL     1     113.338 125.709 137.036  0.00  0.00    +0.000 A 
ATOM     14  C   UNL     1     113.242 124.897 137.147  0.00  0.00    +0.000 A 
ATOM     15  C   UNL     1     114.043 126.000 136.722  0.00  0.00    +0.000 A 
ATOM     16  C   UNL     1     113.849 124.377 136.944  0.00  0.00    +0.000 A 
ATOM     17  C   UNL     1     114.651 125.480 136.519  0.00  0.00    +0.000 A 
ATOM     18  C   UNL     1     114.553 124.669 136.630  0.00  0.00    +0.000 A 
ENDBRANCH   8  13
BRANCH  10  20
ATOM     19  O   UNL     1     109.553 128.351 139.273  0.00  0.00    +0.000 OA
ATOM     20  C   UNL     1     110.213 128.629 138.862  0.00  0.00    +0.000 C 
ENDBRANCH  10  20
BRANCH   5  21
ATOM     21  O   UNL     1     110.326 128.065 137.316  0.00  0.00    +0.000 OA
BRANCH  21  29
ATOM     22  O   UNL     1     110.242 129.267 136.547  0.00  0.00    +0.000 OA
ATOM     23  O   UNL     1     108.018 128.577 135.708  0.00  0.00    +0.000 OA
ATOM     24  O   UNL     1     108.843 127.605 136.756  0.00  0.00    +0.000 OA
ATOM     25  O   UNL     1     108.676 130.008 135.220  0.00  0.00    +0.000 OA
ATOM     26  C   UNL     1     108.760 128.807 135.989  0.00  0.00    +0.000 C 
ATOM     27  C   UNL     1     109.172 128.321 136.512  0.00  0.00    +0.000 C 
ATOM     28  C   UNL     1     109.089 129.522 135.744  0.00  0.00    +0.000 C 
ATOM     29  C   UNL     1     109.913 128.550 136.792  0.00  0.00    +0.000 C 
ATOM     30  C   UNL     1     109.830 129.753 136.024  0.00  0.00    +0.000 C 
BRANCH  30  32
ATOM     31  O   UNL     1     110.896 130.703 136.064  0.00  0.00    +0.000 OA
ATOM     32  C   UNL     1     110.158 130.469 135.779  0.00  0.00    +0.000 C 
ENDBRANCH  30  32
ENDBRANCH  21  29
ENDBRANCH   5  21
BRANCH   9  33
ATOM     33  O   UNL     1     111.311 128.154 139.997  0.00  0.00    +0.000 OA
BRANCH  33  41
ATOM     34  O   UNL     1     112.161 129.260 139.691  0.00  0.00    +0.000 OA
ATOM     35  O   UNL     1     112.522 129.651 142.108  0.00  0.00    +0.000 OA
ATOM     36  O   UNL     1     111.552 128.415 141.608  0.00  0.00    +0.000 OA
ATOM     37  O   UNL     1     113.252 130.628 140.996  0.00  0.00    +0.000 OA
ATOM     38  C   UNL     1     112.402 129.521 141.302  0.00  0.00    +0.000 C 
ATOM     39  C   UNL     1     111.917 128.903 141.052  0.00  0.00    +0.000 C 
ATOM     40  C   UNL     1     112.767 130.009 140.745  0.00  0.00    +0.000 C 
ATOM     41  C   UNL     1     111.796 128.772 140.246  0.00  0.00    +0.000 C 
ATOM     42  C   UNL     1     112.647 129.879 139.940  0.00  0.00    +0.000 C 
BRANCH  42  44
ATOM     43  O   UNL     1     112.560 130.889 138.933  0.00  0.00    +0.000 OA
ATOM     44  C   UNL     1     113.012 130.367 139.384  0.00  0.00    +0.000 C 
ENDBRANCH  42  44
ENDBRANCH  33  41
ENDBRANCH   9  33
TORSDOF 8
ENDMDL
MODEL 3
REMARK VINA RESULT:      -9.7      1.015      1.854
REMARK  Name = 44257132
REMARK  8 active torsions:
REMARK  status: ('A' for Active; 'I' for Inactive)
REMARK    1  A    between atoms: O_3  and  C_19
REMARK    2  A    between atoms: O_3  and  C_28
REMARK    3  A    between atoms: O_4  and  C_24
REMARK    4  A    between atoms: O_4  and  C_32
REMARK    5  A    between atoms: C_22  and  C_35
REMARK    6  A    between atoms: C_25  and  C_36
REMARK    7  A    between atoms: C_31  and  C_37
REMARK    8  A    between atoms: C_33  and  C_38
REMARK                            x       y       z     vdW  Elec       q    Type
REMARK                         _______ _______ _______ _____ _____    ______ ____
ROOT
ATOM      1  O   UNL     1     112.963 129.700 136.477  0.00  0.00    +0.000 OA
ATOM      2  O   UNL     1     113.610 127.389 136.344  0.00  0.00    +0.000 OA
ATOM      3  C   UNL     1     112.414 128.404 136.887  0.00  0.00    +0.000 A 
ATOM      4  C   UNL     1     113.098 128.000 136.560  0.00  0.00    +0.000 C 
ATOM      5  C   UNL     1     111.819 127.960 137.245  0.00  0.00    +0.000 A 
ATOM      6  C   UNL     1     113.723 128.458 136.186  0.00  0.00    +0.000 C 
ATOM      7  C   UNL     1     112.349 129.226 136.847  0.00  0.00    +0.000 A 
ATOM      8  C   UNL     1     113.654 129.313 136.145  0.00  0.00    +0.000 C 
ATOM      9  C   UNL     1     111.091 129.158 137.523  0.00  0.00    +0.000 A 
ATOM     10  C   UNL     1     111.157 128.336 137.562  0.00  0.00    +0.000 A 
ATOM     11  C   UNL     1     111.687 129.602 137.165  0.00  0.00    +0.000 A 
ATOM     12  C   UNL     1     111.621 130.424 137.125  0.00  0.00    +0.000 C 
ENDROOT
BRANCH   8  13
ATOM     13  C   UNL     1     114.248 129.760 135.788  0.00  0.00    +0.000 A 
ATOM     14  C   UNL     1     114.740 130.238 136.248  0.00  0.00    +0.000 A 
ATOM     15  C   UNL     1     114.352 129.730 134.970  0.00  0.00    +0.000 A 
ATOM     16  C   UNL     1     115.334 130.685 135.890  0.00  0.00    +0.000 A 
ATOM     17  C   UNL     1     114.947 130.177 134.613  0.00  0.00    +0.000 A 
ATOM     18  C   UNL     1     115.437 130.654 135.073  0.00  0.00    +0.000 A 
ENDBRANCH   8  13
BRANCH  10  20
ATOM     19  O   UNL     1     110.519 127.846 138.743  0.00  0.00    +0.000 OA
ATOM     20  C   UNL     1     110.561 127.892 137.920  0.00  0.00    +0.000 C 
ENDBRANCH  10  20
BRANCH   5  21
ATOM     21  O   UNL     1     111.884 127.139 137.285  0.00  0.00    +0.000 OA
BRANCH  21  29
ATOM     22  O   UNL     1     111.343 126.127 136.432  0.00  0.00    +0.000 OA
ATOM     23  O   UNL     1     112.231 124.379 137.942  0.00  0.00    +0.000 OA
ATOM     24  O   UNL     1     112.476 125.972 138.292  0.00  0.00    +0.000 OA
ATOM     25  O   UNL     1     111.394 123.951 136.586  0.00  0.00    +0.000 OA
ATOM     26  C   UNL     1     111.935 124.962 137.439  0.00  0.00    +0.000 C 
ATOM     27  C   UNL     1     112.058 125.759 137.614  0.00  0.00    +0.000 C 
ATOM     28  C   UNL     1     111.517 124.748 136.761  0.00  0.00    +0.000 C 
ATOM     29  C   UNL     1     111.762 126.341 137.111  0.00  0.00    +0.000 C 
ATOM     30  C   UNL     1     111.221 125.330 136.257  0.00  0.00    +0.000 C 
BRANCH  30  32
ATOM     31  O   UNL     1     110.362 125.681 135.171  0.00  0.00    +0.000 OA
ATOM     32  C   UNL     1     110.803 125.116 135.579  0.00  0.00    +0.000 C 
ENDBRANCH  30  32
ENDBRANCH  21  29
ENDBRANCH   5  21
BRANCH   9  33
ATOM     33  O   UNL     1     110.429 129.534 137.840  0.00  0.00    +0.000 OA
BRANCH  33  41
ATOM     34  O   UNL     1     109.688 129.392 136.628  0.00  0.00    +0.000 OA
ATOM     35  O   UNL     1     108.232 131.278 137.296  0.00  0.00    +0.000 OA
ATOM     36  O   UNL     1     109.459 130.792 138.285  0.00  0.00    +0.000 OA
ATOM     37  O   UNL     1     107.975 130.507 135.860  0.00  0.00    +0.000 OA
ATOM     38  C   UNL     1     108.717 130.649 137.073  0.00  0.00    +0.000 C 
ATOM     39  C   UNL     1     109.331 130.406 137.568  0.00  0.00    +0.000 C 
ATOM     40  C   UNL     1     108.589 130.263 136.355  0.00  0.00    +0.000 C 
ATOM     41  C   UNL     1     109.816 129.777 137.345  0.00  0.00    +0.000 C 
ATOM     42  C   UNL     1     109.074 129.634 136.132  0.00  0.00    +0.000 C 
BRANCH  42  44
ATOM     43  O   UNL     1     108.590 128.504 135.404  0.00  0.00    +0.000 OA
ATOM     44  C   UNL     1     108.946 129.249 135.415  0.00  0.00    +0.000 C 
ENDBRANCH  42  44
ENDBRANCH  33  41
ENDBRANCH   9  33
TORSDOF 8
ENDMDL
MODEL 4
REMARK VINA RESULT:      -9.6      1.103      4.493
REMARK  Name = 44257132
REMARK  8 active torsions:
REMARK  status: ('A' for Active; 'I' for Inactive)
REMARK    1  A    between atoms: O_3  and  C_19
REMARK    2  A    between atoms: O_3  and  C_28
REMARK    3  A    between atoms: O_4  and  C_24
REMARK    4  A    between atoms: O_4  and  C_32
REMARK    5  A    between atoms: C_22  and  C_35
REMARK    6  A    between atoms: C_25  and  C_36
REMARK    7  A    between atoms: C_31  and  C_37
REMARK    8  A    between atoms: C_33  and  C_38
REMARK                            x       y       z     vdW  Elec       q    Type
REMARK                         _______ _______ _______ _____ _____    ______ ____
ROOT
ATOM      1  O   UNL     1     113.452 128.846 136.439  0.00  0.00    +0.000 OA
ATOM      2  O   UNL     1     111.952 130.724 136.438  0.00  0.00    +0.000 OA
ATOM      3  C   UNL     1     112.099 129.142 136.920  0.00  0.00    +0.000 A 
ATOM      4  C   UNL     1     112.157 129.944 136.618  0.00  0.00    +0.000 C 
ATOM      5  C   UNL     1     111.407 128.905 137.300  0.00  0.00    +0.000 A 
ATOM      6  C   UNL     1     112.876 130.198 136.221  0.00  0.00    +0.000 C 
ATOM      7  C   UNL     1     112.725 128.611 136.833  0.00  0.00    +0.000 A 
ATOM      8  C   UNL     1     113.528 129.644 136.131  0.00  0.00    +0.000 C 
ATOM      9  C   UNL     1     111.965 127.606 137.508  0.00  0.00    +0.000 A 
ATOM     10  C   UNL     1     111.340 128.137 137.594  0.00  0.00    +0.000 A 
ATOM     11  C   UNL     1     112.658 127.843 137.127  0.00  0.00    +0.000 A 
ATOM     12  C   UNL     1     113.283 127.312 137.041  0.00  0.00    +0.000 C 
ENDROOT
BRANCH   8  13
ATOM     13  C   UNL     1     114.222 129.879 135.751  0.00  0.00    +0.000 A 
ATOM     14  C   UNL     1     114.390 129.604 134.992  0.00  0.00    +0.000 A 
ATOM     15  C   UNL     1     114.747 130.389 136.130  0.00  0.00    +0.000 A 
ATOM     16  C   UNL     1     115.084 129.838 134.612  0.00  0.00    +0.000 A 
ATOM     17  C   UNL     1     115.441 130.623 135.750  0.00  0.00    +0.000 A 
ATOM     18  C   UNL     1     115.609 130.347 134.991  0.00  0.00    +0.000 A 
ENDBRANCH   8  13
BRANCH  10  20
ATOM     19  O   UNL     1     110.623 127.860 138.799  0.00  0.00    +0.000 OA
ATOM     20  C   UNL     1     110.648 127.900 137.974  0.00  0.00    +0.000 C 
ENDBRANCH  10  20
BRANCH   5  21
ATOM     21  O   UNL     1     110.782 129.436 137.387  0.00  0.00    +0.000 OA
BRANCH  21  29
ATOM     22  O   UNL     1     109.628 129.644 136.569  0.00  0.00    +0.000 OA
ATOM     23  O   UNL     1     108.760 131.282 138.209  0.00  0.00    +0.000 OA
ATOM     24  O   UNL     1     110.203 130.528 138.480  0.00  0.00    +0.000 OA
ATOM     25  O   UNL     1     107.897 130.944 136.845  0.00  0.00    +0.000 OA
ATOM     26  C   UNL     1     109.050 130.735 137.662  0.00  0.00    +0.000 C 
ATOM     27  C   UNL     1     109.771 130.359 137.798  0.00  0.00    +0.000 C 
ATOM     28  C   UNL     1     108.618 130.567 136.980  0.00  0.00    +0.000 C 
ATOM     29  C   UNL     1     110.061 129.813 137.251  0.00  0.00    +0.000 C 
ATOM     30  C   UNL     1     108.907 130.021 136.433  0.00  0.00    +0.000 C 
BRANCH  30  32
ATOM     31  O   UNL     1     108.598 129.142 135.350  0.00  0.00    +0.000 OA
ATOM     32  C   UNL     1     108.475 129.852 135.751  0.00  0.00    +0.000 C 
ENDBRANCH  30  32
ENDBRANCH  21  29
ENDBRANCH   5  21
BRANCH   9  33
ATOM     33  O   UNL     1     111.898 126.838 137.802  0.00  0.00    +0.000 OA
BRANCH  33  41
ATOM     34  O   UNL     1     111.358 126.364 136.567  0.00  0.00    +0.000 OA
ATOM     35  O   UNL     1     111.942 124.044 137.203  0.00  0.00    +0.000 OA
ATOM     36  O   UNL     1     112.287 125.292 138.225  0.00  0.00    +0.000 OA
ATOM     37  O   UNL     1     111.208 124.343 135.756  0.00  0.00    +0.000 OA
ATOM     38  C   UNL     1     111.748 124.818 136.991  0.00  0.00    +0.000 C 
ATOM     39  C   UNL     1     111.920 125.442 137.502  0.00  0.00    +0.000 C 
ATOM     40  C   UNL     1     111.380 124.967 136.267  0.00  0.00    +0.000 C 
ATOM     41  C   UNL     1     111.725 126.215 137.290  0.00  0.00    +0.000 C 
ATOM     42  C   UNL     1     111.185 125.741 136.055  0.00  0.00    +0.000 C 
BRANCH  42  44
ATOM     43  O   UNL     1     110.026 126.118 135.310  0.00  0.00    +0.000 OA
ATOM     44  C   UNL     1     110.818 125.890 135.332  0.00  0.00    +0.000 C 
ENDBRANCH  42  44
ENDBRANCH  33  41
ENDBRANCH   9  33
TORSDOF 8
ENDMDL
MODEL 5
REMARK VINA RESULT:      -9.5      2.243      3.984
REMARK  Name = 44257132
REMARK  8 active torsions:
REMARK  status: ('A' for Active; 'I' for Inactive)
REMARK    1  A    between atoms: O_3  and  C_19
REMARK    2  A    between atoms: O_3  and  C_28
REMARK    3  A    between atoms: O_4  and  C_24
REMARK    4  A    between atoms: O_4  and  C_32
REMARK    5  A    between atoms: C_22  and  C_35
REMARK    6  A    between atoms: C_25  and  C_36
REMARK    7  A    between atoms: C_31  and  C_37
REMARK    8  A    between atoms: C_33  and  C_38
REMARK                            x       y       z     vdW  Elec       q    Type
REMARK                         _______ _______ _______ _____ _____    ______ ____
ROOT
ATOM      1  O   UNL     1     112.787 126.825 137.541  0.00  0.00    +0.000 OA
ATOM      2  O   UNL     1     112.250 126.127 139.777  0.00  0.00    +0.000 OA
ATOM      3  C   UNL     1     112.005 127.338 138.669  0.00  0.00    +0.000 A 
ATOM      4  C   UNL     1     112.212 126.650 139.139  0.00  0.00    +0.000 C 
ATOM      5  C   UNL     1     111.521 127.919 138.999  0.00  0.00    +0.000 A 
ATOM      6  C   UNL     1     112.716 126.041 138.800  0.00  0.00    +0.000 C 
ATOM      7  C   UNL     1     112.283 127.423 137.897  0.00  0.00    +0.000 A 
ATOM      8  C   UNL     1     113.005 126.129 137.996  0.00  0.00    +0.000 C 
ATOM      9  C   UNL     1     111.593 128.670 137.786  0.00  0.00    +0.000 A 
ATOM     10  C   UNL     1     111.315 128.584 138.558  0.00  0.00    +0.000 A 
ATOM     11  C   UNL     1     112.077 128.088 137.455  0.00  0.00    +0.000 A 
ATOM     12  C   UNL     1     112.354 128.174 136.683  0.00  0.00    +0.000 C 
ENDROOT
BRANCH   8  13
ATOM     13  C   UNL     1     113.489 125.550 137.663  0.00  0.00    +0.000 A 
ATOM     14  C   UNL     1     113.157 124.942 137.214  0.00  0.00    +0.000 A 
ATOM     15  C   UNL     1     114.305 125.578 137.779  0.00  0.00    +0.000 A 
ATOM     16  C   UNL     1     113.641 124.363 136.881  0.00  0.00    +0.000 A 
ATOM     17  C   UNL     1     114.789 124.998 137.446  0.00  0.00    +0.000 A 
ATOM     18  C   UNL     1     114.456 124.391 136.997  0.00  0.00    +0.000 A 
ENDBRANCH   8  13
BRANCH  10  20
ATOM     19  O   UNL     1     111.163 129.871 139.160  0.00  0.00    +0.000 OA
ATOM     20  C   UNL     1     110.832 129.166 138.888  0.00  0.00    +0.000 C 
ENDBRANCH  10  20
BRANCH   5  21
ATOM     21  O   UNL     1     111.244 127.834 139.771  0.00  0.00    +0.000 OA
BRANCH  21  29
ATOM     22  O   UNL     1     109.984 127.366 140.259  0.00  0.00    +0.000 OA
ATOM     23  O   UNL     1     110.632 128.017 142.557  0.00  0.00    +0.000 OA
ATOM     24  O   UNL     1     111.675 128.268 141.304  0.00  0.00    +0.000 OA
ATOM     25  O   UNL     1     109.157 127.333 142.279  0.00  0.00    +0.000 OA
ATOM     26  C   UNL     1     110.416 127.800 141.790  0.00  0.00    +0.000 C 
ATOM     27  C   UNL     1     110.938 127.926 141.164  0.00  0.00    +0.000 C 
ATOM     28  C   UNL     1     109.679 127.458 141.651  0.00  0.00    +0.000 C 
ATOM     29  C   UNL     1     110.722 127.709 140.398  0.00  0.00    +0.000 C 
ATOM     30  C   UNL     1     109.462 127.241 140.886  0.00  0.00    +0.000 C 
BRANCH  30  32
ATOM     31  O   UNL     1     108.566 126.542 140.020  0.00  0.00    +0.000 OA
ATOM     32  C   UNL     1     108.725 126.899 140.746  0.00  0.00    +0.000 C 
ENDBRANCH  30  32
ENDBRANCH  21  29
ENDBRANCH   5  21
BRANCH   9  33
ATOM     33  O   UNL     1     111.387 129.336 137.344  0.00  0.00    +0.000 OA
BRANCH  33  41
ATOM     34  O   UNL     1     110.268 128.645 136.787  0.00  0.00    +0.000 OA
ATOM     35  O   UNL     1     109.999 130.438 135.103  0.00  0.00    +0.000 OA
ATOM     36  O   UNL     1     111.207 130.531 136.221  0.00  0.00    +0.000 OA
ATOM     37  O   UNL     1     108.969 129.149 135.107  0.00  0.00    +0.000 OA
ATOM     38  C   UNL     1     110.089 129.840 135.664  0.00  0.00    +0.000 C 
ATOM     39  C   UNL     1     110.693 129.886 136.224  0.00  0.00    +0.000 C 
ATOM     40  C   UNL     1     109.574 129.195 135.666  0.00  0.00    +0.000 C 
ATOM     41  C   UNL     1     110.783 129.289 136.785  0.00  0.00    +0.000 C 
ATOM     42  C   UNL     1     109.663 128.597 136.228  0.00  0.00    +0.000 C 
BRANCH  42  44
ATOM     43  O   UNL     1     108.653 127.822 136.876  0.00  0.00    +0.000 OA
ATOM     44  C   UNL     1     109.149 127.953 136.230  0.00  0.00    +0.000 C 
ENDBRANCH  42  44
ENDBRANCH  33  41
ENDBRANCH   9  33
TORSDOF 8
ENDMDL
MODEL 6
REMARK VINA RESULT:      -9.5      2.355      3.865
REMARK  Name = 44257132
REMARK  8 active torsions:
REMARK  status: ('A' for Active; 'I' for Inactive)
REMARK    1  A    between atoms: O_3  and  C_19
REMARK    2  A    between atoms: O_3  and  C_28
REMARK    3  A    between atoms: O_4  and  C_24
REMARK    4  A    between atoms: O_4  and  C_32
REMARK    5  A    between atoms: C_22  and  C_35
REMARK    6  A    between atoms: C_25  and  C_36
REMARK    7  A    between atoms: C_31  and  C_37
REMARK    8  A    between atoms: C_33  and  C_38
REMARK                            x       y       z     vdW  Elec       q    Type
REMARK                         _______ _______ _______ _____ _____    ______ ____
ROOT
ATOM      1  O   UNL     1     112.440 126.643 137.324  0.00  0.00    +0.000 OA
ATOM      2  O   UNL     1     111.361 125.419 139.089  0.00  0.00    +0.000 OA
ATOM      3  C   UNL     1     111.286 126.825 138.209  0.00  0.00    +0.000 A 
ATOM      4  C   UNL     1     111.441 126.067 138.583  0.00  0.00    +0.000 C 
ATOM      5  C   UNL     1     110.645 127.275 138.465  0.00  0.00    +0.000 A 
ATOM      6  C   UNL     1     112.108 125.593 138.320  0.00  0.00    +0.000 C 
ATOM      7  C   UNL     1     111.769 127.103 137.600  0.00  0.00    +0.000 A 
ATOM      8  C   UNL     1     112.610 125.883 137.686  0.00  0.00    +0.000 C 
ATOM      9  C   UNL     1     110.968 128.283 137.505  0.00  0.00    +0.000 A 
ATOM     10  C   UNL     1     110.486 128.004 138.114  0.00  0.00    +0.000 A 
ATOM     11  C   UNL     1     111.610 127.832 137.249  0.00  0.00    +0.000 A 
ATOM     12  C   UNL     1     112.092 128.111 136.640  0.00  0.00    +0.000 C 
ENDROOT
BRANCH   8  13
ATOM     13  C   UNL     1     113.253 125.434 137.428  0.00  0.00    +0.000 A 
ATOM     14  C   UNL     1     113.993 125.530 137.779  0.00  0.00    +0.000 A 
ATOM     15  C   UNL     1     113.155 124.888 136.817  0.00  0.00    +0.000 A 
ATOM     16  C   UNL     1     114.635 125.081 137.521  0.00  0.00    +0.000 A 
ATOM     17  C   UNL     1     113.797 124.440 136.558  0.00  0.00    +0.000 A 
ATOM     18  C   UNL     1     114.537 124.536 136.910  0.00  0.00    +0.000 A 
ENDBRANCH   8  13
BRANCH  10  20
ATOM     19  O   UNL     1     109.157 128.490 137.915  0.00  0.00    +0.000 OA
ATOM     20  C   UNL     1     109.845 128.456 138.370  0.00  0.00    +0.000 C 
ENDBRANCH  10  20
BRANCH   5  21
ATOM     21  O   UNL     1     110.162 126.997 139.073  0.00  0.00    +0.000 OA
BRANCH  21  29
ATOM     22  O   UNL     1     110.160 127.298 140.471  0.00  0.00    +0.000 OA
ATOM     23  O   UNL     1     108.056 126.024 140.742  0.00  0.00    +0.000 OA
ATOM     24  O   UNL     1     108.759 126.147 139.255  0.00  0.00    +0.000 OA
ATOM     25  O   UNL     1     108.755 126.749 142.048  0.00  0.00    +0.000 OA
ATOM     26  C   UNL     1     108.758 126.449 140.652  0.00  0.00    +0.000 C 
ATOM     27  C   UNL     1     109.109 126.511 139.908  0.00  0.00    +0.000 C 
ATOM     28  C   UNL     1     109.107 126.811 141.305  0.00  0.00    +0.000 C 
ATOM     29  C   UNL     1     109.810 126.935 139.817  0.00  0.00    +0.000 C 
ATOM     30  C   UNL     1     109.808 127.236 141.215  0.00  0.00    +0.000 C 
BRANCH  30  32
ATOM     31  O   UNL     1     110.969 127.746 141.873  0.00  0.00    +0.000 OA
ATOM     32  C   UNL     1     110.158 127.599 141.868  0.00  0.00    +0.000 C 
ENDBRANCH  30  32
ENDBRANCH  21  29
ENDBRANCH   5  21
BRANCH   9  33
ATOM     33  O   UNL     1     110.809 129.012 137.154  0.00  0.00    +0.000 OA
BRANCH  33  41
ATOM     34  O   UNL     1     111.657 129.687 138.083  0.00  0.00    +0.000 OA
ATOM     35  O   UNL     1     111.731 131.657 136.587  0.00  0.00    +0.000 OA
ATOM     36  O   UNL     1     110.858 130.326 136.156  0.00  0.00    +0.000 OA
ATOM     37  O   UNL     1     112.555 131.676 138.016  0.00  0.00    +0.000 OA
ATOM     38  C   UNL     1     111.706 131.001 137.086  0.00  0.00    +0.000 C 
ATOM     39  C   UNL     1     111.270 130.334 136.871  0.00  0.00    +0.000 C 
ATOM     40  C   UNL     1     112.119 131.010 137.801  0.00  0.00    +0.000 C 
ATOM     41  C   UNL     1     111.245 129.678 137.369  0.00  0.00    +0.000 C 
ATOM     42  C   UNL     1     112.094 130.353 138.300  0.00  0.00    +0.000 C 
BRANCH  42  44
ATOM     43  O   UNL     1     112.099 130.466 139.724  0.00  0.00    +0.000 OA
ATOM     44  C   UNL     1     112.506 130.362 139.014  0.00  0.00    +0.000 C 
ENDBRANCH  42  44
ENDBRANCH  33  41
ENDBRANCH   9  33
TORSDOF 8
ENDMDL
MODEL 7
REMARK VINA RESULT:      -9.4      2.164      4.668
REMARK  Name = 44257132
REMARK  8 active torsions:
REMARK  status: ('A' for Active; 'I' for Inactive)
REMARK    1  A    between atoms: O_3  and  C_19
REMARK    2  A    between atoms: O_3  and  C_28
REMARK    3  A    between atoms: O_4  and  C_24
REMARK    4  A    between atoms: O_4  and  C_32
REMARK    5  A    between atoms: C_22  and  C_35
REMARK    6  A    between atoms: C_25  and  C_36
REMARK    7  A    between atoms: C_31  and  C_37
REMARK    8  A    between atoms: C_33  and  C_38
REMARK                            x       y       z     vdW  Elec       q    Type
REMARK                         _______ _______ _______ _____ _____    ______ ____
ROOT
ATOM      1  O   UNL     1     113.041 126.684 137.930  0.00  0.00    +0.000 OA
ATOM      2  O   UNL     1     112.166 127.521 135.854  0.00  0.00    +0.000 OA
ATOM      3  C   UNL     1     112.116 127.737 137.499  0.00  0.00    +0.000 A 
ATOM      4  C   UNL     1     112.235 127.518 136.677  0.00  0.00    +0.000 C 
ATOM      5  C   UNL     1     111.605 128.358 137.679  0.00  0.00    +0.000 A 
ATOM      6  C   UNL     1     112.767 126.871 136.482  0.00  0.00    +0.000 C 
ATOM      7  C   UNL     1     112.505 127.334 138.105  0.00  0.00    +0.000 A 
ATOM      8  C   UNL     1     113.172 126.451 137.114  0.00  0.00    +0.000 C 
ATOM      9  C   UNL     1     111.871 128.175 139.071  0.00  0.00    +0.000 A 
ATOM     10  C   UNL     1     111.483 128.577 138.464  0.00  0.00    +0.000 A 
ATOM     11  C   UNL     1     112.383 127.553 138.890  0.00  0.00    +0.000 A 
ATOM     12  C   UNL     1     112.772 127.151 139.497  0.00  0.00    +0.000 C 
ENDROOT
BRANCH   8  13
ATOM     13  C   UNL     1     113.684 125.829 136.937  0.00  0.00    +0.000 A 
ATOM     14  C   UNL     1     113.433 125.049 137.030  0.00  0.00    +0.000 A 
ATOM     15  C   UNL     1     114.447 125.987 136.666  0.00  0.00    +0.000 A 
ATOM     16  C   UNL     1     113.945 124.426 136.853  0.00  0.00    +0.000 A 
ATOM     17  C   UNL     1     114.959 125.365 136.489  0.00  0.00    +0.000 A 
ATOM     18  C   UNL     1     114.708 124.585 136.582  0.00  0.00    +0.000 A 
ENDBRANCH   8  13
BRANCH  10  20
ATOM     19  O   UNL     1     111.278 129.937 138.855  0.00  0.00    +0.000 OA
ATOM     20  C   UNL     1     110.971 129.199 138.645  0.00  0.00    +0.000 C 
ENDBRANCH  10  20
BRANCH   5  21
ATOM     21  O   UNL     1     111.216 128.761 137.073  0.00  0.00    +0.000 OA
BRANCH  21  29
ATOM     22  O   UNL     1     109.900 128.594 136.539  0.00  0.00    +0.000 OA
ATOM     23  O   UNL     1     110.189 130.644 135.184  0.00  0.00    +0.000 OA
ATOM     24  O   UNL     1     111.408 130.128 136.169  0.00  0.00    +0.000 OA
ATOM     25  O   UNL     1     108.778 129.794 135.103  0.00  0.00    +0.000 OA
ATOM     26  C   UNL     1     110.093 129.960 135.636  0.00  0.00    +0.000 C 
ATOM     27  C   UNL     1     110.703 129.702 136.129  0.00  0.00    +0.000 C 
ATOM     28  C   UNL     1     109.388 129.535 135.596  0.00  0.00    +0.000 C 
ATOM     29  C   UNL     1     110.607 129.019 136.580  0.00  0.00    +0.000 C 
ATOM     30  C   UNL     1     109.291 128.852 136.047  0.00  0.00    +0.000 C 
BRANCH  30  32
ATOM     31  O   UNL     1     108.546 127.662 136.313  0.00  0.00    +0.000 OA
ATOM     32  C   UNL     1     108.585 128.427 136.007  0.00  0.00    +0.000 C 
ENDBRANCH  30  32
ENDBRANCH  21  29
ENDBRANCH   5  21
BRANCH   9  33
ATOM     33  O   UNL     1     111.749 128.395 139.857  0.00  0.00    +0.000 OA
BRANCH  33  41
ATOM     34  O   UNL     1     110.666 127.473 139.985  0.00  0.00    +0.000 OA
ATOM     35  O   UNL     1     110.837 127.616 142.450  0.00  0.00    +0.000 OA
ATOM     36  O   UNL     1     111.863 128.490 141.500  0.00  0.00    +0.000 OA
ATOM     37  O   UNL     1     109.696 126.646 141.757  0.00  0.00    +0.000 OA
ATOM     38  C   UNL     1     110.780 127.568 141.628  0.00  0.00    +0.000 C 
ATOM     39  C   UNL     1     111.293 128.005 141.153  0.00  0.00    +0.000 C 
ATOM     40  C   UNL     1     110.209 127.083 141.282  0.00  0.00    +0.000 C 
ATOM     41  C   UNL     1     111.236 127.958 140.331  0.00  0.00    +0.000 C 
ATOM     42  C   UNL     1     110.152 127.035 140.460  0.00  0.00    +0.000 C 
BRANCH  42  44
ATOM     43  O   UNL     1     108.960 126.885 139.686  0.00  0.00    +0.000 OA
ATOM     44  C   UNL     1     109.582 126.551 140.114  0.00  0.00    +0.000 C 
ENDBRANCH  42  44
ENDBRANCH  33  41
ENDBRANCH   9  33
TORSDOF 8
ENDMDL
MODEL 8
REMARK VINA RESULT:      -9.4      2.427      4.117
REMARK  Name = 44257132
REMARK  8 active torsions:
REMARK  status: ('A' for Active; 'I' for Inactive)
REMARK    1  A    between atoms: O_3  and  C_19
REMARK    2  A    between atoms: O_3  and  C_28
REMARK    3  A    between atoms: O_4  and  C_24
REMARK    4  A    between atoms: O_4  and  C_32
REMARK    5  A    between atoms: C_22  and  C_35
REMARK    6  A    between atoms: C_25  and  C_36
REMARK    7  A    between atoms: C_31  and  C_37
REMARK    8  A    between atoms: C_33  and  C_38
REMARK                            x       y       z     vdW  Elec       q    Type
REMARK                         _______ _______ _______ _____ _____    ______ ____
ROOT
ATOM      1  O   UNL     1     112.110 126.418 137.501  0.00  0.00    +0.000 OA
ATOM      2  O   UNL     1     112.967 126.652 139.734  0.00  0.00    +0.000 OA
ATOM      3  C   UNL     1     111.702 127.075 138.746  0.00  0.00    +0.000 A 
ATOM      4  C   UNL     1     112.408 126.787 139.141  0.00  0.00    +0.000 C 
ATOM      5  C   UNL     1     111.165 127.535 139.170  0.00  0.00    +0.000 A 
ATOM      6  C   UNL     1     112.972 126.306 138.705  0.00  0.00    +0.000 C 
ATOM      7  C   UNL     1     111.558 126.897 137.953  0.00  0.00    +0.000 A 
ATOM      8  C   UNL     1     112.822 126.121 137.880  0.00  0.00    +0.000 C 
ATOM      9  C   UNL     1     110.338 127.640 138.009  0.00  0.00    +0.000 A 
ATOM     10  C   UNL     1     110.483 127.818 138.801  0.00  0.00    +0.000 A 
ATOM     11  C   UNL     1     110.876 127.179 137.585  0.00  0.00    +0.000 A 
ATOM     12  C   UNL     1     110.732 127.001 136.792  0.00  0.00    +0.000 C 
ENDROOT
BRANCH   8  13
ATOM     13  C   UNL     1     113.358 125.661 137.454  0.00  0.00    +0.000 A 
ATOM     14  C   UNL     1     113.983 126.019 137.052  0.00  0.00    +0.000 A 
ATOM     15  C   UNL     1     113.269 124.841 137.428  0.00  0.00    +0.000 A 
ATOM     16  C   UNL     1     114.519 125.559 136.626  0.00  0.00    +0.000 A 
ATOM     17  C   UNL     1     113.805 124.381 137.002  0.00  0.00    +0.000 A 
ATOM     18  C   UNL     1     114.430 124.740 136.601  0.00  0.00    +0.000 A 
ENDBRANCH   8  13
BRANCH  10  20
ATOM     19  O   UNL     1     109.234 127.948 139.482  0.00  0.00    +0.000 OA
ATOM     20  C   UNL     1     109.945 128.278 139.224  0.00  0.00    +0.000 C 
ENDBRANCH  10  20
BRANCH   5  21
ATOM     21  O   UNL     1     111.309 127.713 139.962  0.00  0.00    +0.000 OA
BRANCH  21  29
ATOM     22  O   UNL     1     111.851 128.889 140.568  0.00  0.00    +0.000 OA
ATOM     23  O   UNL     1     111.306 127.987 142.807  0.00  0.00    +0.000 OA
ATOM     24  O   UNL     1     110.945 127.112 141.456  0.00  0.00    +0.000 OA
ATOM     25  O   UNL     1     112.030 129.463 142.666  0.00  0.00    +0.000 OA
ATOM     26  C   UNL     1     111.488 128.288 142.060  0.00  0.00    +0.000 C 
ATOM     27  C   UNL     1     111.307 127.850 141.384  0.00  0.00    +0.000 C 
ATOM     28  C   UNL     1     111.850 129.025 141.989  0.00  0.00    +0.000 C 
ATOM     29  C   UNL     1     111.489 128.150 140.638  0.00  0.00    +0.000 C 
ATOM     30  C   UNL     1     112.032 129.326 141.244  0.00  0.00    +0.000 C 
BRANCH  30  32
ATOM     31  O   UNL     1     112.459 130.423 140.433  0.00  0.00    +0.000 OA
ATOM     32  C   UNL     1     112.394 130.064 141.173  0.00  0.00    +0.000 C 
ENDBRANCH  30  32
ENDBRANCH  21  29
ENDBRANCH   5  21
BRANCH   9  33
ATOM     33  O   UNL     1     109.656 127.922 137.640  0.00  0.00    +0.000 OA
BRANCH  33  41
ATOM     34  O   UNL     1     110.306 129.126 137.230  0.00  0.00    +0.000 OA
ATOM     35  O   UNL     1     108.613 129.435 135.452  0.00  0.00    +0.000 OA
ATOM     36  O   UNL     1     108.527 128.129 136.455  0.00  0.00    +0.000 OA
ATOM     37  O   UNL     1     109.827 130.537 135.635  0.00  0.00    +0.000 OA
ATOM     38  C   UNL     1     109.177 129.332 136.045  0.00  0.00    +0.000 C 
ATOM     39  C   UNL     1     109.135 128.679 136.546  0.00  0.00    +0.000 C 
ATOM     40  C   UNL     1     109.785 129.884 136.137  0.00  0.00    +0.000 C 
ATOM     41  C   UNL     1     109.699 128.576 137.139  0.00  0.00    +0.000 C 
ATOM     42  C   UNL     1     110.350 129.780 136.729  0.00  0.00    +0.000 C 
BRANCH  42  44
ATOM     43  O   UNL     1     110.981 130.812 137.490  0.00  0.00    +0.000 OA
ATOM     44  C   UNL     1     110.957 130.331 136.821  0.00  0.00    +0.000 C 
ENDBRANCH  42  44
ENDBRANCH  33  41
ENDBRANCH   9  33
TORSDOF 8
ENDMDL
MODEL 9
REMARK VINA RESULT:      -9.3      1.079      1.377
REMARK  Name = 44257132
REMARK  8 active torsions:
REMARK  status: ('A' for Active; 'I' for Inactive)
REMARK    1  A    between atoms: O_3  and  C_19
REMARK    2  A    between atoms: O_3  and  C_28
REMARK    3  A    between atoms: O_4  and  C_24
REMARK    4  A    between atoms: O_4  and  C_32
REMARK    5  A    between atoms: C_22  and  C_35
REMARK    6  A    between atoms: C_25  and  C_36
REMARK    7  A    between atoms: C_31  and  C_37
REMARK    8  A    between atoms: C_33  and  C_38
REMARK                            x       y       z     vdW  Elec       q    Type
REMARK                         _______ _______ _______ _____ _____    ______ ____
ROOT
ATOM      1  O   UNL     1     112.247 129.528 135.796  0.00  0.00    +0.000 OA
ATOM      2  O   UNL     1     112.903 127.683 137.190  0.00  0.00    +0.000 OA
ATOM      3  C   UNL     1     111.585 128.535 136.648  0.00  0.00    +0.000 A 
ATOM      4  C   UNL     1     112.345 128.186 136.847  0.00  0.00    +0.000 C 
ATOM      5  C   UNL     1     110.899 128.213 136.971  0.00  0.00    +0.000 A 
ATOM      6  C   UNL     1     113.065 128.517 136.514  0.00  0.00    +0.000 C 
ATOM      7  C   UNL     1     111.538 129.183 136.139  0.00  0.00    +0.000 A 
ATOM      8  C   UNL     1     113.015 129.192 135.984  0.00  0.00    +0.000 C 
ATOM      9  C   UNL     1     110.116 129.188 136.279  0.00  0.00    +0.000 A 
ATOM     10  C   UNL     1     110.164 128.540 136.787  0.00  0.00    +0.000 A 
ATOM     11  C   UNL     1     110.804 129.510 135.955  0.00  0.00    +0.000 A 
ATOM     12  C   UNL     1     110.755 130.158 135.447  0.00  0.00    +0.000 C 
ENDROOT
BRANCH   8  13
ATOM     13  C   UNL     1     113.701 129.516 135.659  0.00  0.00    +0.000 A 
ATOM     14  C   UNL     1     113.987 129.238 134.937  0.00  0.00    +0.000 A 
ATOM     15  C   UNL     1     114.101 130.119 136.056  0.00  0.00    +0.000 A 
ATOM     16  C   UNL     1     114.673 129.562 134.612  0.00  0.00    +0.000 A 
ATOM     17  C   UNL     1     114.786 130.442 135.731  0.00  0.00    +0.000 A 
ATOM     18  C   UNL     1     115.072 130.164 135.009  0.00  0.00    +0.000 A 
ENDBRANCH   8  13
BRANCH  10  20
ATOM     19  O   UNL     1     108.983 127.748 136.644  0.00  0.00    +0.000 OA
ATOM     20  C   UNL     1     109.477 128.218 137.110  0.00  0.00    +0.000 C 
ENDBRANCH  10  20
BRANCH   5  21
ATOM     21  O   UNL     1     110.946 127.566 137.479  0.00  0.00    +0.000 OA
BRANCH  21  29
ATOM     22  O   UNL     1     110.902 127.498 138.907  0.00  0.00    +0.000 OA
ATOM     23  O   UNL     1     110.829 125.027 138.788  0.00  0.00    +0.000 OA
ATOM     24  O   UNL     1     110.898 125.917 137.401  0.00  0.00    +0.000 OA
ATOM     25  O   UNL     1     110.808 125.783 140.254  0.00  0.00    +0.000 OA
ATOM     26  C   UNL     1     110.853 125.851 138.827  0.00  0.00    +0.000 C 
ATOM     27  C   UNL     1     110.888 126.296 138.133  0.00  0.00    +0.000 C 
ATOM     28  C   UNL     1     110.843 126.230 139.560  0.00  0.00    +0.000 C 
ATOM     29  C   UNL     1     110.912 127.120 138.173  0.00  0.00    +0.000 C 
ATOM     30  C   UNL     1     110.867 127.053 139.600  0.00  0.00    +0.000 C 
BRANCH  30  32
ATOM     31  O   UNL     1     111.155 128.197 140.406  0.00  0.00    +0.000 OA
ATOM     32  C   UNL     1     110.857 127.431 140.333  0.00  0.00    +0.000 C 
ENDBRANCH  30  32
ENDBRANCH  21  29
ENDBRANCH   5  21
BRANCH   9  33
ATOM     33  O   UNL     1     109.381 129.514 136.094  0.00  0.00    +0.000 OA
BRANCH  33  41
ATOM     34  O   UNL     1     109.432 130.378 137.230  0.00  0.00    +0.000 OA
ATOM     35  O   UNL     1     107.686 131.811 136.218  0.00  0.00    +0.000 OA
ATOM     36  O   UNL     1     108.217 130.469 135.420  0.00  0.00    +0.000 OA
ATOM     37  O   UNL     1     108.319 132.198 137.691  0.00  0.00    +0.000 OA
ATOM     38  C   UNL     1     108.268 131.333 136.555  0.00  0.00    +0.000 C 
ATOM     39  C   UNL     1     108.534 130.662 136.156  0.00  0.00    +0.000 C 
ATOM     40  C   UNL     1     108.585 131.527 137.292  0.00  0.00    +0.000 C 
ATOM     41  C   UNL     1     109.116 130.185 136.493  0.00  0.00    +0.000 C 
ATOM     42  C   UNL     1     109.167 131.049 137.630  0.00  0.00    +0.000 C 
BRANCH  42  44
ATOM     43  O   UNL     1     109.291 130.792 139.030  0.00  0.00    +0.000 OA
ATOM     44  C   UNL     1     109.483 131.243 138.366  0.00  0.00    +0.000 C 
ENDBRANCH  42  44
ENDBRANCH  33  41
ENDBRANCH   9  33
TORSDOF 8
ENDMDL
MODEL 10
REMARK VINA RESULT:      -9.3      2.372      3.590
REMARK  Name = 44257132
REMARK  8 active torsions:
REMARK  status: ('A' for Active; 'I' for Inactive)
REMARK    1  A    between atoms: O_3  and  C_19
REMARK    2  A    between atoms: O_3  and  C_28
REMARK    3  A    between atoms: O_4  and  C_24
REMARK    4  A    between atoms: O_4  and  C_32
REMARK    5  A    between atoms: C_22  and  C_35
REMARK    6  A    between atoms: C_25  and  C_36
REMARK    7  A    between atoms: C_31  and  C_37
REMARK    8  A    between atoms: C_33  and  C_38
REMARK                            x       y       z     vdW  Elec       q    Type
REMARK                         _______ _______ _______ _____ _____    ______ ____
ROOT
ATOM      1  O   UNL     1     112.844 130.773 136.604  0.00  0.00    +0.000 OA
ATOM      2  O   UNL     1     113.896 129.849 138.557  0.00  0.00    +0.000 OA
ATOM      3  C   UNL     1     112.491 130.541 138.008  0.00  0.00    +0.000 A 
ATOM      4  C   UNL     1     113.266 130.200 138.156  0.00  0.00    +0.000 C 
ATOM      5  C   UNL     1     111.948 130.588 138.627  0.00  0.00    +0.000 A 
ATOM      6  C   UNL     1     113.836 130.147 137.515  0.00  0.00    +0.000 C 
ATOM      7  C   UNL     1     112.287 130.817 137.257  0.00  0.00    +0.000 A 
ATOM      8  C   UNL     1     113.623 130.436 136.734  0.00  0.00    +0.000 C 
ATOM      9  C   UNL     1     110.997 131.190 137.746  0.00  0.00    +0.000 A 
ATOM     10  C   UNL     1     111.201 130.913 138.496  0.00  0.00    +0.000 A 
ATOM     11  C   UNL     1     111.540 131.142 137.127  0.00  0.00    +0.000 A 
ATOM     12  C   UNL     1     111.336 131.419 136.377  0.00  0.00    +0.000 C 
ENDROOT
BRANCH   8  13
ATOM     13  C   UNL     1     114.164 130.389 136.113  0.00  0.00    +0.000 A 
ATOM     14  C   UNL     1     114.171 129.728 135.619  0.00  0.00    +0.000 A 
ATOM     15  C   UNL     1     114.700 131.004 135.985  0.00  0.00    +0.000 A 
ATOM     16  C   UNL     1     114.712 129.681 134.998  0.00  0.00    +0.000 A 
ATOM     17  C   UNL     1     115.241 130.957 135.364  0.00  0.00    +0.000 A 
ATOM     18  C   UNL     1     115.247 130.296 134.871  0.00  0.00    +0.000 A 
ENDBRANCH   8  13
BRANCH  10  20
ATOM     19  O   UNL     1     110.524 131.685 139.490  0.00  0.00    +0.000 OA
ATOM     20  C   UNL     1     110.658 130.962 139.115  0.00  0.00    +0.000 C 
ENDBRANCH  10  20
BRANCH   5  21
ATOM     21  O   UNL     1     112.152 130.312 139.376  0.00  0.00    +0.000 OA
BRANCH  21  29
ATOM     22  O   UNL     1     111.847 129.075 140.026  0.00  0.00    +0.000 OA
ATOM     23  O   UNL     1     112.818 129.941 142.131  0.00  0.00    +0.000 OA
ATOM     24  O   UNL     1     112.800 130.888 140.781  0.00  0.00    +0.000 OA
ATOM     25  O   UNL     1     112.189 128.417 142.078  0.00  0.00    +0.000 OA
ATOM     26  C   UNL     1     112.494 129.652 141.428  0.00  0.00    +0.000 C 
ATOM     27  C   UNL     1     112.485 130.126 140.753  0.00  0.00    +0.000 C 
ATOM     28  C   UNL     1     112.180 128.890 141.402  0.00  0.00    +0.000 C 
ATOM     29  C   UNL     1     112.161 129.838 140.052  0.00  0.00    +0.000 C 
ATOM     30  C   UNL     1     111.856 128.601 140.701  0.00  0.00    +0.000 C 
BRANCH  30  32
ATOM     31  O   UNL     1     111.378 127.485 139.948  0.00  0.00    +0.000 OA
ATOM     32  C   UNL     1     111.541 127.839 140.674  0.00  0.00    +0.000 C 
ENDBRANCH  30  32
ENDBRANCH  21  29
ENDBRANCH   5  21
BRANCH   9  33
ATOM     33  O   UNL     1     110.250 131.515 137.616  0.00  0.00    +0.000 OA
BRANCH  33  41
ATOM     34  O   UNL     1     109.744 130.248 137.195  0.00  0.00    +0.000 OA
ATOM     35  O   UNL     1     107.746 131.361 136.247  0.00  0.00    +0.000 OA
ATOM     36  O   UNL     1     108.918 132.257 136.984  0.00  0.00    +0.000 OA
ATOM     37  O   UNL     1     107.905 129.722 136.142  0.00  0.00    +0.000 OA
ATOM     38  C   UNL     1     108.412 130.990 136.563  0.00  0.00    +0.000 C 
ATOM     39  C   UNL     1     108.998 131.438 136.932  0.00  0.00    +0.000 C 
ATOM     40  C   UNL     1     108.492 130.170 136.511  0.00  0.00    +0.000 C 
ATOM     41  C   UNL     1     109.664 131.067 137.248  0.00  0.00    +0.000 C 
ATOM     42  C   UNL     1     109.158 129.799 136.827  0.00  0.00    +0.000 C 
BRANCH  42  44
ATOM     43  O   UNL     1     109.205 128.517 137.456  0.00  0.00    +0.000 OA
ATOM     44  C   UNL     1     109.237 128.980 136.774  0.00  0.00    +0.000 C 
ENDBRANCH  42  44
ENDBRANCH  33  41
ENDBRANCH   9  33
TORSDOF 8
ENDMDL
