MODEL 1
REMARK VINA RESULT:      -8.3      0.000      0.000
REMARK  Name = 14376438
REMARK  2 active torsions:
REMARK  status: ('A' for Active; 'I' for Inactive)
REMARK    1  A    between atoms: O_2  and  C_13
REMARK    2  A    between atoms: C_7  and  C_10
REMARK                            x       y       z     vdW  Elec       q    Type
REMARK                         _______ _______ _______ _____ _____    ______ ____
ROOT
ATOM      1  O   UNL     1     105.524 124.306 147.226  0.00  0.00    +0.000 OA
ATOM      2  O   UNL     1     103.453 123.396 145.392  0.00  0.00    +0.000 OA
ATOM      3  O   UNL     1     103.840 125.567 148.529  0.00  0.00    +0.000 OA
ATOM      4  C   UNL     1     104.170 124.716 147.431  0.00  0.00    +0.000 A 
ATOM      5  C   UNL     1     104.732 124.296 146.996  0.00  0.00    +0.000 A 
ATOM      6  C   UNL     1     105.755 124.737 147.891  0.00  0.00    +0.000 A 
ATOM      7  C   UNL     1     104.401 125.147 148.095  0.00  0.00    +0.000 A 
ATOM      8  C   UNL     1     103.342 124.713 147.201  0.00  0.00    +0.000 A 
ATOM      9  C   UNL     1     105.193 125.158 148.326  0.00  0.00    +0.000 A 
ATOM     10  C   UNL     1     104.503 123.843 146.302  0.00  0.00    +0.000 A 
ATOM     11  C   UNL     1     103.096 124.266 146.510  0.00  0.00    +0.000 A 
ATOM     12  C   UNL     1     103.680 123.829 146.057  0.00  0.00    +0.000 A 
ENDROOT
BRANCH   6  13
ATOM     13  C   UNL     1     106.547 124.747 148.121  0.00  0.00    +0.000 A 
ATOM     14  C   UNL     1     107.108 125.129 147.651  0.00  0.00    +0.000 A 
ATOM     15  C   UNL     1     106.778 124.376 148.821  0.00  0.00    +0.000 A 
ATOM     16  C   UNL     1     107.900 125.138 147.882  0.00  0.00    +0.000 A 
ATOM     17  C   UNL     1     107.570 124.386 149.050  0.00  0.00    +0.000 A 
ATOM     18  C   UNL     1     108.131 124.767 148.581  0.00  0.00    +0.000 A 
ENDBRANCH   6  13
BRANCH  11  19
ATOM     19  O   UNL     1     102.303 124.257 146.282  0.00  0.00    +0.000 OA
ATOM     20  C   UNL     1     101.714 124.119 146.843  0.00  0.00    +0.000 C 
ENDBRANCH  11  19
TORSDOF 2
ENDMDL
MODEL 2
REMARK VINA RESULT:      -8.2      2.160      2.837
REMARK  Name = 14376438
REMARK  2 active torsions:
REMARK  status: ('A' for Active; 'I' for Inactive)
REMARK    1  A    between atoms: O_2  and  C_13
REMARK    2  A    between atoms: C_7  and  C_10
REMARK                            x       y       z     vdW  Elec       q    Type
REMARK                         _______ _______ _______ _____ _____    ______ ____
ROOT
ATOM      1  O   UNL     1     106.485 124.813 146.866  0.00  0.00    +0.000 OA
ATOM      2  O   UNL     1     105.184 124.489 144.281  0.00  0.00    +0.000 OA
ATOM      3  O   UNL     1     107.132 127.126 146.270  0.00  0.00    +0.000 OA
ATOM      4  C   UNL     1     106.491 125.895 145.933  0.00  0.00    +0.000 A 
ATOM      5  C   UNL     1     106.276 125.124 146.132  0.00  0.00    +0.000 A 
ATOM      6  C   UNL     1     106.912 125.273 147.403  0.00  0.00    +0.000 A 
ATOM      7  C   UNL     1     106.917 126.355 146.469  0.00  0.00    +0.000 A 
ATOM      8  C   UNL     1     106.278 126.230 145.170  0.00  0.00    +0.000 A 
ATOM      9  C   UNL     1     107.127 126.045 147.204  0.00  0.00    +0.000 A 
ATOM     10  C   UNL     1     105.832 124.634 145.582  0.00  0.00    +0.000 A 
ATOM     11  C   UNL     1     105.835 125.755 144.608  0.00  0.00    +0.000 A 
ATOM     12  C   UNL     1     105.610 124.953 144.815  0.00  0.00    +0.000 A 
ENDROOT
BRANCH   6  13
ATOM     13  C   UNL     1     107.121 124.962 148.137  0.00  0.00    +0.000 A 
ATOM     14  C   UNL     1     106.538 124.793 148.696  0.00  0.00    +0.000 A 
ATOM     15  C   UNL     1     107.915 124.820 148.313  0.00  0.00    +0.000 A 
ATOM     16  C   UNL     1     106.750 124.482 149.430  0.00  0.00    +0.000 A 
ATOM     17  C   UNL     1     108.125 124.508 149.047  0.00  0.00    +0.000 A 
ATOM     18  C   UNL     1     107.542 124.339 149.606  0.00  0.00    +0.000 A 
ENDBRANCH   6  13
BRANCH  11  19
ATOM     19  O   UNL     1     105.626 126.069 143.874  0.00  0.00    +0.000 OA
ATOM     20  C   UNL     1     106.201 126.418 143.396  0.00  0.00    +0.000 C 
ENDBRANCH  11  19
TORSDOF 2
ENDMDL
MODEL 3
REMARK VINA RESULT:      -8.1     11.899     12.730
REMARK  Name = 14376438
REMARK  2 active torsions:
REMARK  status: ('A' for Active; 'I' for Inactive)
REMARK    1  A    between atoms: O_2  and  C_13
REMARK    2  A    between atoms: C_7  and  C_10
REMARK                            x       y       z     vdW  Elec       q    Type
REMARK                         _______ _______ _______ _____ _____    ______ ____
ROOT
ATOM      1  O   UNL     1     111.008 125.764 136.888  0.00  0.00    +0.000 OA
ATOM      2  O   UNL     1     109.171 127.869 137.708  0.00  0.00    +0.000 OA
ATOM      3  O   UNL     1     109.959 125.698 134.648  0.00  0.00    +0.000 OA
ATOM      4  C   UNL     1     110.031 126.247 135.964  0.00  0.00    +0.000 A 
ATOM      5  C   UNL     1     110.380 126.269 136.711  0.00  0.00    +0.000 A 
ATOM      6  C   UNL     1     111.286 125.236 136.318  0.00  0.00    +0.000 A 
ATOM      7  C   UNL     1     110.309 125.720 135.395  0.00  0.00    +0.000 A 
ATOM      8  C   UNL     1     109.376 126.768 135.768  0.00  0.00    +0.000 A 
ATOM      9  C   UNL     1     110.936 125.214 135.571  0.00  0.00    +0.000 A 
ATOM     10  C   UNL     1     110.099 126.814 137.314  0.00  0.00    +0.000 A 
ATOM     11  C   UNL     1     109.082 127.320 136.358  0.00  0.00    +0.000 A 
ATOM     12  C   UNL     1     109.446 127.343 137.135  0.00  0.00    +0.000 A 
ENDROOT
BRANCH   6  13
ATOM     13  C   UNL     1     111.914 124.731 136.495  0.00  0.00    +0.000 A 
ATOM     14  C   UNL     1     112.691 124.982 136.381  0.00  0.00    +0.000 A 
ATOM     15  C   UNL     1     111.763 123.973 136.787  0.00  0.00    +0.000 A 
ATOM     16  C   UNL     1     113.318 124.476 136.559  0.00  0.00    +0.000 A 
ATOM     17  C   UNL     1     112.391 123.468 136.964  0.00  0.00    +0.000 A 
ATOM     18  C   UNL     1     113.168 123.719 136.850  0.00  0.00    +0.000 A 
ENDBRANCH   6  13
BRANCH  11  19
ATOM     19  O   UNL     1     108.455 127.824 136.178  0.00  0.00    +0.000 OA
ATOM     20  C   UNL     1     108.572 128.466 135.673  0.00  0.00    +0.000 C 
ENDBRANCH  11  19
TORSDOF 2
ENDMDL
MODEL 4
REMARK VINA RESULT:      -7.8      7.337      9.319
REMARK  Name = 14376438
REMARK  2 active torsions:
REMARK  status: ('A' for Active; 'I' for Inactive)
REMARK    1  A    between atoms: O_2  and  C_13
REMARK    2  A    between atoms: C_7  and  C_10
REMARK                            x       y       z     vdW  Elec       q    Type
REMARK                         _______ _______ _______ _____ _____    ______ ____
ROOT
ATOM      1  O   UNL     1     104.702 123.310 138.713  0.00  0.00    +0.000 OA
ATOM      2  O   UNL     1     106.542 122.929 140.938  0.00  0.00    +0.000 OA
ATOM      3  O   UNL     1     104.359 125.669 139.378  0.00  0.00    +0.000 OA
ATOM      4  C   UNL     1     104.981 124.401 139.593  0.00  0.00    +0.000 A 
ATOM      5  C   UNL     1     105.095 123.615 139.371  0.00  0.00    +0.000 A 
ATOM      6  C   UNL     1     104.193 123.792 138.277  0.00  0.00    +0.000 A 
ATOM      7  C   UNL     1     104.473 124.883 139.156  0.00  0.00    +0.000 A 
ATOM      8  C   UNL     1     105.385 124.730 140.276  0.00  0.00    +0.000 A 
ATOM      9  C   UNL     1     104.079 124.579 138.498  0.00  0.00    +0.000 A 
ATOM     10  C   UNL     1     105.622 123.103 139.818  0.00  0.00    +0.000 A 
ATOM     11  C   UNL     1     105.915 124.233 140.735  0.00  0.00    +0.000 A 
ATOM     12  C   UNL     1     106.034 123.414 140.504  0.00  0.00    +0.000 A 
ENDROOT
BRANCH   6  13
ATOM     13  C   UNL     1     103.800 123.487 137.619  0.00  0.00    +0.000 A 
ATOM     14  C   UNL     1     102.978 123.419 137.624  0.00  0.00    +0.000 A 
ATOM     15  C   UNL     1     104.230 123.251 136.955  0.00  0.00    +0.000 A 
ATOM     16  C   UNL     1     102.586 123.114 136.965  0.00  0.00    +0.000 A 
ATOM     17  C   UNL     1     103.837 122.946 136.297  0.00  0.00    +0.000 A 
ATOM     18  C   UNL     1     103.015 122.877 136.302  0.00  0.00    +0.000 A 
ENDBRANCH   6  13
BRANCH  11  19
ATOM     19  O   UNL     1     106.307 124.540 141.392  0.00  0.00    +0.000 OA
ATOM     20  C   UNL     1     105.877 124.891 142.002  0.00  0.00    +0.000 C 
ENDBRANCH  11  19
TORSDOF 2
ENDMDL
MODEL 5
REMARK VINA RESULT:      -7.8     12.289     13.034
REMARK  Name = 14376438
REMARK  2 active torsions:
REMARK  status: ('A' for Active; 'I' for Inactive)
REMARK    1  A    between atoms: O_2  and  C_13
REMARK    2  A    between atoms: C_7  and  C_10
REMARK                            x       y       z     vdW  Elec       q    Type
REMARK                         _______ _______ _______ _____ _____    ______ ____
ROOT
ATOM      1  O   UNL     1     112.005 125.458 136.085  0.00  0.00    +0.000 OA
ATOM      2  O   UNL     1     109.497 125.603 134.612  0.00  0.00    +0.000 OA
ATOM      3  O   UNL     1     111.123 127.036 137.776  0.00  0.00    +0.000 OA
ATOM      4  C   UNL     1     110.947 126.286 136.573  0.00  0.00    +0.000 A 
ATOM      5  C   UNL     1     111.241 125.760 136.010  0.00  0.00    +0.000 A 
ATOM      6  C   UNL     1     112.475 125.682 136.726  0.00  0.00    +0.000 A 
ATOM      7  C   UNL     1     111.417 126.510 137.212  0.00  0.00    +0.000 A 
ATOM      8  C   UNL     1     110.153 126.607 136.504  0.00  0.00    +0.000 A 
ATOM      9  C   UNL     1     112.181 126.208 137.289  0.00  0.00    +0.000 A 
ATOM     10  C   UNL     1     110.761 125.519 135.338  0.00  0.00    +0.000 A 
ATOM     11  C   UNL     1     109.659 126.377 135.840  0.00  0.00    +0.000 A 
ATOM     12  C   UNL     1     109.965 125.829 135.254  0.00  0.00    +0.000 A 
ENDROOT
BRANCH   6  13
ATOM     13  C   UNL     1     113.239 125.380 136.801  0.00  0.00    +0.000 A 
ATOM     14  C   UNL     1     113.362 124.660 137.185  0.00  0.00    +0.000 A 
ATOM     15  C   UNL     1     113.881 125.799 136.493  0.00  0.00    +0.000 A 
ATOM     16  C   UNL     1     114.127 124.359 137.260  0.00  0.00    +0.000 A 
ATOM     17  C   UNL     1     114.644 125.497 136.569  0.00  0.00    +0.000 A 
ATOM     18  C   UNL     1     114.768 124.777 136.952  0.00  0.00    +0.000 A 
ENDBRANCH   6  13
BRANCH  11  19
ATOM     19  O   UNL     1     108.895 126.680 135.767  0.00  0.00    +0.000 OA
ATOM     20  C   UNL     1     108.778 127.496 135.723  0.00  0.00    +0.000 C 
ENDBRANCH  11  19
TORSDOF 2
ENDMDL
MODEL 6
REMARK VINA RESULT:      -7.7      1.300      4.096
REMARK  Name = 14376438
REMARK  2 active torsions:
REMARK  status: ('A' for Active; 'I' for Inactive)
REMARK    1  A    between atoms: O_2  and  C_13
REMARK    2  A    between atoms: C_7  and  C_10
REMARK                            x       y       z     vdW  Elec       q    Type
REMARK                         _______ _______ _______ _____ _____    ______ ____
ROOT
ATOM      1  O   UNL     1     104.136 124.353 145.973  0.00  0.00    +0.000 OA
ATOM      2  O   UNL     1     106.701 125.404 145.082  0.00  0.00    +0.000 OA
ATOM      3  O   UNL     1     104.839 124.592 148.334  0.00  0.00    +0.000 OA
ATOM      4  C   UNL     1     105.118 124.731 146.940  0.00  0.00    +0.000 A 
ATOM      5  C   UNL     1     104.883 124.651 146.153  0.00  0.00    +0.000 A 
ATOM      6  C   UNL     1     103.622 124.135 146.581  0.00  0.00    +0.000 A 
ATOM      7  C   UNL     1     104.604 124.512 147.547  0.00  0.00    +0.000 A 
ATOM      8  C   UNL     1     105.895 125.040 147.140  0.00  0.00    +0.000 A 
ATOM      9  C   UNL     1     103.856 124.214 147.368  0.00  0.00    +0.000 A 
ATOM     10  C   UNL     1     105.410 124.875 145.511  0.00  0.00    +0.000 A 
ATOM     11  C   UNL     1     106.434 125.269 146.512  0.00  0.00    +0.000 A 
ATOM     12  C   UNL     1     106.190 125.186 145.692  0.00  0.00    +0.000 A 
ENDROOT
BRANCH   6  13
ATOM     13  C   UNL     1     102.874 123.837 146.401  0.00  0.00    +0.000 A 
ATOM     14  C   UNL     1     102.199 124.273 146.590  0.00  0.00    +0.000 A 
ATOM     15  C   UNL     1     102.801 123.102 146.031  0.00  0.00    +0.000 A 
ATOM     16  C   UNL     1     101.452 123.974 146.409  0.00  0.00    +0.000 A 
ATOM     17  C   UNL     1     102.053 122.805 145.851  0.00  0.00    +0.000 A 
ATOM     18  C   UNL     1     101.378 123.240 146.040  0.00  0.00    +0.000 A 
ENDBRANCH   6  13
BRANCH  11  19
ATOM     19  O   UNL     1     107.182 125.567 146.694  0.00  0.00    +0.000 OA
ATOM     20  C   UNL     1     107.578 125.302 147.367  0.00  0.00    +0.000 C 
ENDBRANCH  11  19
TORSDOF 2
ENDMDL
MODEL 7
REMARK VINA RESULT:      -7.6      7.842      8.902
REMARK  Name = 14376438
REMARK  2 active torsions:
REMARK  status: ('A' for Active; 'I' for Inactive)
REMARK    1  A    between atoms: O_2  and  C_13
REMARK    2  A    between atoms: C_7  and  C_10
REMARK                            x       y       z     vdW  Elec       q    Type
REMARK                         _______ _______ _______ _____ _____    ______ ____
ROOT
ATOM      1  O   UNL     1     102.578 130.590 141.529  0.00  0.00    +0.000 OA
ATOM      2  O   UNL     1     103.752 128.193 140.364  0.00  0.00    +0.000 OA
ATOM      3  O   UNL     1     103.748 130.146 143.664  0.00  0.00    +0.000 OA
ATOM      4  C   UNL     1     103.453 129.780 142.316  0.00  0.00    +0.000 A 
ATOM      5  C   UNL     1     103.063 129.927 141.604  0.00  0.00    +0.000 A 
ATOM      6  C   UNL     1     102.482 131.105 142.167  0.00  0.00    +0.000 A 
ATOM      7  C   UNL     1     103.358 130.294 142.952  0.00  0.00    +0.000 A 
ATOM      8  C   UNL     1     103.962 129.092 142.405  0.00  0.00    +0.000 A 
ATOM      9  C   UNL     1     102.873 130.958 142.879  0.00  0.00    +0.000 A 
ATOM     10  C   UNL     1     103.155 129.398 140.933  0.00  0.00    +0.000 A 
ATOM     11  C   UNL     1     104.065 128.552 141.745  0.00  0.00    +0.000 A 
ATOM     12  C   UNL     1     103.659 128.706 141.004  0.00  0.00    +0.000 A 
ENDROOT
BRANCH   6  13
ATOM     13  C   UNL     1     101.997 131.768 142.092  0.00  0.00    +0.000 A 
ATOM     14  C   UNL     1     102.311 132.483 141.826  0.00  0.00    +0.000 A 
ATOM     15  C   UNL     1     101.196 131.715 142.284  0.00  0.00    +0.000 A 
ATOM     16  C   UNL     1     101.825 133.145 141.751  0.00  0.00    +0.000 A 
ATOM     17  C   UNL     1     100.710 132.378 142.209  0.00  0.00    +0.000 A 
ATOM     18  C   UNL     1     101.025 133.093 141.943  0.00  0.00    +0.000 A 
ENDBRANCH   6  13
BRANCH  11  19
ATOM     19  O   UNL     1     104.551 127.890 141.822  0.00  0.00    +0.000 OA
ATOM     20  C   UNL     1     105.307 127.969 142.143  0.00  0.00    +0.000 C 
ENDBRANCH  11  19
TORSDOF 2
ENDMDL
MODEL 8
REMARK VINA RESULT:      -7.6     12.989     14.172
REMARK  Name = 14376438
REMARK  2 active torsions:
REMARK  status: ('A' for Active; 'I' for Inactive)
REMARK    1  A    between atoms: O_2  and  C_13
REMARK    2  A    between atoms: C_7  and  C_10
REMARK                            x       y       z     vdW  Elec       q    Type
REMARK                         _______ _______ _______ _____ _____    ______ ____
ROOT
ATOM      1  O   UNL     1     113.859 126.979 136.662  0.00  0.00    +0.000 OA
ATOM      2  O   UNL     1     114.482 124.222 137.363  0.00  0.00    +0.000 OA
ATOM      3  O   UNL     1     111.592 126.300 135.938  0.00  0.00    +0.000 OA
ATOM      4  C   UNL     1     112.873 125.962 136.470  0.00  0.00    +0.000 A 
ATOM      5  C   UNL     1     113.629 126.188 136.712  0.00  0.00    +0.000 A 
ATOM      6  C   UNL     1     113.332 127.544 136.371  0.00  0.00    +0.000 A 
ATOM      7  C   UNL     1     112.347 126.526 136.179  0.00  0.00    +0.000 A 
ATOM      8  C   UNL     1     112.623 125.141 136.518  0.00  0.00    +0.000 A 
ATOM      9  C   UNL     1     112.576 127.318 136.129  0.00  0.00    +0.000 A 
ATOM     10  C   UNL     1     114.186 125.609 137.017  0.00  0.00    +0.000 A 
ATOM     11  C   UNL     1     113.166 124.549 136.820  0.00  0.00    +0.000 A 
ATOM     12  C   UNL     1     113.953 124.784 137.071  0.00  0.00    +0.000 A 
ENDROOT
BRANCH   6  13
ATOM     13  C   UNL     1     113.562 128.334 136.321  0.00  0.00    +0.000 A 
ATOM     14  C   UNL     1     113.366 128.860 136.926  0.00  0.00    +0.000 A 
ATOM     15  C   UNL     1     113.989 128.599 135.666  0.00  0.00    +0.000 A 
ATOM     16  C   UNL     1     113.597 129.651 136.875  0.00  0.00    +0.000 A 
ATOM     17  C   UNL     1     114.219 129.390 135.616  0.00  0.00    +0.000 A 
ATOM     18  C   UNL     1     114.023 129.916 136.221  0.00  0.00    +0.000 A 
ENDBRANCH   6  13
BRANCH  11  19
ATOM     19  O   UNL     1     112.934 123.758 136.869  0.00  0.00    +0.000 OA
ATOM     20  C   UNL     1     112.146 123.569 137.021  0.00  0.00    +0.000 C 
ENDBRANCH  11  19
TORSDOF 2
ENDMDL
MODEL 9
REMARK VINA RESULT:      -7.6     10.829     12.240
REMARK  Name = 14376438
REMARK  2 active torsions:
REMARK  status: ('A' for Active; 'I' for Inactive)
REMARK    1  A    between atoms: O_2  and  C_13
REMARK    2  A    between atoms: C_7  and  C_10
REMARK                            x       y       z     vdW  Elec       q    Type
REMARK                         _______ _______ _______ _____ _____    ______ ____
ROOT
ATOM      1  O   UNL     1     113.694 126.273 138.810  0.00  0.00    +0.000 OA
ATOM      2  O   UNL     1     113.241 127.533 141.395  0.00  0.00    +0.000 OA
ATOM      3  O   UNL     1     111.263 125.885 138.554  0.00  0.00    +0.000 OA
ATOM      4  C   UNL     1     112.362 126.387 139.315  0.00  0.00    +0.000 A 
ATOM      5  C   UNL     1     113.172 126.516 139.400  0.00  0.00    +0.000 A 
ATOM      6  C   UNL     1     113.404 125.899 138.133  0.00  0.00    +0.000 A 
ATOM      7  C   UNL     1     112.073 126.014 138.639  0.00  0.00    +0.000 A 
ATOM      8  C   UNL     1     111.809 126.637 139.924  0.00  0.00    +0.000 A 
ATOM      9  C   UNL     1     112.594 125.770 138.047  0.00  0.00    +0.000 A 
ATOM     10  C   UNL     1     113.486 126.904 140.101  0.00  0.00    +0.000 A 
ATOM     11  C   UNL     1     112.104 127.026 140.631  0.00  0.00    +0.000 A 
ATOM     12  C   UNL     1     112.948 127.160 140.720  0.00  0.00    +0.000 A 
ENDROOT
BRANCH   6  13
ATOM     13  C   UNL     1     113.926 125.655 137.542  0.00  0.00    +0.000 A 
ATOM     14  C   UNL     1     114.020 126.111 136.861  0.00  0.00    +0.000 A 
ATOM     15  C   UNL     1     114.354 124.955 137.633  0.00  0.00    +0.000 A 
ATOM     16  C   UNL     1     114.542 125.866 136.270  0.00  0.00    +0.000 A 
ATOM     17  C   UNL     1     114.875 124.711 137.042  0.00  0.00    +0.000 A 
ATOM     18  C   UNL     1     114.970 125.167 136.361  0.00  0.00    +0.000 A 
ENDBRANCH   6  13
BRANCH  11  19
ATOM     19  O   UNL     1     111.581 127.269 141.221  0.00  0.00    +0.000 OA
ATOM     20  C   UNL     1     110.938 126.793 141.422  0.00  0.00    +0.000 C 
ENDBRANCH  11  19
TORSDOF 2
ENDMDL
MODEL 10
REMARK VINA RESULT:      -7.6     13.211     14.465
REMARK  Name = 14376438
REMARK  2 active torsions:
REMARK  status: ('A' for Active; 'I' for Inactive)
REMARK    1  A    between atoms: O_2  and  C_13
REMARK    2  A    between atoms: C_7  and  C_10
REMARK                            x       y       z     vdW  Elec       q    Type
REMARK                         _______ _______ _______ _____ _____    ______ ____
ROOT
ATOM      1  O   UNL     1     113.887 127.156 136.269  0.00  0.00    +0.000 OA
ATOM      2  O   UNL     1     114.360 129.707 134.947  0.00  0.00    +0.000 OA
ATOM      3  O   UNL     1     112.553 128.290 138.018  0.00  0.00    +0.000 OA
ATOM      4  C   UNL     1     113.333 128.351 136.823  0.00  0.00    +0.000 A 
ATOM      5  C   UNL     1     113.778 127.973 136.240  0.00  0.00    +0.000 A 
ATOM      6  C   UNL     1     113.551 126.717 136.882  0.00  0.00    +0.000 A 
ATOM      7  C   UNL     1     112.998 127.912 137.435  0.00  0.00    +0.000 A 
ATOM      8  C   UNL     1     113.213 129.202 136.803  0.00  0.00    +0.000 A 
ATOM      9  C   UNL     1     113.107 127.095 137.465  0.00  0.00    +0.000 A 
ATOM     10  C   UNL     1     114.133 128.420 135.597  0.00  0.00    +0.000 A 
ATOM     11  C   UNL     1     113.560 129.665 136.168  0.00  0.00    +0.000 A 
ATOM     12  C   UNL     1     114.023 129.271 135.561  0.00  0.00    +0.000 A 
ENDROOT
BRANCH   6  13
ATOM     13  C   UNL     1     113.661 125.900 136.911  0.00  0.00    +0.000 A 
ATOM     14  C   UNL     1     113.109 125.396 136.560  0.00  0.00    +0.000 A 
ATOM     15  C   UNL     1     114.323 125.586 137.291  0.00  0.00    +0.000 A 
ATOM     16  C   UNL     1     113.220 124.579 136.590  0.00  0.00    +0.000 A 
ATOM     17  C   UNL     1     114.433 124.769 137.320  0.00  0.00    +0.000 A 
ATOM     18  C   UNL     1     113.881 124.266 136.969  0.00  0.00    +0.000 A 
ENDBRANCH   6  13
BRANCH  11  19
ATOM     19  O   UNL     1     113.449 130.482 136.141  0.00  0.00    +0.000 OA
ATOM     20  C   UNL     1     113.622 130.944 136.802  0.00  0.00    +0.000 C 
ENDBRANCH  11  19
TORSDOF 2
ENDMDL
