MODEL 1
REMARK VINA RESULT:      -9.4      0.000      0.000
REMARK  Name = null
REMARK  7 active torsions:
REMARK  status: ('A' for Active; 'I' for Inactive)
REMARK    1  A    between atoms: C_2  and  C_3
REMARK    2  A    between atoms: C_8  and  N_9
REMARK    3  A    between atoms: C_10  and  C_12
REMARK    4  A    between atoms: C_12  and  O_13
REMARK    5  A    between atoms: O_13  and  C_14
REMARK    6  A    between atoms: C_21  and  C_25
REMARK    7  A    between atoms: C_28  and  O_31
REMARK                            x       y       z     vdW  Elec       q    Type
REMARK                         _______ _______ _______ _____ _____    ______ ____
ROOT
ATOM      1  C   UNL     1     106.452 126.422 145.027  0.00  0.00    +0.000 A 
ATOM      2  C   UNL     1     106.319 127.236 145.017  0.00  0.00    +0.000 A 
ATOM      3  C   UNL     1     105.874 127.575 144.410  0.00  0.00    +0.000 A 
ATOM      4  C   UNL     1     105.563 127.098 143.811  0.00  0.00    +0.000 A 
ATOM      5  C   UNL     1     105.696 126.284 143.822  0.00  0.00    +0.000 A 
ATOM      6  C   UNL     1     106.141 125.945 144.429  0.00  0.00    +0.000 A 
ATOM      7  O   UNL     1     105.119 127.436 143.204  0.00  0.00    +0.000 OA
ATOM      8  C   UNL     1     104.986 128.249 143.194  0.00  0.00    +0.000 A 
ATOM      9  C   UNL     1     105.297 128.726 143.793  0.00  0.00    +0.000 A 
ATOM     10  C   UNL     1     105.741 128.388 144.400  0.00  0.00    +0.000 A 
ATOM     11  O   UNL     1     106.052 128.864 144.997  0.00  0.00    +0.000 OA
ENDROOT
BRANCH   8  12
ATOM     12  C   UNL     1     104.541 128.588 142.587  0.00  0.00    +0.000 A 
ATOM     13  C   UNL     1     104.084 129.259 142.736  0.00  0.00    +0.000 A 
ATOM     14  C   UNL     1     103.640 129.598 142.130  0.00  0.00    +0.000 A 
ATOM     15  C   UNL     1     103.652 129.266 141.374  0.00  0.00    +0.000 A 
ATOM     16  C   UNL     1     104.110 128.596 141.225  0.00  0.00    +0.000 A 
ATOM     17  C   UNL     1     104.554 128.257 141.832  0.00  0.00    +0.000 A 
BRANCH  15  18
ATOM     18  O   UNL     1     103.208 129.606 140.767  0.00  0.00    +0.000 OA
ATOM     19  C   UNL     1     102.749 129.130 140.275  0.00  0.00    +0.000 C 
ENDBRANCH  15  18
ENDBRANCH   8  12
BRANCH   1  20
ATOM     20  O   UNL     1     106.896 126.084 145.634  0.00  0.00    +0.000 OA
BRANCH  20  21
ATOM     21  C   UNL     1     106.548 125.540 146.146  0.00  0.00    +0.000 C 
BRANCH  21  23
ATOM     22  N   UNL     1     106.495 125.141 147.518  0.00  0.00    +0.000 NA
ATOM     23  C   UNL     1     106.933 125.323 146.843  0.00  0.00    +0.000 C 
ATOM     24  O   UNL     1     107.757 125.289 146.865  0.00  0.00    +0.000 OA
BRANCH  22  30
ATOM     25  C   UNL     1     106.452 124.845 148.915  0.00  0.00    +0.000 A 
ATOM     26  C   UNL     1     106.835 124.628 149.612  0.00  0.00    +0.000 A 
ATOM     27  C   UNL     1     107.650 124.491 149.608  0.00  0.00    +0.000 A 
ATOM     28  C   UNL     1     108.079 124.570 148.908  0.00  0.00    +0.000 A 
ATOM     29  C   UNL     1     107.693 124.787 148.211  0.00  0.00    +0.000 A 
ATOM     30  C   UNL     1     106.881 124.924 148.214  0.00  0.00    +0.000 A 
BRANCH  25  32
ATOM     31  C   UNL     1     105.177 124.717 149.548  0.00  0.00    +0.000 C 
ATOM     32  C   UNL     1     105.637 124.982 148.918  0.00  0.00    +0.000 C 
ENDBRANCH  25  32
ENDBRANCH  22  30
ENDBRANCH  21  23
ENDBRANCH  20  21
ENDBRANCH   1  20
TORSDOF 7
ENDMDL
MODEL 2
REMARK VINA RESULT:      -9.3      4.040      4.872
REMARK  Name = null
REMARK  7 active torsions:
REMARK  status: ('A' for Active; 'I' for Inactive)
REMARK    1  A    between atoms: C_2  and  C_3
REMARK    2  A    between atoms: C_8  and  N_9
REMARK    3  A    between atoms: C_10  and  C_12
REMARK    4  A    between atoms: C_12  and  O_13
REMARK    5  A    between atoms: O_13  and  C_14
REMARK    6  A    between atoms: C_21  and  C_25
REMARK    7  A    between atoms: C_28  and  O_31
REMARK                            x       y       z     vdW  Elec       q    Type
REMARK                         _______ _______ _______ _____ _____    ______ ____
ROOT
ATOM      1  C   UNL     1     105.867 124.876 142.124  0.00  0.00    +0.000 A 
ATOM      2  C   UNL     1     105.490 124.164 141.944  0.00  0.00    +0.000 A 
ATOM      3  C   UNL     1     105.156 124.050 141.199  0.00  0.00    +0.000 A 
ATOM      4  C   UNL     1     105.198 124.648 140.631  0.00  0.00    +0.000 A 
ATOM      5  C   UNL     1     105.575 125.360 140.811  0.00  0.00    +0.000 A 
ATOM      6  C   UNL     1     105.910 125.474 141.557  0.00  0.00    +0.000 A 
ATOM      7  O   UNL     1     104.865 124.535 139.886  0.00  0.00    +0.000 OA
ATOM      8  C   UNL     1     104.488 123.824 139.707  0.00  0.00    +0.000 A 
ATOM      9  C   UNL     1     104.445 123.225 140.274  0.00  0.00    +0.000 A 
ATOM     10  C   UNL     1     104.779 123.338 141.019  0.00  0.00    +0.000 A 
ATOM     11  O   UNL     1     104.736 122.740 141.586  0.00  0.00    +0.000 OA
ENDROOT
BRANCH   8  12
ATOM     12  C   UNL     1     104.154 123.709 138.961  0.00  0.00    +0.000 A 
ATOM     13  C   UNL     1     104.630 123.483 138.327  0.00  0.00    +0.000 A 
ATOM     14  C   UNL     1     104.298 123.368 137.581  0.00  0.00    +0.000 A 
ATOM     15  C   UNL     1     103.487 123.480 137.469  0.00  0.00    +0.000 A 
ATOM     16  C   UNL     1     103.011 123.707 138.104  0.00  0.00    +0.000 A 
ATOM     17  C   UNL     1     103.345 123.821 138.850  0.00  0.00    +0.000 A 
BRANCH  15  18
ATOM     18  O   UNL     1     103.154 123.366 136.723  0.00  0.00    +0.000 OA
ATOM     19  C   UNL     1     103.538 122.893 136.168  0.00  0.00    +0.000 C 
ENDBRANCH  15  18
ENDBRANCH   8  12
BRANCH   1  20
ATOM     20  O   UNL     1     106.200 124.989 142.869  0.00  0.00    +0.000 OA
BRANCH  20  21
ATOM     21  C   UNL     1     105.797 125.428 143.439  0.00  0.00    +0.000 C 
BRANCH  21  23
ATOM     22  N   UNL     1     105.503 125.141 144.808  0.00  0.00    +0.000 NA
ATOM     23  C   UNL     1     106.033 125.394 144.230  0.00  0.00    +0.000 C 
ATOM     24  O   UNL     1     106.799 125.614 144.441  0.00  0.00    +0.000 OA
BRANCH  22  30
ATOM     25  C   UNL     1     105.266 124.720 146.153  0.00  0.00    +0.000 A 
ATOM     26  C   UNL     1     105.500 124.686 146.943  0.00  0.00    +0.000 A 
ATOM     27  C   UNL     1     106.208 125.040 147.178  0.00  0.00    +0.000 A 
ATOM     28  C   UNL     1     106.681 125.426 146.624  0.00  0.00    +0.000 A 
ATOM     29  C   UNL     1     106.445 125.460 145.834  0.00  0.00    +0.000 A 
ATOM     30  C   UNL     1     105.738 125.107 145.598  0.00  0.00    +0.000 A 
BRANCH  25  32
ATOM     31  C   UNL     1     104.074 124.001 146.475  0.00  0.00    +0.000 C 
ATOM     32  C   UNL     1     104.558 124.367 145.917  0.00  0.00    +0.000 C 
ENDBRANCH  25  32
ENDBRANCH  22  30
ENDBRANCH  21  23
ENDBRANCH  20  21
ENDBRANCH   1  20
TORSDOF 7
ENDMDL
MODEL 3
REMARK VINA RESULT:      -9.3      7.770      9.621
REMARK  Name = null
REMARK  7 active torsions:
REMARK  status: ('A' for Active; 'I' for Inactive)
REMARK    1  A    between atoms: C_2  and  C_3
REMARK    2  A    between atoms: C_8  and  N_9
REMARK    3  A    between atoms: C_10  and  C_12
REMARK    4  A    between atoms: C_12  and  O_13
REMARK    5  A    between atoms: O_13  and  C_14
REMARK    6  A    between atoms: C_21  and  C_25
REMARK    7  A    between atoms: C_28  and  O_31
REMARK                            x       y       z     vdW  Elec       q    Type
REMARK                         _______ _______ _______ _____ _____    ______ ____
ROOT
ATOM      1  C   UNL     1     112.032 126.774 140.721  0.00  0.00    +0.000 A 
ATOM      2  C   UNL     1     111.357 127.011 141.133  0.00  0.00    +0.000 A 
ATOM      3  C   UNL     1     111.412 127.588 141.720  0.00  0.00    +0.000 A 
ATOM      4  C   UNL     1     112.144 127.929 141.897  0.00  0.00    +0.000 A 
ATOM      5  C   UNL     1     112.818 127.692 141.485  0.00  0.00    +0.000 A 
ATOM      6  C   UNL     1     112.764 127.115 140.897  0.00  0.00    +0.000 A 
ATOM      7  O   UNL     1     112.199 128.505 142.483  0.00  0.00    +0.000 OA
ATOM      8  C   UNL     1     111.524 128.741 142.894  0.00  0.00    +0.000 A 
ATOM      9  C   UNL     1     110.793 128.401 142.718  0.00  0.00    +0.000 A 
ATOM     10  C   UNL     1     110.738 127.824 142.131  0.00  0.00    +0.000 A 
ATOM     11  O   UNL     1     110.007 127.484 141.955  0.00  0.00    +0.000 OA
ENDROOT
BRANCH   8  12
ATOM     12  C   UNL     1     111.579 129.318 143.482  0.00  0.00    +0.000 A 
ATOM     13  C   UNL     1     111.617 129.096 144.275  0.00  0.00    +0.000 A 
ATOM     14  C   UNL     1     111.672 129.671 144.864  0.00  0.00    +0.000 A 
ATOM     15  C   UNL     1     111.689 130.471 144.657  0.00  0.00    +0.000 A 
ATOM     16  C   UNL     1     111.651 130.693 143.864  0.00  0.00    +0.000 A 
ATOM     17  C   UNL     1     111.596 130.116 143.276  0.00  0.00    +0.000 A 
BRANCH  15  18
ATOM     18  O   UNL     1     111.744 131.046 145.246  0.00  0.00    +0.000 OA
ATOM     19  C   UNL     1     111.127 131.581 145.359  0.00  0.00    +0.000 C 
ENDBRANCH  15  18
ENDBRANCH   8  12
BRANCH   1  20
ATOM     20  O   UNL     1     111.977 126.198 140.134  0.00  0.00    +0.000 OA
BRANCH  20  21
ATOM     21  C   UNL     1     112.115 126.397 139.346  0.00  0.00    +0.000 C 
BRANCH  21  23
ATOM     22  N   UNL     1     112.682 125.742 138.210  0.00  0.00    +0.000 NA
ATOM     23  C   UNL     1     112.073 125.817 138.760  0.00  0.00    +0.000 C 
ATOM     24  O   UNL     1     111.421 125.313 138.726  0.00  0.00    +0.000 OA
BRANCH  22  30
ATOM     25  C   UNL     1     113.332 124.874 137.280  0.00  0.00    +0.000 A 
ATOM     26  C   UNL     1     113.291 124.295 136.694  0.00  0.00    +0.000 A 
ATOM     27  C   UNL     1     112.557 124.004 136.451  0.00  0.00    +0.000 A 
ATOM     28  C   UNL     1     111.865 124.294 136.795  0.00  0.00    +0.000 A 
ATOM     29  C   UNL     1     111.907 124.873 137.381  0.00  0.00    +0.000 A 
ATOM     30  C   UNL     1     112.640 125.163 137.623  0.00  0.00    +0.000 A 
BRANCH  25  32
ATOM     31  C   UNL     1     114.756 124.886 137.168  0.00  0.00    +0.000 C 
ATOM     32  C   UNL     1     114.066 125.164 137.522  0.00  0.00    +0.000 C 
ENDBRANCH  25  32
ENDBRANCH  22  30
ENDBRANCH  21  23
ENDBRANCH  20  21
ENDBRANCH   1  20
TORSDOF 7
ENDMDL
MODEL 4
REMARK VINA RESULT:      -9.2      1.563      7.117
REMARK  Name = null
REMARK  7 active torsions:
REMARK  status: ('A' for Active; 'I' for Inactive)
REMARK    1  A    between atoms: C_2  and  C_3
REMARK    2  A    between atoms: C_8  and  N_9
REMARK    3  A    between atoms: C_10  and  C_12
REMARK    4  A    between atoms: C_12  and  O_13
REMARK    5  A    between atoms: O_13  and  C_14
REMARK    6  A    between atoms: C_21  and  C_25
REMARK    7  A    between atoms: C_28  and  O_31
REMARK                            x       y       z     vdW  Elec       q    Type
REMARK                         _______ _______ _______ _____ _____    ______ ____
ROOT
ATOM      1  C   UNL     1     105.630 127.506 144.065  0.00  0.00    +0.000 A 
ATOM      2  C   UNL     1     105.534 126.713 144.269  0.00  0.00    +0.000 A 
ATOM      3  C   UNL     1     105.842 126.428 144.980  0.00  0.00    +0.000 A 
ATOM      4  C   UNL     1     106.247 126.938 145.488  0.00  0.00    +0.000 A 
ATOM      5  C   UNL     1     106.343 127.732 145.284  0.00  0.00    +0.000 A 
ATOM      6  C   UNL     1     106.035 128.017 144.573  0.00  0.00    +0.000 A 
ATOM      7  O   UNL     1     106.555 126.654 146.198  0.00  0.00    +0.000 OA
ATOM      8  C   UNL     1     106.459 125.861 146.401  0.00  0.00    +0.000 A 
ATOM      9  C   UNL     1     106.054 125.350 145.893  0.00  0.00    +0.000 A 
ATOM     10  C   UNL     1     105.746 125.635 145.183  0.00  0.00    +0.000 A 
ATOM     11  O   UNL     1     105.341 125.125 144.676  0.00  0.00    +0.000 OA
ENDROOT
BRANCH   8  12
ATOM     12  C   UNL     1     106.767 125.576 147.112  0.00  0.00    +0.000 A 
ATOM     13  C   UNL     1     106.291 125.550 147.785  0.00  0.00    +0.000 A 
ATOM     14  C   UNL     1     106.598 125.265 148.496  0.00  0.00    +0.000 A 
ATOM     15  C   UNL     1     107.381 125.006 148.533  0.00  0.00    +0.000 A 
ATOM     16  C   UNL     1     107.856 125.032 147.859  0.00  0.00    +0.000 A 
ATOM     17  C   UNL     1     107.549 125.317 147.149  0.00  0.00    +0.000 A 
BRANCH  15  18
ATOM     18  O   UNL     1     107.688 124.722 149.244  0.00  0.00    +0.000 OA
ATOM     19  C   UNL     1     107.341 124.071 149.612  0.00  0.00    +0.000 C 
ENDBRANCH  15  18
ENDBRANCH   8  12
BRANCH   1  20
ATOM     20  O   UNL     1     105.322 127.791 143.355  0.00  0.00    +0.000 OA
BRANCH  20  21
ATOM     21  C   UNL     1     104.908 128.503 143.341  0.00  0.00    +0.000 C 
BRANCH  21  23
ATOM     22  N   UNL     1     103.944 129.352 142.715  0.00  0.00    +0.000 NA
ATOM     23  C   UNL     1     104.450 128.702 142.684  0.00  0.00    +0.000 C 
ATOM     24  O   UNL     1     104.499 128.250 141.996  0.00  0.00    +0.000 OA
BRANCH  22  30
ATOM     25  C   UNL     1     102.998 130.216 142.082  0.00  0.00    +0.000 A 
ATOM     26  C   UNL     1     102.540 130.416 141.426  0.00  0.00    +0.000 A 
ATOM     27  C   UNL     1     102.570 129.950 140.745  0.00  0.00    +0.000 A 
ATOM     28  C   UNL     1     103.059 129.286 140.720  0.00  0.00    +0.000 A 
ATOM     29  C   UNL     1     103.517 129.087 141.377  0.00  0.00    +0.000 A 
ATOM     30  C   UNL     1     103.486 129.551 142.058  0.00  0.00    +0.000 A 
BRANCH  25  32
ATOM     31  C   UNL     1     102.423 131.297 142.818  0.00  0.00    +0.000 C 
ATOM     32  C   UNL     1     102.967 130.681 142.764  0.00  0.00    +0.000 C 
ENDBRANCH  25  32
ENDBRANCH  22  30
ENDBRANCH  21  23
ENDBRANCH  20  21
ENDBRANCH   1  20
TORSDOF 7
ENDMDL
MODEL 5
REMARK VINA RESULT:      -8.9      8.550      9.609
REMARK  Name = null
REMARK  7 active torsions:
REMARK  status: ('A' for Active; 'I' for Inactive)
REMARK    1  A    between atoms: C_2  and  C_3
REMARK    2  A    between atoms: C_8  and  N_9
REMARK    3  A    between atoms: C_10  and  C_12
REMARK    4  A    between atoms: C_12  and  O_13
REMARK    5  A    between atoms: O_13  and  C_14
REMARK    6  A    between atoms: C_21  and  C_25
REMARK    7  A    between atoms: C_28  and  O_31
REMARK                            x       y       z     vdW  Elec       q    Type
REMARK                         _______ _______ _______ _____ _____    ______ ____
ROOT
ATOM      1  C   UNL     1     112.762 127.337 141.201  0.00  0.00    +0.000 A 
ATOM      2  C   UNL     1     112.332 126.924 140.631  0.00  0.00    +0.000 A 
ATOM      3  C   UNL     1     112.704 126.656 139.945  0.00  0.00    +0.000 A 
ATOM      4  C   UNL     1     113.509 126.800 139.830  0.00  0.00    +0.000 A 
ATOM      5  C   UNL     1     113.940 127.213 140.400  0.00  0.00    +0.000 A 
ATOM      6  C   UNL     1     113.567 127.482 141.086  0.00  0.00    +0.000 A 
ATOM      7  O   UNL     1     113.882 126.532 139.145  0.00  0.00    +0.000 OA
ATOM      8  C   UNL     1     113.452 126.120 138.576  0.00  0.00    +0.000 A 
ATOM      9  C   UNL     1     112.647 125.975 138.691  0.00  0.00    +0.000 A 
ATOM     10  C   UNL     1     112.274 126.243 139.376  0.00  0.00    +0.000 A 
ATOM     11  O   UNL     1     111.470 126.099 139.491  0.00  0.00    +0.000 OA
ENDROOT
BRANCH   8  12
ATOM     12  C   UNL     1     113.824 125.852 137.890  0.00  0.00    +0.000 A 
ATOM     13  C   UNL     1     114.334 125.204 137.925  0.00  0.00    +0.000 A 
ATOM     14  C   UNL     1     114.707 124.935 137.240  0.00  0.00    +0.000 A 
ATOM     15  C   UNL     1     114.570 125.314 136.520  0.00  0.00    +0.000 A 
ATOM     16  C   UNL     1     114.060 125.962 136.485  0.00  0.00    +0.000 A 
ATOM     17  C   UNL     1     113.687 126.230 137.170  0.00  0.00    +0.000 A 
BRANCH  15  18
ATOM     18  O   UNL     1     114.943 125.044 135.835  0.00  0.00    +0.000 OA
ATOM     19  C   UNL     1     115.626 125.416 135.564  0.00  0.00    +0.000 C 
ENDBRANCH  15  18
ENDBRANCH   8  12
BRANCH   1  20
ATOM     20  O   UNL     1     112.390 127.605 141.886  0.00  0.00    +0.000 OA
BRANCH  20  21
ATOM     21  C   UNL     1     112.229 128.408 141.981  0.00  0.00    +0.000 C 
BRANCH  21  23
ATOM     22  N   UNL     1     112.088 129.467 142.930  0.00  0.00    +0.000 NA
ATOM     23  C   UNL     1     111.938 128.689 142.700  0.00  0.00    +0.000 C 
ATOM     24  O   UNL     1     111.498 128.192 143.189  0.00  0.00    +0.000 OA
BRANCH  22  30
ATOM     25  C   UNL     1     111.728 130.560 143.777  0.00  0.00    +0.000 A 
ATOM     26  C   UNL     1     111.437 130.842 144.495  0.00  0.00    +0.000 A 
ATOM     27  C   UNL     1     111.216 130.311 145.087  0.00  0.00    +0.000 A 
ATOM     28  C   UNL     1     111.285 129.499 144.960  0.00  0.00    +0.000 A 
ATOM     29  C   UNL     1     111.575 129.218 144.241  0.00  0.00    +0.000 A 
ATOM     30  C   UNL     1     111.797 129.748 143.650  0.00  0.00    +0.000 A 
BRANCH  25  32
ATOM     31  C   UNL     1     111.960 131.900 143.339  0.00  0.00    +0.000 C 
ATOM     32  C   UNL     1     111.950 131.091 143.185  0.00  0.00    +0.000 C 
ENDBRANCH  25  32
ENDBRANCH  22  30
ENDBRANCH  21  23
ENDBRANCH  20  21
ENDBRANCH   1  20
TORSDOF 7
ENDMDL
MODEL 6
REMARK VINA RESULT:      -8.9     10.506     11.006
REMARK  Name = null
REMARK  7 active torsions:
REMARK  status: ('A' for Active; 'I' for Inactive)
REMARK    1  A    between atoms: C_2  and  C_3
REMARK    2  A    between atoms: C_8  and  N_9
REMARK    3  A    between atoms: C_10  and  C_12
REMARK    4  A    between atoms: C_12  and  O_13
REMARK    5  A    between atoms: O_13  and  C_14
REMARK    6  A    between atoms: C_21  and  C_25
REMARK    7  A    between atoms: C_28  and  O_31
REMARK                            x       y       z     vdW  Elec       q    Type
REMARK                         _______ _______ _______ _____ _____    ______ ____
ROOT
ATOM      1  C   UNL     1     111.737 128.321 135.616  0.00  0.00    +0.000 A 
ATOM      2  C   UNL     1     111.646 129.046 135.999  0.00  0.00    +0.000 A 
ATOM      3  C   UNL     1     110.981 129.512 135.851  0.00  0.00    +0.000 A 
ATOM      4  C   UNL     1     110.405 129.252 135.319  0.00  0.00    +0.000 A 
ATOM      5  C   UNL     1     110.496 128.527 134.935  0.00  0.00    +0.000 A 
ATOM      6  C   UNL     1     111.161 128.061 135.083  0.00  0.00    +0.000 A 
ATOM      7  O   UNL     1     109.741 129.717 135.171  0.00  0.00    +0.000 OA
ATOM      8  C   UNL     1     109.651 130.441 135.554  0.00  0.00    +0.000 A 
ATOM      9  C   UNL     1     110.226 130.701 136.086  0.00  0.00    +0.000 A 
ATOM     10  C   UNL     1     110.891 130.236 136.234  0.00  0.00    +0.000 A 
ATOM     11  O   UNL     1     111.465 130.496 136.766  0.00  0.00    +0.000 OA
ENDROOT
BRANCH   8  12
ATOM     12  C   UNL     1     108.986 130.907 135.406  0.00  0.00    +0.000 A 
ATOM     13  C   UNL     1     108.978 131.421 134.761  0.00  0.00    +0.000 A 
ATOM     14  C   UNL     1     108.314 131.887 134.612  0.00  0.00    +0.000 A 
ATOM     15  C   UNL     1     107.657 131.839 135.109  0.00  0.00    +0.000 A 
ATOM     16  C   UNL     1     107.664 131.324 135.754  0.00  0.00    +0.000 A 
ATOM     17  C   UNL     1     108.329 130.859 135.902  0.00  0.00    +0.000 A 
BRANCH  15  18
ATOM     18  O   UNL     1     106.993 132.305 134.960  0.00  0.00    +0.000 OA
ATOM     19  C   UNL     1     106.285 132.152 135.353  0.00  0.00    +0.000 C 
ENDBRANCH  15  18
ENDBRANCH   8  12
BRANCH   1  20
ATOM     20  O   UNL     1     112.401 127.856 135.764  0.00  0.00    +0.000 OA
BRANCH  20  21
ATOM     21  C   UNL     1     112.474 127.458 136.482  0.00  0.00    +0.000 C 
BRANCH  21  23
ATOM     22  N   UNL     1     112.834 126.133 136.880  0.00  0.00    +0.000 NA
ATOM     23  C   UNL     1     113.045 126.868 136.571  0.00  0.00    +0.000 C 
ATOM     24  O   UNL     1     113.826 127.015 136.351  0.00  0.00    +0.000 OA
BRANCH  22  30
ATOM     25  C   UNL     1     113.188 124.750 136.918  0.00  0.00    +0.000 A 
ATOM     26  C   UNL     1     113.757 124.159 137.007  0.00  0.00    +0.000 A 
ATOM     27  C   UNL     1     114.545 124.364 137.148  0.00  0.00    +0.000 A 
ATOM     28  C   UNL     1     114.762 125.159 137.199  0.00  0.00    +0.000 A 
ATOM     29  C   UNL     1     114.191 125.748 137.110  0.00  0.00    +0.000 A 
ATOM     30  C   UNL     1     113.405 125.544 136.969  0.00  0.00    +0.000 A 
BRANCH  25  32
ATOM     31  C   UNL     1     112.158 123.761 136.857  0.00  0.00    +0.000 C 
ATOM     32  C   UNL     1     112.401 124.545 136.777  0.00  0.00    +0.000 C 
ENDBRANCH  25  32
ENDBRANCH  22  30
ENDBRANCH  21  23
ENDBRANCH  20  21
ENDBRANCH   1  20
TORSDOF 7
ENDMDL
MODEL 7
REMARK VINA RESULT:      -8.9      4.638      6.079
REMARK  Name = null
REMARK  7 active torsions:
REMARK  status: ('A' for Active; 'I' for Inactive)
REMARK    1  A    between atoms: C_2  and  C_3
REMARK    2  A    between atoms: C_8  and  N_9
REMARK    3  A    between atoms: C_10  and  C_12
REMARK    4  A    between atoms: C_12  and  O_13
REMARK    5  A    between atoms: O_13  and  C_14
REMARK    6  A    between atoms: C_21  and  C_25
REMARK    7  A    between atoms: C_28  and  O_31
REMARK                            x       y       z     vdW  Elec       q    Type
REMARK                         _______ _______ _______ _____ _____    ______ ____
ROOT
ATOM      1  C   UNL     1     105.554 124.084 141.205  0.00  0.00    +0.000 A 
ATOM      2  C   UNL     1     105.586 124.518 140.504  0.00  0.00    +0.000 A 
ATOM      3  C   UNL     1     105.167 124.265 139.840  0.00  0.00    +0.000 A 
ATOM      4  C   UNL     1     104.714 123.575 139.877  0.00  0.00    +0.000 A 
ATOM      5  C   UNL     1     104.681 123.141 140.578  0.00  0.00    +0.000 A 
ATOM      6  C   UNL     1     105.101 123.394 141.242  0.00  0.00    +0.000 A 
ATOM      7  O   UNL     1     104.295 123.321 139.214  0.00  0.00    +0.000 OA
ATOM      8  C   UNL     1     104.328 123.755 138.514  0.00  0.00    +0.000 A 
ATOM      9  C   UNL     1     104.781 124.445 138.477  0.00  0.00    +0.000 A 
ATOM     10  C   UNL     1     105.200 124.699 139.140  0.00  0.00    +0.000 A 
ATOM     11  O   UNL     1     105.652 125.388 139.103  0.00  0.00    +0.000 OA
ENDROOT
BRANCH   8  12
ATOM     12  C   UNL     1     103.908 123.501 137.850  0.00  0.00    +0.000 A 
ATOM     13  C   UNL     1     104.312 123.184 137.204  0.00  0.00    +0.000 A 
ATOM     14  C   UNL     1     103.894 122.930 136.540  0.00  0.00    +0.000 A 
ATOM     15  C   UNL     1     103.071 122.993 136.522  0.00  0.00    +0.000 A 
ATOM     16  C   UNL     1     102.667 123.310 137.168  0.00  0.00    +0.000 A 
ATOM     17  C   UNL     1     103.087 123.564 137.832  0.00  0.00    +0.000 A 
BRANCH  15  18
ATOM     18  O   UNL     1     102.653 122.739 135.858  0.00  0.00    +0.000 OA
ATOM     19  C   UNL     1     102.856 123.020 135.111  0.00  0.00    +0.000 C 
ENDBRANCH  15  18
ENDBRANCH   8  12
BRANCH   1  20
ATOM     20  O   UNL     1     105.973 124.338 141.868  0.00  0.00    +0.000 OA
BRANCH  20  21
ATOM     21  C   UNL     1     105.568 124.570 142.547  0.00  0.00    +0.000 C 
BRANCH  21  23
ATOM     22  N   UNL     1     105.535 125.812 143.254  0.00  0.00    +0.000 NA
ATOM     23  C   UNL     1     105.915 125.103 143.073  0.00  0.00    +0.000 C 
ATOM     24  O   UNL     1     106.643 124.926 143.419  0.00  0.00    +0.000 OA
BRANCH  22  30
ATOM     25  C   UNL     1     105.818 127.156 143.646  0.00  0.00    +0.000 A 
ATOM     26  C   UNL     1     106.164 127.690 144.171  0.00  0.00    +0.000 A 
ATOM     27  C   UNL     1     106.576 127.411 144.830  0.00  0.00    +0.000 A 
ATOM     28  C   UNL     1     106.641 126.600 144.964  0.00  0.00    +0.000 A 
ATOM     29  C   UNL     1     106.294 126.067 144.438  0.00  0.00    +0.000 A 
ATOM     30  C   UNL     1     105.883 126.345 143.780  0.00  0.00    +0.000 A 
BRANCH  25  32
ATOM     31  C   UNL     1     105.012 128.158 143.022  0.00  0.00    +0.000 C 
ATOM     32  C   UNL     1     105.406 127.435 142.987  0.00  0.00    +0.000 C 
ENDBRANCH  25  32
ENDBRANCH  22  30
ENDBRANCH  21  23
ENDBRANCH  20  21
ENDBRANCH   1  20
TORSDOF 7
ENDMDL
MODEL 8
REMARK VINA RESULT:      -8.9      4.638      5.735
REMARK  Name = null
REMARK  7 active torsions:
REMARK  status: ('A' for Active; 'I' for Inactive)
REMARK    1  A    between atoms: C_2  and  C_3
REMARK    2  A    between atoms: C_8  and  N_9
REMARK    3  A    between atoms: C_10  and  C_12
REMARK    4  A    between atoms: C_12  and  O_13
REMARK    5  A    between atoms: O_13  and  C_14
REMARK    6  A    between atoms: C_21  and  C_25
REMARK    7  A    between atoms: C_28  and  O_31
REMARK                            x       y       z     vdW  Elec       q    Type
REMARK                         _______ _______ _______ _____ _____    ______ ____
ROOT
ATOM      1  C   UNL     1     104.206 128.356 141.632  0.00  0.00    +0.000 A 
ATOM      2  C   UNL     1     103.698 128.662 141.058  0.00  0.00    +0.000 A 
ATOM      3  C   UNL     1     103.280 129.359 141.204  0.00  0.00    +0.000 A 
ATOM      4  C   UNL     1     103.371 129.751 141.926  0.00  0.00    +0.000 A 
ATOM      5  C   UNL     1     103.879 129.445 142.500  0.00  0.00    +0.000 A 
ATOM      6  C   UNL     1     104.297 128.748 142.354  0.00  0.00    +0.000 A 
ATOM      7  O   UNL     1     102.954 130.447 142.072  0.00  0.00    +0.000 OA
ATOM      8  C   UNL     1     102.447 130.752 141.499  0.00  0.00    +0.000 A 
ATOM      9  C   UNL     1     102.356 130.360 140.777  0.00  0.00    +0.000 A 
ATOM     10  C   UNL     1     102.773 129.664 140.631  0.00  0.00    +0.000 A 
ATOM     11  O   UNL     1     102.682 129.273 139.910  0.00  0.00    +0.000 OA
ENDROOT
BRANCH   8  12
ATOM     12  C   UNL     1     102.029 131.449 141.645  0.00  0.00    +0.000 A 
ATOM     13  C   UNL     1     101.267 131.414 141.959  0.00  0.00    +0.000 A 
ATOM     14  C   UNL     1     100.849 132.110 142.105  0.00  0.00    +0.000 A 
ATOM     15  C   UNL     1     101.194 132.841 141.937  0.00  0.00    +0.000 A 
ATOM     16  C   UNL     1     101.956 132.876 141.623  0.00  0.00    +0.000 A 
ATOM     17  C   UNL     1     102.373 132.179 141.477  0.00  0.00    +0.000 A 
BRANCH  15  18
ATOM     18  O   UNL     1     100.775 133.537 142.083  0.00  0.00    +0.000 OA
ATOM     19  C   UNL     1     100.960 133.998 142.740  0.00  0.00    +0.000 C 
ENDBRANCH  15  18
ENDBRANCH   8  12
BRANCH   1  20
ATOM     20  O   UNL     1     104.622 127.660 141.486  0.00  0.00    +0.000 OA
BRANCH  20  21
ATOM     21  C   UNL     1     105.303 127.488 141.918  0.00  0.00    +0.000 C 
BRANCH  21  23
ATOM     22  N   UNL     1     106.565 126.889 141.619  0.00  0.00    +0.000 NA
ATOM     23  C   UNL     1     105.752 126.820 141.735  0.00  0.00    +0.000 C 
ATOM     24  O   UNL     1     105.386 126.084 141.666  0.00  0.00    +0.000 OA
BRANCH  22  30
ATOM     25  C   UNL     1     107.834 126.282 141.367  0.00  0.00    +0.000 A 
ATOM     26  C   UNL     1     108.284 125.616 141.183  0.00  0.00    +0.000 A 
ATOM     27  C   UNL     1     107.913 124.887 141.068  0.00  0.00    +0.000 A 
ATOM     28  C   UNL     1     107.093 124.826 141.136  0.00  0.00    +0.000 A 
ATOM     29  C   UNL     1     106.644 125.494 141.320  0.00  0.00    +0.000 A 
ATOM     30  C   UNL     1     107.014 126.221 141.435  0.00  0.00    +0.000 A 
BRANCH  25  32
ATOM     31  C   UNL     1     109.026 127.064 141.454  0.00  0.00    +0.000 C 
ATOM     32  C   UNL     1     108.205 127.011 141.482  0.00  0.00    +0.000 C 
ENDBRANCH  25  32
ENDBRANCH  22  30
ENDBRANCH  21  23
ENDBRANCH  20  21
ENDBRANCH   1  20
TORSDOF 7
ENDMDL
MODEL 9
REMARK VINA RESULT:      -8.8      2.942      3.493
REMARK  Name = null
REMARK  7 active torsions:
REMARK  status: ('A' for Active; 'I' for Inactive)
REMARK    1  A    between atoms: C_2  and  C_3
REMARK    2  A    between atoms: C_8  and  N_9
REMARK    3  A    between atoms: C_10  and  C_12
REMARK    4  A    between atoms: C_12  and  O_13
REMARK    5  A    between atoms: O_13  and  C_14
REMARK    6  A    between atoms: C_21  and  C_25
REMARK    7  A    between atoms: C_28  and  O_31
REMARK                            x       y       z     vdW  Elec       q    Type
REMARK                         _______ _______ _______ _____ _____    ______ ____
ROOT
ATOM      1  C   UNL     1     106.163 125.083 143.846  0.00  0.00    +0.000 A 
ATOM      2  C   UNL     1     106.376 125.489 143.159  0.00  0.00    +0.000 A 
ATOM      3  C   UNL     1     106.088 125.242 142.426  0.00  0.00    +0.000 A 
ATOM      4  C   UNL     1     105.586 124.588 142.380  0.00  0.00    +0.000 A 
ATOM      5  C   UNL     1     105.373 124.182 143.066  0.00  0.00    +0.000 A 
ATOM      6  C   UNL     1     105.661 124.429 143.799  0.00  0.00    +0.000 A 
ATOM      7  O   UNL     1     105.298 124.341 141.648  0.00  0.00    +0.000 OA
ATOM      8  C   UNL     1     105.511 124.747 140.962  0.00  0.00    +0.000 A 
ATOM      9  C   UNL     1     106.013 125.401 141.009  0.00  0.00    +0.000 A 
ATOM     10  C   UNL     1     106.301 125.648 141.741  0.00  0.00    +0.000 A 
ATOM     11  O   UNL     1     106.802 126.302 141.788  0.00  0.00    +0.000 OA
ENDROOT
BRANCH   8  12
ATOM     12  C   UNL     1     105.223 124.500 140.229  0.00  0.00    +0.000 A 
ATOM     13  C   UNL     1     105.464 123.777 139.915  0.00  0.00    +0.000 A 
ATOM     14  C   UNL     1     105.177 123.529 139.182  0.00  0.00    +0.000 A 
ATOM     15  C   UNL     1     104.649 124.005 138.764  0.00  0.00    +0.000 A 
ATOM     16  C   UNL     1     104.408 124.729 139.079  0.00  0.00    +0.000 A 
ATOM     17  C   UNL     1     104.695 124.976 139.812  0.00  0.00    +0.000 A 
BRANCH  15  18
ATOM     18  O   UNL     1     104.362 123.758 138.032  0.00  0.00    +0.000 OA
ATOM     19  C   UNL     1     103.572 123.537 137.951  0.00  0.00    +0.000 C 
ENDBRANCH  15  18
ENDBRANCH   8  12
BRANCH   1  20
ATOM     20  O   UNL     1     106.450 125.330 144.578  0.00  0.00    +0.000 OA
BRANCH  20  21
ATOM     21  C   UNL     1     106.091 125.069 145.272  0.00  0.00    +0.000 C 
BRANCH  21  23
ATOM     22  N   UNL     1     106.152 124.828 146.679  0.00  0.00    +0.000 NA
ATOM     23  C   UNL     1     106.478 125.154 145.995  0.00  0.00    +0.000 C 
ATOM     24  O   UNL     1     107.192 125.566 146.035  0.00  0.00    +0.000 OA
BRANCH  22  30
ATOM     25  C   UNL     1     106.111 124.874 148.106  0.00  0.00    +0.000 A 
ATOM     26  C   UNL     1     106.497 124.959 148.830  0.00  0.00    +0.000 A 
ATOM     27  C   UNL     1     107.313 125.082 148.850  0.00  0.00    +0.000 A 
ATOM     28  C   UNL     1     107.742 125.121 148.146  0.00  0.00    +0.000 A 
ATOM     29  C   UNL     1     107.355 125.036 147.423  0.00  0.00    +0.000 A 
ATOM     30  C   UNL     1     106.540 124.913 147.402  0.00  0.00    +0.000 A 
BRANCH  25  32
ATOM     31  C   UNL     1     104.875 124.657 148.789  0.00  0.00    +0.000 C 
ATOM     32  C   UNL     1     105.295 124.751 148.086  0.00  0.00    +0.000 C 
ENDBRANCH  25  32
ENDBRANCH  22  30
ENDBRANCH  21  23
ENDBRANCH  20  21
ENDBRANCH   1  20
TORSDOF 7
ENDMDL
MODEL 10
REMARK VINA RESULT:      -8.7      8.077      9.745
REMARK  Name = null
REMARK  7 active torsions:
REMARK  status: ('A' for Active; 'I' for Inactive)
REMARK    1  A    between atoms: C_2  and  C_3
REMARK    2  A    between atoms: C_8  and  N_9
REMARK    3  A    between atoms: C_10  and  C_12
REMARK    4  A    between atoms: C_12  and  O_13
REMARK    5  A    between atoms: O_13  and  C_14
REMARK    6  A    between atoms: C_21  and  C_25
REMARK    7  A    between atoms: C_28  and  O_31
REMARK                            x       y       z     vdW  Elec       q    Type
REMARK                         _______ _______ _______ _____ _____    ______ ____
ROOT
ATOM      1  C   UNL     1     112.837 127.072 140.630  0.00  0.00    +0.000 A 
ATOM      2  C   UNL     1     113.012 127.839 140.881  0.00  0.00    +0.000 A 
ATOM      3  C   UNL     1     112.572 128.186 141.487  0.00  0.00    +0.000 A 
ATOM      4  C   UNL     1     111.956 127.766 141.843  0.00  0.00    +0.000 A 
ATOM      5  C   UNL     1     111.782 126.999 141.592  0.00  0.00    +0.000 A 
ATOM      6  C   UNL     1     112.222 126.652 140.986  0.00  0.00    +0.000 A 
ATOM      7  O   UNL     1     111.517 128.112 142.448  0.00  0.00    +0.000 OA
ATOM      8  C   UNL     1     111.691 128.878 142.698  0.00  0.00    +0.000 A 
ATOM      9  C   UNL     1     112.307 129.298 142.343  0.00  0.00    +0.000 A 
ATOM     10  C   UNL     1     112.746 128.952 141.737  0.00  0.00    +0.000 A 
ATOM     11  O   UNL     1     113.361 129.372 141.382  0.00  0.00    +0.000 OA
ENDROOT
BRANCH   8  12
ATOM     12  C   UNL     1     111.251 129.225 143.304  0.00  0.00    +0.000 A 
ATOM     13  C   UNL     1     110.529 129.586 143.134  0.00  0.00    +0.000 A 
ATOM     14  C   UNL     1     110.089 129.934 143.739  0.00  0.00    +0.000 A 
ATOM     15  C   UNL     1     110.371 129.919 144.515  0.00  0.00    +0.000 A 
ATOM     16  C   UNL     1     111.093 129.558 144.685  0.00  0.00    +0.000 A 
ATOM     17  C   UNL     1     111.532 129.211 144.079  0.00  0.00    +0.000 A 
BRANCH  15  18
ATOM     18  O   UNL     1     109.930 130.267 145.119  0.00  0.00    +0.000 OA
ATOM     19  C   UNL     1     109.814 131.082 145.129  0.00  0.00    +0.000 C 
ENDBRANCH  15  18
ENDBRANCH   8  12
BRANCH   1  20
ATOM     20  O   UNL     1     113.277 126.726 140.025  0.00  0.00    +0.000 OA
BRANCH  20  21
ATOM     21  C   UNL     1     112.912 126.525 139.314  0.00  0.00    +0.000 C 
BRANCH  21  23
ATOM     22  N   UNL     1     112.944 125.769 138.101  0.00  0.00    +0.000 NA
ATOM     23  C   UNL     1     113.339 126.131 138.727  0.00  0.00    +0.000 C 
ATOM     24  O   UNL     1     114.163 126.099 138.768  0.00  0.00    +0.000 OA
BRANCH  22  30
ATOM     25  C   UNL     1     113.020 124.758 137.095  0.00  0.00    +0.000 A 
ATOM     26  C   UNL     1     113.446 124.363 136.509  0.00  0.00    +0.000 A 
ATOM     27  C   UNL     1     114.223 124.587 136.342  0.00  0.00    +0.000 A 
ATOM     28  C   UNL     1     114.573 125.205 136.762  0.00  0.00    +0.000 A 
ATOM     29  C   UNL     1     114.146 125.599 137.348  0.00  0.00    +0.000 A 
ATOM     30  C   UNL     1     113.370 125.375 137.515  0.00  0.00    +0.000 A 
BRANCH  25  32
ATOM     31  C   UNL     1     111.900 123.904 136.856  0.00  0.00    +0.000 C 
ATOM     32  C   UNL     1     112.243 124.534 137.261  0.00  0.00    +0.000 C 
ENDBRANCH  25  32
ENDBRANCH  22  30
ENDBRANCH  21  23
ENDBRANCH  20  21
ENDBRANCH   1  20
TORSDOF 7
ENDMDL
