MODEL 1
REMARK VINA RESULT:      -8.3      0.000      0.000
REMARK  Name = 44260043
REMARK  4 active torsions:
REMARK  status: ('A' for Active; 'I' for Inactive)
REMARK    1  A    between atoms: O_2  and  C_14
REMARK    2  A    between atoms: O_3  and  C_16
REMARK    3  A    between atoms: O_7  and  C_22
REMARK    4  A    between atoms: C_12  and  C_13
REMARK                            x       y       z     vdW  Elec       q    Type
REMARK                         _______ _______ _______ _____ _____    ______ ____
ROOT
ATOM      1  O   UNL     1     104.734 124.265 146.842  0.00  0.00    +0.000 OA
ATOM      2  O   UNL     1     102.037 125.106 147.451  0.00  0.00    +0.000 OA
ATOM      3  O   UNL     1     103.176 125.836 147.951  0.00  0.00    +0.000 OA
ATOM      4  O   UNL     1     102.484 122.741 145.796  0.00  0.00    +0.000 OA
ATOM      5  C   UNL     1     103.400 124.680 147.143  0.00  0.00    +0.000 A 
ATOM      6  C   UNL     1     103.919 124.157 146.773  0.00  0.00    +0.000 A 
ATOM      7  C   UNL     1     105.029 124.899 147.282  0.00  0.00    +0.000 A 
ATOM      8  C   UNL     1     104.510 125.422 147.651  0.00  0.00    +0.000 A 
ATOM      9  C   UNL     1     103.695 125.312 147.582  0.00  0.00    +0.000 A 
ATOM     10  C   UNL     1     103.623 123.494 146.312  0.00  0.00    +0.000 A 
ATOM     11  C   UNL     1     102.549 124.577 147.078  0.00  0.00    +0.000 A 
ATOM     12  C   UNL     1     102.776 123.375 146.236  0.00  0.00    +0.000 A 
ATOM     13  C   UNL     1     102.235 123.920 146.621  0.00  0.00    +0.000 A 
ENDROOT
BRANCH   7  16
ATOM     14  O   UNL     1     105.876 125.604 146.053  0.00  0.00    +0.000 OA
ATOM     15  O   UNL     1     108.289 125.332 147.561  0.00  0.00    +0.000 OA
ATOM     16  C   UNL     1     105.844 125.007 147.351  0.00  0.00    +0.000 A 
ATOM     17  C   UNL     1     106.267 125.360 146.737  0.00  0.00    +0.000 A 
ATOM     18  C   UNL     1     106.236 124.763 148.035  0.00  0.00    +0.000 A 
ATOM     19  C   UNL     1     107.050 124.871 148.104  0.00  0.00    +0.000 A 
ATOM     20  C   UNL     1     107.082 125.468 146.807  0.00  0.00    +0.000 A 
ATOM     21  C   UNL     1     107.474 125.224 147.490  0.00  0.00    +0.000 A 
BRANCH  19  22
ATOM     22  O   UNL     1     107.442 124.627 148.789  0.00  0.00    +0.000 OA
ATOM     23  C   UNL     1     107.104 124.052 149.274  0.00  0.00    +0.000 C 
ENDBRANCH  19  22
ENDBRANCH   7  16
BRANCH   8  24
ATOM     24  O   UNL     1     104.805 126.054 148.090  0.00  0.00    +0.000 OA
ATOM     25  C   UNL     1     104.299 126.498 148.567  0.00  0.00    +0.000 C 
ENDBRANCH   8  24
BRANCH  10  26
ATOM     26  O   UNL     1     104.150 122.975 145.946  0.00  0.00    +0.000 OA
ATOM     27  C   UNL     1     104.021 122.739 145.166  0.00  0.00    +0.000 C 
ENDBRANCH  10  26
TORSDOF 4
ENDMDL
MODEL 2
REMARK VINA RESULT:      -8.3      0.940      4.169
REMARK  Name = 44260043
REMARK  4 active torsions:
REMARK  status: ('A' for Active; 'I' for Inactive)
REMARK    1  A    between atoms: O_2  and  C_14
REMARK    2  A    between atoms: O_3  and  C_16
REMARK    3  A    between atoms: O_7  and  C_22
REMARK    4  A    between atoms: C_12  and  C_13
REMARK                            x       y       z     vdW  Elec       q    Type
REMARK                         _______ _______ _______ _____ _____    ______ ____
ROOT
ATOM      1  O   UNL     1     105.557 124.558 147.521  0.00  0.00    +0.000 OA
ATOM      2  O   UNL     1     107.721 126.275 146.674  0.00  0.00    +0.000 OA
ATOM      3  O   UNL     1     106.471 126.244 145.956  0.00  0.00    +0.000 OA
ATOM      4  O   UNL     1     108.053 124.568 149.020  0.00  0.00    +0.000 OA
ATOM      5  C   UNL     1     106.628 125.407 147.102  0.00  0.00    +0.000 A 
ATOM      6  C   UNL     1     106.323 124.845 147.624  0.00  0.00    +0.000 A 
ATOM      7  C   UNL     1     105.095 124.833 146.894  0.00  0.00    +0.000 A 
ATOM      8  C   UNL     1     105.399 125.395 146.373  0.00  0.00    +0.000 A 
ATOM      9  C   UNL     1     106.166 125.682 146.477  0.00  0.00    +0.000 A 
ATOM     10  C   UNL     1     106.795 124.551 148.280  0.00  0.00    +0.000 A 
ATOM     11  C   UNL     1     107.425 125.713 147.201  0.00  0.00    +0.000 A 
ATOM     12  C   UNL     1     107.594 124.845 148.393  0.00  0.00    +0.000 A 
ATOM     13  C   UNL     1     107.911 125.430 147.850  0.00  0.00    +0.000 A 
ENDROOT
BRANCH   7  16
ATOM     14  O   UNL     1     104.840 123.448 146.035  0.00  0.00    +0.000 OA
ATOM     15  O   UNL     1     102.028 123.687 146.482  0.00  0.00    +0.000 OA
ATOM     16  C   UNL     1     104.328 124.546 146.791  0.00  0.00    +0.000 A 
ATOM     17  C   UNL     1     104.201 123.854 146.361  0.00  0.00    +0.000 A 
ATOM     18  C   UNL     1     103.688 124.953 147.118  0.00  0.00    +0.000 A 
ATOM     19  C   UNL     1     102.922 124.666 147.014  0.00  0.00    +0.000 A 
ATOM     20  C   UNL     1     103.434 123.568 146.258  0.00  0.00    +0.000 A 
ATOM     21  C   UNL     1     102.795 123.973 146.584  0.00  0.00    +0.000 A 
BRANCH  19  22
ATOM     22  O   UNL     1     102.282 125.073 147.341  0.00  0.00    +0.000 OA
ATOM     23  C   UNL     1     102.308 125.316 148.129  0.00  0.00    +0.000 C 
ENDBRANCH  19  22
ENDBRANCH   7  16
BRANCH   8  24
ATOM     24  O   UNL     1     104.937 125.670 145.748  0.00  0.00    +0.000 OA
ATOM     25  C   UNL     1     105.182 126.327 145.312  0.00  0.00    +0.000 C 
ENDBRANCH   8  24
BRANCH  10  26
ATOM     26  O   UNL     1     106.482 123.989 148.796  0.00  0.00    +0.000 OA
ATOM     27  C   UNL     1     106.515 124.114 149.612  0.00  0.00    +0.000 C 
ENDBRANCH  10  26
TORSDOF 4
ENDMDL
MODEL 3
REMARK VINA RESULT:      -8.2     12.498     13.559
REMARK  Name = 44260043
REMARK  4 active torsions:
REMARK  status: ('A' for Active; 'I' for Inactive)
REMARK    1  A    between atoms: O_2  and  C_14
REMARK    2  A    between atoms: O_3  and  C_16
REMARK    3  A    between atoms: O_7  and  C_22
REMARK    4  A    between atoms: C_12  and  C_13
REMARK                            x       y       z     vdW  Elec       q    Type
REMARK                         _______ _______ _______ _____ _____    ______ ____
ROOT
ATOM      1  O   UNL     1     112.140 126.679 136.163  0.00  0.00    +0.000 OA
ATOM      2  O   UNL     1     109.776 125.692 134.828  0.00  0.00    +0.000 OA
ATOM      3  O   UNL     1     110.614 124.812 135.605  0.00  0.00    +0.000 OA
ATOM      4  O   UNL     1     110.495 128.514 134.612  0.00  0.00    +0.000 OA
ATOM      5  C   UNL     1     110.970 126.191 135.502  0.00  0.00    +0.000 A 
ATOM      6  C   UNL     1     111.479 126.814 135.689  0.00  0.00    +0.000 A 
ATOM      7  C   UNL     1     112.292 125.921 136.452  0.00  0.00    +0.000 A 
ATOM      8  C   UNL     1     111.784 125.298 136.266  0.00  0.00    +0.000 A 
ATOM      9  C   UNL     1     111.123 125.434 135.791  0.00  0.00    +0.000 A 
ATOM     10  C   UNL     1     111.331 127.608 135.394  0.00  0.00    +0.000 A 
ATOM     11  C   UNL     1     110.278 126.320 135.009  0.00  0.00    +0.000 A 
ATOM     12  C   UNL     1     110.644 127.755 134.899  0.00  0.00    +0.000 A 
ATOM     13  C   UNL     1     110.115 127.107 134.705  0.00  0.00    +0.000 A 
ENDROOT
BRANCH   7  16
ATOM     14  O   UNL     1     112.235 126.266 138.065  0.00  0.00    +0.000 OA
ATOM     15  O   UNL     1     114.938 125.381 138.350  0.00  0.00    +0.000 OA
ATOM     16  C   UNL     1     112.953 125.786 136.927  0.00  0.00    +0.000 A 
ATOM     17  C   UNL     1     112.925 125.958 137.733  0.00  0.00    +0.000 A 
ATOM     18  C   UNL     1     113.643 125.478 136.595  0.00  0.00    +0.000 A 
ATOM     19  C   UNL     1     114.304 125.343 137.069  0.00  0.00    +0.000 A 
ATOM     20  C   UNL     1     113.587 125.823 138.207  0.00  0.00    +0.000 A 
ATOM     21  C   UNL     1     114.276 125.516 137.876  0.00  0.00    +0.000 A 
BRANCH  19  22
ATOM     22  O   UNL     1     114.995 125.035 136.737  0.00  0.00    +0.000 OA
ATOM     23  C   UNL     1     115.296 125.358 136.040  0.00  0.00    +0.000 C 
ENDBRANCH  19  22
ENDBRANCH   7  16
BRANCH   8  24
ATOM     24  O   UNL     1     111.936 124.541 136.555  0.00  0.00    +0.000 OA
ATOM     25  C   UNL     1     111.592 123.885 136.192  0.00  0.00    +0.000 C 
ENDBRANCH   8  24
BRANCH  10  26
ATOM     26  O   UNL     1     111.845 128.224 135.586  0.00  0.00    +0.000 OA
ATOM     27  C   UNL     1     112.109 128.739 134.997  0.00  0.00    +0.000 C 
ENDBRANCH  10  26
TORSDOF 4
ENDMDL
MODEL 4
REMARK VINA RESULT:      -8.1      1.055      2.450
REMARK  Name = 44260043
REMARK  4 active torsions:
REMARK  status: ('A' for Active; 'I' for Inactive)
REMARK    1  A    between atoms: O_2  and  C_14
REMARK    2  A    between atoms: O_3  and  C_16
REMARK    3  A    between atoms: O_7  and  C_22
REMARK    4  A    between atoms: C_12  and  C_13
REMARK                            x       y       z     vdW  Elec       q    Type
REMARK                         _______ _______ _______ _____ _____    ______ ____
ROOT
ATOM      1  O   UNL     1     104.539 125.207 147.550  0.00  0.00    +0.000 OA
ATOM      2  O   UNL     1     102.505 123.908 145.961  0.00  0.00    +0.000 OA
ATOM      3  O   UNL     1     103.884 123.923 145.538  0.00  0.00    +0.000 OA
ATOM      4  O   UNL     1     101.776 125.216 148.469  0.00  0.00    +0.000 OA
ATOM      5  C   UNL     1     103.533 124.565 146.765  0.00  0.00    +0.000 A 
ATOM      6  C   UNL     1     103.751 124.993 147.436  0.00  0.00    +0.000 A 
ATOM      7  C   UNL     1     105.110 124.993 146.993  0.00  0.00    +0.000 A 
ATOM      8  C   UNL     1     104.891 124.565 146.322  0.00  0.00    +0.000 A 
ATOM      9  C   UNL     1     104.102 124.351 146.209  0.00  0.00    +0.000 A 
ATOM     10  C   UNL     1     103.166 125.221 148.023  0.00  0.00    +0.000 A 
ATOM     11  C   UNL     1     102.714 124.336 146.635  0.00  0.00    +0.000 A 
ATOM     12  C   UNL     1     102.344 125.001 147.910  0.00  0.00    +0.000 A 
ATOM     13  C   UNL     1     102.116 124.555 147.211  0.00  0.00    +0.000 A 
ENDROOT
BRANCH   7  16
ATOM     14  O   UNL     1     106.081 124.083 147.968  0.00  0.00    +0.000 OA
ATOM     15  O   UNL     1     108.263 125.854 147.449  0.00  0.00    +0.000 OA
ATOM     16  C   UNL     1     105.898 125.208 147.107  0.00  0.00    +0.000 A 
ATOM     17  C   UNL     1     106.383 124.752 147.595  0.00  0.00    +0.000 A 
ATOM     18  C   UNL     1     106.201 125.879 146.733  0.00  0.00    +0.000 A 
ATOM     19  C   UNL     1     106.989 126.093 146.848  0.00  0.00    +0.000 A 
ATOM     20  C   UNL     1     107.172 124.968 147.708  0.00  0.00    +0.000 A 
ATOM     21  C   UNL     1     107.475 125.638 147.335  0.00  0.00    +0.000 A 
BRANCH  19  22
ATOM     22  O   UNL     1     107.292 126.764 146.474  0.00  0.00    +0.000 OA
ATOM     23  C   UNL     1     106.888 127.482 146.524  0.00  0.00    +0.000 C 
ENDBRANCH  19  22
ENDBRANCH   7  16
BRANCH   8  24
ATOM     24  O   UNL     1     105.461 124.352 145.766  0.00  0.00    +0.000 OA
ATOM     25  C   UNL     1     105.248 124.248 144.976  0.00  0.00    +0.000 C 
ENDBRANCH   8  24
BRANCH  10  26
ATOM     26  O   UNL     1     103.394 125.649 148.690  0.00  0.00    +0.000 OA
ATOM     27  C   UNL     1     103.154 125.402 149.440  0.00  0.00    +0.000 C 
ENDBRANCH  10  26
TORSDOF 4
ENDMDL
MODEL 5
REMARK VINA RESULT:      -8.0     12.938     13.767
REMARK  Name = 44260043
REMARK  4 active torsions:
REMARK  status: ('A' for Active; 'I' for Inactive)
REMARK    1  A    between atoms: O_2  and  C_14
REMARK    2  A    between atoms: O_3  and  C_16
REMARK    3  A    between atoms: O_7  and  C_22
REMARK    4  A    between atoms: C_12  and  C_13
REMARK                            x       y       z     vdW  Elec       q    Type
REMARK                         _______ _______ _______ _____ _____    ______ ____
ROOT
ATOM      1  O   UNL     1     112.981 126.480 136.773  0.00  0.00    +0.000 OA
ATOM      2  O   UNL     1     110.910 124.803 135.658  0.00  0.00    +0.000 OA
ATOM      3  O   UNL     1     110.870 126.237 135.506  0.00  0.00    +0.000 OA
ATOM      4  O   UNL     1     113.130 123.592 137.120  0.00  0.00    +0.000 OA
ATOM      5  C   UNL     1     111.957 125.650 136.222  0.00  0.00    +0.000 A 
ATOM      6  C   UNL     1     112.661 125.731 136.644  0.00  0.00    +0.000 A 
ATOM      7  C   UNL     1     112.597 127.149 136.479  0.00  0.00    +0.000 A 
ATOM      8  C   UNL     1     111.893 127.068 136.057  0.00  0.00    +0.000 A 
ATOM      9  C   UNL     1     111.574 126.318 135.928  0.00  0.00    +0.000 A 
ATOM     10  C   UNL     1     113.071 125.042 136.955  0.00  0.00    +0.000 A 
ATOM     11  C   UNL     1     111.614 124.874 136.081  0.00  0.00    +0.000 A 
ATOM     12  C   UNL     1     112.743 124.259 136.824  0.00  0.00    +0.000 A 
ATOM     13  C   UNL     1     112.010 124.175 136.385  0.00  0.00    +0.000 A 
ENDROOT
BRANCH   7  16
ATOM     14  O   UNL     1     112.340 127.921 137.914  0.00  0.00    +0.000 OA
ATOM     15  O   UNL     1     113.879 130.146 136.993  0.00  0.00    +0.000 OA
ATOM     16  C   UNL     1     112.917 127.898 136.608  0.00  0.00    +0.000 A 
ATOM     17  C   UNL     1     112.788 128.284 137.326  0.00  0.00    +0.000 A 
ATOM     18  C   UNL     1     113.366 128.261 136.018  0.00  0.00    +0.000 A 
ATOM     19  C   UNL     1     113.687 129.010 136.148  0.00  0.00    +0.000 A 
ATOM     20  C   UNL     1     113.109 129.034 137.454  0.00  0.00    +0.000 A 
ATOM     21  C   UNL     1     113.558 129.397 136.865  0.00  0.00    +0.000 A 
BRANCH  19  22
ATOM     22  O   UNL     1     114.136 129.374 135.558  0.00  0.00    +0.000 OA
ATOM     23  C   UNL     1     114.694 128.936 135.137  0.00  0.00    +0.000 C 
ENDBRANCH  19  22
ENDBRANCH   7  16
BRANCH   8  24
ATOM     24  O   UNL     1     111.509 127.736 135.763  0.00  0.00    +0.000 OA
ATOM     25  C   UNL     1     110.980 127.664 135.135  0.00  0.00    +0.000 C 
ENDBRANCH   8  24
BRANCH  10  26
ATOM     26  O   UNL     1     113.774 125.133 137.377  0.00  0.00    +0.000 OA
ATOM     27  C   UNL     1     114.445 124.705 137.157  0.00  0.00    +0.000 C 
ENDBRANCH  10  26
TORSDOF 4
ENDMDL
MODEL 6
REMARK VINA RESULT:      -7.9      1.138      2.242
REMARK  Name = 44260043
REMARK  4 active torsions:
REMARK  status: ('A' for Active; 'I' for Inactive)
REMARK    1  A    between atoms: O_2  and  C_14
REMARK    2  A    between atoms: O_3  and  C_16
REMARK    3  A    between atoms: O_7  and  C_22
REMARK    4  A    between atoms: C_12  and  C_13
REMARK                            x       y       z     vdW  Elec       q    Type
REMARK                         _______ _______ _______ _____ _____    ______ ____
ROOT
ATOM      1  O   UNL     1     104.554 124.831 147.021  0.00  0.00    +0.000 OA
ATOM      2  O   UNL     1     103.205 122.905 145.343  0.00  0.00    +0.000 OA
ATOM      3  O   UNL     1     104.436 123.528 144.921  0.00  0.00    +0.000 OA
ATOM      4  O   UNL     1     102.073 123.615 147.940  0.00  0.00    +0.000 OA
ATOM      5  C   UNL     1     103.886 123.878 146.192  0.00  0.00    +0.000 A 
ATOM      6  C   UNL     1     103.926 124.313 146.892  0.00  0.00    +0.000 A 
ATOM      7  C   UNL     1     105.144 124.915 146.450  0.00  0.00    +0.000 A 
ATOM      8  C   UNL     1     105.104 124.481 145.749  0.00  0.00    +0.000 A 
ATOM      9  C   UNL     1     104.475 123.962 145.621  0.00  0.00    +0.000 A 
ATOM     10  C   UNL     1     103.318 124.234 147.495  0.00  0.00    +0.000 A 
ATOM     11  C   UNL     1     103.236 123.335 146.046  0.00  0.00    +0.000 A 
ATOM     12  C   UNL     1     102.661 123.696 147.366  0.00  0.00    +0.000 A 
ATOM     13  C   UNL     1     102.620 123.244 146.637  0.00  0.00    +0.000 A 
ENDROOT
BRANCH   7  16
ATOM     14  O   UNL     1     104.960 126.528 146.152  0.00  0.00    +0.000 OA
ATOM     15  O   UNL     1     107.660 126.987 146.969  0.00  0.00    +0.000 OA
ATOM     16  C   UNL     1     105.772 125.434 146.579  0.00  0.00    +0.000 A 
ATOM     17  C   UNL     1     105.680 126.240 146.430  0.00  0.00    +0.000 A 
ATOM     18  C   UNL     1     106.494 125.145 146.858  0.00  0.00    +0.000 A 
ATOM     19  C   UNL     1     107.122 125.663 146.987  0.00  0.00    +0.000 A 
ATOM     20  C   UNL     1     106.310 126.757 146.560  0.00  0.00    +0.000 A 
ATOM     21  C   UNL     1     107.030 126.470 146.839  0.00  0.00    +0.000 A 
BRANCH  19  22
ATOM     22  O   UNL     1     107.844 125.375 147.266  0.00  0.00    +0.000 OA
ATOM     23  C   UNL     1     107.879 124.989 147.995  0.00  0.00    +0.000 C 
ENDBRANCH  19  22
ENDBRANCH   7  16
BRANCH   8  24
ATOM     24  O   UNL     1     105.693 124.565 145.179  0.00  0.00    +0.000 OA
ATOM     25  C   UNL     1     105.579 124.260 144.421  0.00  0.00    +0.000 C 
ENDBRANCH   8  24
BRANCH  10  26
ATOM     26  O   UNL     1     103.366 124.673 148.192  0.00  0.00    +0.000 OA
ATOM     27  C   UNL     1     103.293 124.296 148.922  0.00  0.00    +0.000 C 
ENDBRANCH  10  26
TORSDOF 4
ENDMDL
MODEL 7
REMARK VINA RESULT:      -7.8      8.809     10.602
REMARK  Name = 44260043
REMARK  4 active torsions:
REMARK  status: ('A' for Active; 'I' for Inactive)
REMARK    1  A    between atoms: O_2  and  C_14
REMARK    2  A    between atoms: O_3  and  C_16
REMARK    3  A    between atoms: O_7  and  C_22
REMARK    4  A    between atoms: C_12  and  C_13
REMARK                            x       y       z     vdW  Elec       q    Type
REMARK                         _______ _______ _______ _____ _____    ______ ____
ROOT
ATOM      1  O   UNL     1     111.617 131.456 145.280  0.00  0.00    +0.000 OA
ATOM      2  O   UNL     1     112.301 131.769 142.491  0.00  0.00    +0.000 OA
ATOM      3  O   UNL     1     112.307 132.896 143.390  0.00  0.00    +0.000 OA
ATOM      4  O   UNL     1     111.583 129.133 143.524  0.00  0.00    +0.000 OA
ATOM      5  C   UNL     1     111.955 131.610 143.900  0.00  0.00    +0.000 A 
ATOM      6  C   UNL     1     111.725 131.129 144.531  0.00  0.00    +0.000 A 
ATOM      7  C   UNL     1     111.739 132.263 145.400  0.00  0.00    +0.000 A 
ATOM      8  C   UNL     1     111.969 132.744 144.770  0.00  0.00    +0.000 A 
ATOM      9  C   UNL     1     112.077 132.416 144.020  0.00  0.00    +0.000 A 
ATOM     10  C   UNL     1     111.595 130.287 144.419  0.00  0.00    +0.000 A 
ATOM     11  C   UNL     1     112.071 131.281 143.115  0.00  0.00    +0.000 A 
ATOM     12  C   UNL     1     111.706 129.941 143.640  0.00  0.00    +0.000 A 
ATOM     13  C   UNL     1     111.945 130.441 142.984  0.00  0.00    +0.000 A 
ENDROOT
BRANCH   7  16
ATOM     14  O   UNL     1     112.947 132.175 146.521  0.00  0.00    +0.000 OA
ATOM     15  O   UNL     1     111.305 133.569 148.399  0.00  0.00    +0.000 OA
ATOM     16  C   UNL     1     111.631 132.590 146.150  0.00  0.00    +0.000 A 
ATOM     17  C   UNL     1     112.235 132.545 146.710  0.00  0.00    +0.000 A 
ATOM     18  C   UNL     1     110.918 132.961 146.339  0.00  0.00    +0.000 A 
ATOM     19  C   UNL     1     110.810 133.287 147.089  0.00  0.00    +0.000 A 
ATOM     20  C   UNL     1     112.126 132.872 147.460  0.00  0.00    +0.000 A 
ATOM     21  C   UNL     1     111.414 133.243 147.649  0.00  0.00    +0.000 A 
BRANCH  19  22
ATOM     22  O   UNL     1     110.097 133.658 147.278  0.00  0.00    +0.000 OA
ATOM     23  C   UNL     1     109.383 133.324 147.036  0.00  0.00    +0.000 C 
ENDBRANCH  19  22
ENDBRANCH   7  16
BRANCH   8  24
ATOM     24  O   UNL     1     112.091 133.550 144.889  0.00  0.00    +0.000 OA
ATOM     25  C   UNL     1     112.029 134.075 144.256  0.00  0.00    +0.000 C 
ENDBRANCH   8  24
BRANCH  10  26
ATOM     26  O   UNL     1     111.365 129.815 145.055  0.00  0.00    +0.000 OA
ATOM     27  C   UNL     1     111.775 129.117 145.219  0.00  0.00    +0.000 C 
ENDBRANCH  10  26
TORSDOF 4
ENDMDL
MODEL 8
REMARK VINA RESULT:      -7.7      1.582      3.859
REMARK  Name = 44260043
REMARK  4 active torsions:
REMARK  status: ('A' for Active; 'I' for Inactive)
REMARK    1  A    between atoms: O_2  and  C_14
REMARK    2  A    between atoms: O_3  and  C_16
REMARK    3  A    between atoms: O_7  and  C_22
REMARK    4  A    between atoms: C_12  and  C_13
REMARK                            x       y       z     vdW  Elec       q    Type
REMARK                         _______ _______ _______ _____ _____    ______ ____
ROOT
ATOM      1  O   UNL     1     106.624 125.290 146.860  0.00  0.00    +0.000 OA
ATOM      2  O   UNL     1     105.367 124.227 149.235  0.00  0.00    +0.000 OA
ATOM      3  O   UNL     1     104.591 124.554 148.064  0.00  0.00    +0.000 OA
ATOM      4  O   UNL     1     108.256 124.654 149.186  0.00  0.00    +0.000 OA
ATOM      5  C   UNL     1     106.003 124.764 148.035  0.00  0.00    +0.000 A 
ATOM      6  C   UNL     1     106.681 125.010 147.634  0.00  0.00    +0.000 A 
ATOM      7  C   UNL     1     105.888 125.325 146.488  0.00  0.00    +0.000 A 
ATOM      8  C   UNL     1     105.210 125.080 146.889  0.00  0.00    +0.000 A 
ATOM      9  C   UNL     1     105.268 124.799 147.663  0.00  0.00    +0.000 A 
ATOM     10  C   UNL     1     107.452 124.978 148.011  0.00  0.00    +0.000 A 
ATOM     11  C   UNL     1     106.050 124.470 148.842  0.00  0.00    +0.000 A 
ATOM     12  C   UNL     1     107.519 124.687 148.817  0.00  0.00    +0.000 A 
ATOM     13  C   UNL     1     106.813 124.431 149.235  0.00  0.00    +0.000 A 
ENDROOT
BRANCH   7  16
ATOM     14  O   UNL     1     106.214 124.322 145.219  0.00  0.00    +0.000 OA
ATOM     15  O   UNL     1     105.659 126.450 143.394  0.00  0.00    +0.000 OA
ATOM     16  C   UNL     1     105.831 125.606 145.714  0.00  0.00    +0.000 A 
ATOM     17  C   UNL     1     105.994 125.104 145.080  0.00  0.00    +0.000 A 
ATOM     18  C   UNL     1     105.610 126.389 145.575  0.00  0.00    +0.000 A 
ATOM     19  C   UNL     1     105.553 126.670 144.802  0.00  0.00    +0.000 A 
ATOM     20  C   UNL     1     105.936 125.386 144.306  0.00  0.00    +0.000 A 
ATOM     21  C   UNL     1     105.716 126.168 144.167  0.00  0.00    +0.000 A 
BRANCH  19  22
ATOM     22  O   UNL     1     105.333 127.453 144.663  0.00  0.00    +0.000 OA
ATOM     23  C   UNL     1     105.652 128.059 145.123  0.00  0.00    +0.000 C 
ENDBRANCH  19  22
ENDBRANCH   7  16
BRANCH   8  24
ATOM     24  O   UNL     1     104.475 125.115 146.517  0.00  0.00    +0.000 OA
ATOM     25  C   UNL     1     103.784 125.055 146.963  0.00  0.00    +0.000 C 
ENDBRANCH   8  24
BRANCH  10  26
ATOM     26  O   UNL     1     108.124 125.226 147.602  0.00  0.00    +0.000 OA
ATOM     27  C   UNL     1     108.865 124.923 147.804  0.00  0.00    +0.000 C 
ENDBRANCH  10  26
TORSDOF 4
ENDMDL
MODEL 9
REMARK VINA RESULT:      -7.5     11.641     13.634
REMARK  Name = 44260043
REMARK  4 active torsions:
REMARK  status: ('A' for Active; 'I' for Inactive)
REMARK    1  A    between atoms: O_2  and  C_14
REMARK    2  A    between atoms: O_3  and  C_16
REMARK    3  A    between atoms: O_7  and  C_22
REMARK    4  A    between atoms: C_12  and  C_13
REMARK                            x       y       z     vdW  Elec       q    Type
REMARK                         _______ _______ _______ _____ _____    ______ ____
ROOT
ATOM      1  O   UNL     1     113.266 127.338 136.788  0.00  0.00    +0.000 OA
ATOM      2  O   UNL     1     112.971 129.362 138.830  0.00  0.00    +0.000 OA
ATOM      3  O   UNL     1     112.703 127.974 139.113  0.00  0.00    +0.000 OA
ATOM      4  O   UNL     1     113.824 130.122 136.141  0.00  0.00    +0.000 OA
ATOM      5  C   UNL     1     113.120 128.340 137.797  0.00  0.00    +0.000 A 
ATOM      6  C   UNL     1     113.308 128.128 137.022  0.00  0.00    +0.000 A 
ATOM      7  C   UNL     1     113.036 126.760 137.331  0.00  0.00    +0.000 A 
ATOM      8  C   UNL     1     112.849 126.971 138.106  0.00  0.00    +0.000 A 
ATOM      9  C   UNL     1     112.891 127.762 138.338  0.00  0.00    +0.000 A 
ATOM     10  C   UNL     1     113.548 128.722 136.449  0.00  0.00    +0.000 A 
ATOM     11  C   UNL     1     113.160 129.160 138.052  0.00  0.00    +0.000 A 
ATOM     12  C   UNL     1     113.594 129.546 136.686  0.00  0.00    +0.000 A 
ATOM     13  C   UNL     1     113.399 129.767 137.493  0.00  0.00    +0.000 A 
ENDROOT
BRANCH   7  16
ATOM     14  O   UNL     1     114.389 125.815 137.365  0.00  0.00    +0.000 OA
ATOM     15  O   UNL     1     112.866 123.600 136.394  0.00  0.00    +0.000 OA
ATOM     16  C   UNL     1     112.994 125.970 137.097  0.00  0.00    +0.000 A 
ATOM     17  C   UNL     1     113.671 125.497 137.114  0.00  0.00    +0.000 A 
ATOM     18  C   UNL     1     112.275 125.652 136.845  0.00  0.00    +0.000 A 
ATOM     19  C   UNL     1     112.233 124.862 136.611  0.00  0.00    +0.000 A 
ATOM     20  C   UNL     1     113.627 124.707 136.879  0.00  0.00    +0.000 A 
ATOM     21  C   UNL     1     112.909 124.390 136.628  0.00  0.00    +0.000 A 
BRANCH  19  22
ATOM     22  O   UNL     1     111.514 124.544 136.360  0.00  0.00    +0.000 OA
ATOM     23  C   UNL     1     111.019 124.984 135.867  0.00  0.00    +0.000 C 
ENDBRANCH  19  22
ENDBRANCH   7  16
BRANCH   8  24
ATOM     24  O   UNL     1     112.619 126.393 138.647  0.00  0.00    +0.000 OA
ATOM     25  C   UNL     1     112.171 126.601 139.307  0.00  0.00    +0.000 C 
ENDBRANCH   8  24
BRANCH  10  26
ATOM     26  O   UNL     1     113.734 128.501 135.676  0.00  0.00    +0.000 OA
ATOM     27  C   UNL     1     114.434 128.766 135.328  0.00  0.00    +0.000 C 
ENDBRANCH  10  26
TORSDOF 4
ENDMDL
