MODEL 1
REMARK VINA RESULT:     -10.4      0.000      0.000
REMARK  Name = 101066655
REMARK  4 active torsions:
REMARK  status: ('A' for Active; 'I' for Inactive)
REMARK    1  A    between atoms: O_2  and  C_17
REMARK    2  A    between atoms: O_2  and  C_19
REMARK    3  A    between atoms: C_16  and  C_18
REMARK    4  A    between atoms: C_22  and  C_26
REMARK                            x       y       z     vdW  Elec       q    Type
REMARK                         _______ _______ _______ _____ _____    ______ ____
ROOT
ATOM      1  O   UNL     1     112.849 126.519 136.617  0.00  0.00    +0.000 OA
ATOM      2  O   UNL     1     110.668 125.029 135.489  0.00  0.00    +0.000 OA
ATOM      3  O   UNL     1     112.734 123.637 137.022  0.00  0.00    +0.000 OA
ATOM      4  C   UNL     1     111.832 127.185 135.865  0.00  0.00    +0.000 A 
ATOM      5  C   UNL     1     111.450 126.463 135.744  0.00  0.00    +0.000 A 
ATOM      6  C   UNL     1     111.767 125.770 136.059  0.00  0.00    +0.000 A 
ATOM      7  C   UNL     1     112.532 127.212 136.302  0.00  0.00    +0.000 A 
ATOM      8  C   UNL     1     112.466 125.798 136.495  0.00  0.00    +0.000 A 
ATOM      9  C   UNL     1     111.360 125.025 135.925  0.00  0.00    +0.000 A 
ATOM     10  C   UNL     1     110.757 126.437 135.311  0.00  0.00    +0.000 A 
ATOM     11  C   UNL     1     110.369 125.728 135.184  0.00  0.00    +0.000 A 
ATOM     12  C   UNL     1     112.807 125.084 136.829  0.00  0.00    +0.000 A 
ATOM     13  C   UNL     1     111.686 124.301 136.251  0.00  0.00    +0.000 A 
ATOM     14  C   UNL     1     112.414 124.329 136.706  0.00  0.00    +0.000 A 
ATOM     15  C   UNL     1     109.671 125.716 134.746  0.00  0.00    +0.000 C 
ENDROOT
BRANCH   7  19
ATOM     16  O   UNL     1     113.309 129.341 138.043  0.00  0.00    +0.000 OA
ATOM     17  O   UNL     1     114.046 129.411 135.283  0.00  0.00    +0.000 OA
ATOM     18  O   UNL     1     114.060 130.098 136.783  0.00  0.00    +0.000 OA
ATOM     19  C   UNL     1     112.914 127.933 136.423  0.00  0.00    +0.000 A 
ATOM     20  C   UNL     1     113.289 128.312 135.792  0.00  0.00    +0.000 A 
ATOM     21  C   UNL     1     112.920 128.276 137.173  0.00  0.00    +0.000 A 
ATOM     22  C   UNL     1     113.302 128.998 137.293  0.00  0.00    +0.000 A 
ATOM     23  C   UNL     1     113.671 129.033 135.913  0.00  0.00    +0.000 A 
ATOM     24  C   UNL     1     113.677 129.376 136.663  0.00  0.00    +0.000 A 
ENDBRANCH   7  19
BRANCH   4  25
ATOM     25  O   UNL     1     111.515 127.878 135.550  0.00  0.00    +0.000 OA
BRANCH  25  34
ATOM     26  O   UNL     1     110.643 128.037 136.670  0.00  0.00    +0.000 OA
ATOM     27  O   UNL     1     109.240 129.598 135.358  0.00  0.00    +0.000 OA
ATOM     28  O   UNL     1     108.836 129.237 136.915  0.00  0.00    +0.000 OA
ATOM     29  O   UNL     1     110.579 128.918 134.674  0.00  0.00    +0.000 OA
ATOM     30  C   UNL     1     109.708 129.077 135.795  0.00  0.00    +0.000 C 
ATOM     31  C   UNL     1     109.506 128.897 136.574  0.00  0.00    +0.000 C 
ATOM     32  C   UNL     1     110.378 128.737 135.454  0.00  0.00    +0.000 C 
ATOM     33  C   UNL     1     109.973 128.376 137.012  0.00  0.00    +0.000 C 
ATOM     34  C   UNL     1     110.845 128.217 135.891  0.00  0.00    +0.000 C 
BRANCH  33  36
ATOM     35  O   UNL     1     109.369 127.496 137.962  0.00  0.00    +0.000 OA
ATOM     36  C   UNL     1     109.771 128.196 137.791  0.00  0.00    +0.000 C 
ENDBRANCH  33  36
ENDBRANCH  25  34
ENDBRANCH   4  25
TORSDOF 4
ENDMDL
MODEL 2
REMARK VINA RESULT:     -10.2     11.903     13.563
REMARK  Name = 101066655
REMARK  4 active torsions:
REMARK  status: ('A' for Active; 'I' for Inactive)
REMARK    1  A    between atoms: O_2  and  C_17
REMARK    2  A    between atoms: O_2  and  C_19
REMARK    3  A    between atoms: C_16  and  C_18
REMARK    4  A    between atoms: C_22  and  C_26
REMARK                            x       y       z     vdW  Elec       q    Type
REMARK                         _______ _______ _______ _____ _____    ______ ____
ROOT
ATOM      1  O   UNL     1     104.933 124.133 146.949  0.00  0.00    +0.000 OA
ATOM      2  O   UNL     1     102.218 124.964 147.380  0.00  0.00    +0.000 OA
ATOM      3  O   UNL     1     102.790 122.811 145.485  0.00  0.00    +0.000 OA
ATOM      4  C   UNL     1     104.637 125.184 147.871  0.00  0.00    +0.000 A 
ATOM      5  C   UNL     1     103.834 125.105 147.703  0.00  0.00    +0.000 A 
ATOM      6  C   UNL     1     103.580 124.540 147.157  0.00  0.00    +0.000 A 
ATOM      7  C   UNL     1     105.187 124.697 147.494  0.00  0.00    +0.000 A 
ATOM      8  C   UNL     1     104.129 124.055 146.781  0.00  0.00    +0.000 A 
ATOM      9  C   UNL     1     102.740 124.469 146.990  0.00  0.00    +0.000 A 
ATOM     10  C   UNL     1     103.289 125.587 148.077  0.00  0.00    +0.000 A 
ATOM     11  C   UNL     1     102.490 125.518 147.917  0.00  0.00    +0.000 A 
ATOM     12  C   UNL     1     103.878 123.463 146.211  0.00  0.00    +0.000 A 
ATOM     13  C   UNL     1     102.469 123.883 146.423  0.00  0.00    +0.000 A 
ATOM     14  C   UNL     1     103.042 123.376 146.031  0.00  0.00    +0.000 A 
ATOM     15  C   UNL     1     101.953 126.011 148.302  0.00  0.00    +0.000 C 
ENDROOT
BRANCH   7  19
ATOM     16  O   UNL     1     107.373 124.427 149.315  0.00  0.00    +0.000 OA
ATOM     17  O   UNL     1     107.825 125.442 146.682  0.00  0.00    +0.000 OA
ATOM     18  O   UNL     1     108.403 125.013 148.167  0.00  0.00    +0.000 OA
ATOM     19  C   UNL     1     105.991 124.776 147.663  0.00  0.00    +0.000 A 
ATOM     20  C   UNL     1     106.506 125.069 147.088  0.00  0.00    +0.000 A 
ATOM     21  C   UNL     1     106.280 124.562 148.405  0.00  0.00    +0.000 A 
ATOM     22  C   UNL     1     107.084 124.641 148.573  0.00  0.00    +0.000 A 
ATOM     23  C   UNL     1     107.309 125.148 147.257  0.00  0.00    +0.000 A 
ATOM     24  C   UNL     1     107.599 124.934 147.999  0.00  0.00    +0.000 A 
ENDBRANCH   7  19
BRANCH   4  25
ATOM     25  O   UNL     1     104.891 125.748 148.417  0.00  0.00    +0.000 OA
BRANCH  25  34
ATOM     26  O   UNL     1     104.865 126.782 147.431  0.00  0.00    +0.000 OA
ATOM     27  O   UNL     1     104.802 128.489 149.222  0.00  0.00    +0.000 OA
ATOM     28  O   UNL     1     104.796 128.953 147.640  0.00  0.00    +0.000 OA
ATOM     29  O   UNL     1     104.849 126.886 149.611  0.00  0.00    +0.000 OA
ATOM     30  C   UNL     1     104.823 127.920 148.625  0.00  0.00    +0.000 C 
ATOM     31  C   UNL     1     104.820 128.152 147.834  0.00  0.00    +0.000 C 
ATOM     32  C   UNL     1     104.847 127.118 148.819  0.00  0.00    +0.000 C 
ATOM     33  C   UNL     1     104.841 127.583 147.236  0.00  0.00    +0.000 C 
ATOM     34  C   UNL     1     104.868 126.549 148.222  0.00  0.00    +0.000 C 
BRANCH  33  36
ATOM     35  O   UNL     1     105.540 127.809 146.010  0.00  0.00    +0.000 OA
ATOM     36  C   UNL     1     104.839 127.815 146.446  0.00  0.00    +0.000 C 
ENDBRANCH  33  36
ENDBRANCH  25  34
ENDBRANCH   4  25
TORSDOF 4
ENDMDL
MODEL 3
REMARK VINA RESULT:     -10.1      1.941      4.530
REMARK  Name = 101066655
REMARK  4 active torsions:
REMARK  status: ('A' for Active; 'I' for Inactive)
REMARK    1  A    between atoms: O_2  and  C_17
REMARK    2  A    between atoms: O_2  and  C_19
REMARK    3  A    between atoms: C_16  and  C_18
REMARK    4  A    between atoms: C_22  and  C_26
REMARK                            x       y       z     vdW  Elec       q    Type
REMARK                         _______ _______ _______ _____ _____    ______ ____
ROOT
ATOM      1  O   UNL     1     113.532 127.156 136.299  0.00  0.00    +0.000 OA
ATOM      2  O   UNL     1     112.545 129.640 137.350  0.00  0.00    +0.000 OA
ATOM      3  O   UNL     1     114.597 129.662 135.266  0.00  0.00    +0.000 OA
ATOM      4  C   UNL     1     112.530 127.162 137.318  0.00  0.00    +0.000 A 
ATOM      5  C   UNL     1     112.540 127.987 137.323  0.00  0.00    +0.000 A 
ATOM      6  C   UNL     1     113.047 128.397 136.816  0.00  0.00    +0.000 A 
ATOM      7  C   UNL     1     113.026 126.747 136.806  0.00  0.00    +0.000 A 
ATOM      8  C   UNL     1     113.542 127.981 136.305  0.00  0.00    +0.000 A 
ATOM      9  C   UNL     1     113.048 129.256 136.832  0.00  0.00    +0.000 A 
ATOM     10  C   UNL     1     112.048 128.398 137.831  0.00  0.00    +0.000 A 
ATOM     11  C   UNL     1     112.050 129.216 137.844  0.00  0.00    +0.000 A 
ATOM     12  C   UNL     1     114.074 128.396 135.773  0.00  0.00    +0.000 A 
ATOM     13  C   UNL     1     113.573 129.688 136.306  0.00  0.00    +0.000 A 
ATOM     14  C   UNL     1     114.090 129.255 135.773  0.00  0.00    +0.000 A 
ATOM     15  C   UNL     1     111.549 129.617 138.362  0.00  0.00    +0.000 C 
ENDROOT
BRANCH   7  19
ATOM     16  O   UNL     1     111.695 124.291 136.201  0.00  0.00    +0.000 OA
ATOM     17  O   UNL     1     114.297 124.253 137.382  0.00  0.00    +0.000 OA
ATOM     18  O   UNL     1     112.986 123.447 136.787  0.00  0.00    +0.000 OA
ATOM     19  C   UNL     1     113.015 125.922 136.801  0.00  0.00    +0.000 A 
ATOM     20  C   UNL     1     113.662 125.500 137.094  0.00  0.00    +0.000 A 
ATOM     21  C   UNL     1     112.360 125.519 136.503  0.00  0.00    +0.000 A 
ATOM     22  C   UNL     1     112.350 124.694 136.499  0.00  0.00    +0.000 A 
ATOM     23  C   UNL     1     113.651 124.675 137.089  0.00  0.00    +0.000 A 
ATOM     24  C   UNL     1     112.995 124.272 136.791  0.00  0.00    +0.000 A 
ENDBRANCH   7  19
BRANCH   4  25
ATOM     25  O   UNL     1     112.023 126.753 137.824  0.00  0.00    +0.000 OA
BRANCH  25  34
ATOM     26  O   UNL     1     112.937 126.916 138.911  0.00  0.00    +0.000 OA
ATOM     27  O   UNL     1     111.166 126.239 140.502  0.00  0.00    +0.000 OA
ATOM     28  O   UNL     1     112.670 126.628 141.057  0.00  0.00    +0.000 OA
ATOM     29  O   UNL     1     110.843 126.301 138.885  0.00  0.00    +0.000 OA
ATOM     30  C   UNL     1     111.757 126.465 139.972  0.00  0.00    +0.000 C 
ATOM     31  C   UNL     1     112.509 126.659 140.249  0.00  0.00    +0.000 C 
ATOM     32  C   UNL     1     111.595 126.496 139.162  0.00  0.00    +0.000 C 
ATOM     33  C   UNL     1     113.099 126.885 139.719  0.00  0.00    +0.000 C 
ATOM     34  C   UNL     1     112.185 126.722 138.632  0.00  0.00    +0.000 C 
BRANCH  33  36
ATOM     35  O   UNL     1     114.474 126.545 139.910  0.00  0.00    +0.000 OA
ATOM     36  C   UNL     1     113.850 127.079 139.996  0.00  0.00    +0.000 C 
ENDBRANCH  33  36
ENDBRANCH  25  34
ENDBRANCH   4  25
TORSDOF 4
ENDMDL
MODEL 4
REMARK VINA RESULT:     -10.0      1.440      1.895
REMARK  Name = 101066655
REMARK  4 active torsions:
REMARK  status: ('A' for Active; 'I' for Inactive)
REMARK    1  A    between atoms: O_2  and  C_17
REMARK    2  A    between atoms: O_2  and  C_19
REMARK    3  A    between atoms: C_16  and  C_18
REMARK    4  A    between atoms: C_22  and  C_26
REMARK                            x       y       z     vdW  Elec       q    Type
REMARK                         _______ _______ _______ _____ _____    ______ ____
ROOT
ATOM      1  O   UNL     1     113.494 126.872 136.790  0.00  0.00    +0.000 OA
ATOM      2  O   UNL     1     112.629 124.142 136.575  0.00  0.00    +0.000 OA
ATOM      3  O   UNL     1     115.346 124.733 137.483  0.00  0.00    +0.000 OA
ATOM      4  C   UNL     1     112.170 126.566 136.348  0.00  0.00    +0.000 A 
ATOM      5  C   UNL     1     112.330 125.761 136.426  0.00  0.00    +0.000 A 
ATOM      6  C   UNL     1     113.072 125.511 136.686  0.00  0.00    +0.000 A 
ATOM      7  C   UNL     1     112.753 127.122 136.530  0.00  0.00    +0.000 A 
ATOM      8  C   UNL     1     113.654 126.066 136.868  0.00  0.00    +0.000 A 
ATOM      9  C   UNL     1     113.226 124.669 136.763  0.00  0.00    +0.000 A 
ATOM     10  C   UNL     1     111.752 125.211 136.245  0.00  0.00    +0.000 A 
ATOM     11  C   UNL     1     111.900 124.410 136.319  0.00  0.00    +0.000 A 
ATOM     12  C   UNL     1     114.430 125.819 137.139  0.00  0.00    +0.000 A 
ATOM     13  C   UNL     1     113.996 124.402 137.033  0.00  0.00    +0.000 A 
ATOM     14  C   UNL     1     114.603 124.981 137.223  0.00  0.00    +0.000 A 
ATOM     15  C   UNL     1     111.308 123.866 136.133  0.00  0.00    +0.000 C 
ENDROOT
BRANCH   7  19
ATOM     16  O   UNL     1     112.283 129.680 137.715  0.00  0.00    +0.000 OA
ATOM     17  O   UNL     1     112.260 129.397 134.871  0.00  0.00    +0.000 OA
ATOM     18  O   UNL     1     112.111 130.344 136.214  0.00  0.00    +0.000 OA
ATOM     19  C   UNL     1     112.592 127.927 136.452  0.00  0.00    +0.000 A 
ATOM     20  C   UNL     1     112.506 128.259 135.700  0.00  0.00    +0.000 A 
ATOM     21  C   UNL     1     112.518 128.401 137.123  0.00  0.00    +0.000 A 
ATOM     22  C   UNL     1     112.358 129.206 137.043  0.00  0.00    +0.000 A 
ATOM     23  C   UNL     1     112.346 129.065 135.622  0.00  0.00    +0.000 A 
ATOM     24  C   UNL     1     112.272 129.538 136.294  0.00  0.00    +0.000 A 
ENDBRANCH   7  19
BRANCH   4  25
ATOM     25  O   UNL     1     111.428 126.816 136.088  0.00  0.00    +0.000 OA
BRANCH  25  34
ATOM     26  O   UNL     1     110.884 126.645 137.398  0.00  0.00    +0.000 OA
ATOM     27  O   UNL     1     108.595 126.812 136.469  0.00  0.00    +0.000 OA
ATOM     28  O   UNL     1     108.814 126.585 138.088  0.00  0.00    +0.000 OA
ATOM     29  O   UNL     1     109.902 126.928 135.469  0.00  0.00    +0.000 OA
ATOM     30  C   UNL     1     109.358 126.756 136.779  0.00  0.00    +0.000 C 
ATOM     31  C   UNL     1     109.468 126.643 137.588  0.00  0.00    +0.000 C 
ATOM     32  C   UNL     1     110.012 126.814 136.278  0.00  0.00    +0.000 C 
ATOM     33  C   UNL     1     110.231 126.588 137.898  0.00  0.00    +0.000 C 
ATOM     34  C   UNL     1     110.775 126.759 136.588  0.00  0.00    +0.000 C 
BRANCH  33  36
ATOM     35  O   UNL     1     110.582 127.103 139.184  0.00  0.00    +0.000 OA
ATOM     36  C   UNL     1     110.340 126.474 138.707  0.00  0.00    +0.000 C 
ENDBRANCH  33  36
ENDBRANCH  25  34
ENDBRANCH   4  25
TORSDOF 4
ENDMDL
MODEL 5
REMARK VINA RESULT:      -9.8      2.219      3.194
REMARK  Name = 101066655
REMARK  4 active torsions:
REMARK  status: ('A' for Active; 'I' for Inactive)
REMARK    1  A    between atoms: O_2  and  C_17
REMARK    2  A    between atoms: O_2  and  C_19
REMARK    3  A    between atoms: C_16  and  C_18
REMARK    4  A    between atoms: C_22  and  C_26
REMARK                            x       y       z     vdW  Elec       q    Type
REMARK                         _______ _______ _______ _____ _____    ______ ____
ROOT
ATOM      1  O   UNL     1     113.540 126.061 138.713  0.00  0.00    +0.000 OA
ATOM      2  O   UNL     1     112.476 125.143 136.208  0.00  0.00    +0.000 OA
ATOM      3  O   UNL     1     115.292 124.674 136.845  0.00  0.00    +0.000 OA
ATOM      4  C   UNL     1     112.166 126.282 138.386  0.00  0.00    +0.000 A 
ATOM      5  C   UNL     1     112.277 125.902 137.663  0.00  0.00    +0.000 A 
ATOM      6  C   UNL     1     113.019 125.601 137.464  0.00  0.00    +0.000 A 
ATOM      7  C   UNL     1     112.798 126.362 138.911  0.00  0.00    +0.000 A 
ATOM      8  C   UNL     1     113.650 125.680 137.989  0.00  0.00    +0.000 A 
ATOM      9  C   UNL     1     113.120 125.206 136.707  0.00  0.00    +0.000 A 
ATOM     10  C   UNL     1     111.650 125.824 137.143  0.00  0.00    +0.000 A 
ATOM     11  C   UNL     1     111.748 125.448 136.423  0.00  0.00    +0.000 A 
ATOM     12  C   UNL     1     114.427 125.371 137.794  0.00  0.00    +0.000 A 
ATOM     13  C   UNL     1     113.891 124.891 136.495  0.00  0.00    +0.000 A 
ATOM     14  C   UNL     1     114.549 124.974 137.041  0.00  0.00    +0.000 A 
ATOM     15  C   UNL     1     111.107 125.376 135.909  0.00  0.00    +0.000 C 
ENDROOT
BRANCH   7  19
ATOM     16  O   UNL     1     113.281 128.587 140.638  0.00  0.00    +0.000 OA
ATOM     17  O   UNL     1     111.647 126.417 141.527  0.00  0.00    +0.000 OA
ATOM     18  O   UNL     1     112.353 127.882 141.806  0.00  0.00    +0.000 OA
ATOM     19  C   UNL     1     112.687 126.742 139.635  0.00  0.00    +0.000 A 
ATOM     20  C   UNL     1     112.223 126.389 140.219  0.00  0.00    +0.000 A 
ATOM     21  C   UNL     1     113.040 127.475 139.775  0.00  0.00    +0.000 A 
ATOM     22  C   UNL     1     112.928 127.855 140.499  0.00  0.00    +0.000 A 
ATOM     23  C   UNL     1     112.112 126.770 140.943  0.00  0.00    +0.000 A 
ATOM     24  C   UNL     1     112.465 127.503 141.082  0.00  0.00    +0.000 A 
ENDBRANCH   7  19
BRANCH   4  25
ATOM     25  O   UNL     1     111.424 126.583 138.585  0.00  0.00    +0.000 OA
BRANCH  25  34
ATOM     26  O   UNL     1     111.662 127.763 137.814  0.00  0.00    +0.000 OA
ATOM     27  O   UNL     1     109.246 128.296 137.884  0.00  0.00    +0.000 OA
ATOM     28  O   UNL     1     110.289 129.296 137.090  0.00  0.00    +0.000 OA
ATOM     29  O   UNL     1     109.813 126.939 138.632  0.00  0.00    +0.000 OA
ATOM     30  C   UNL     1     110.051 128.118 137.860  0.00  0.00    +0.000 C 
ATOM     31  C   UNL     1     110.573 128.618 137.463  0.00  0.00    +0.000 C 
ATOM     32  C   UNL     1     110.335 127.439 138.235  0.00  0.00    +0.000 C 
ATOM     33  C   UNL     1     111.379 128.440 137.440  0.00  0.00    +0.000 C 
ATOM     34  C   UNL     1     111.141 127.261 138.211  0.00  0.00    +0.000 C 
BRANCH  33  36
ATOM     35  O   UNL     1     112.382 129.458 137.469  0.00  0.00    +0.000 OA
ATOM     36  C   UNL     1     111.900 128.941 137.043  0.00  0.00    +0.000 C 
ENDBRANCH  33  36
ENDBRANCH  25  34
ENDBRANCH   4  25
TORSDOF 4
ENDMDL
MODEL 6
REMARK VINA RESULT:      -9.8      2.601      4.710
REMARK  Name = 101066655
REMARK  4 active torsions:
REMARK  status: ('A' for Active; 'I' for Inactive)
REMARK    1  A    between atoms: O_2  and  C_17
REMARK    2  A    between atoms: O_2  and  C_19
REMARK    3  A    between atoms: C_16  and  C_18
REMARK    4  A    between atoms: C_22  and  C_26
REMARK                            x       y       z     vdW  Elec       q    Type
REMARK                         _______ _______ _______ _____ _____    ______ ____
ROOT
ATOM      1  O   UNL     1     111.827 129.387 135.644  0.00  0.00    +0.000 OA
ATOM      2  O   UNL     1     113.959 130.276 137.350  0.00  0.00    +0.000 OA
ATOM      3  O   UNL     1     114.552 129.422 134.616  0.00  0.00    +0.000 OA
ATOM      4  C   UNL     1     111.554 129.807 136.982  0.00  0.00    +0.000 A 
ATOM      5  C   UNL     1     112.356 129.961 137.097  0.00  0.00    +0.000 A 
ATOM      6  C   UNL     1     112.894 129.828 136.486  0.00  0.00    +0.000 A 
ATOM      7  C   UNL     1     111.289 129.520 136.255  0.00  0.00    +0.000 A 
ATOM      8  C   UNL     1     112.629 129.541 135.760  0.00  0.00    +0.000 A 
ATOM      9  C   UNL     1     113.727 129.992 136.619  0.00  0.00    +0.000 A 
ATOM     10  C   UNL     1     112.617 130.246 137.819  0.00  0.00    +0.000 A 
ATOM     11  C   UNL     1     113.410 130.402 137.944  0.00  0.00    +0.000 A 
ATOM     12  C   UNL     1     113.179 129.398 135.115  0.00  0.00    +0.000 A 
ATOM     13  C   UNL     1     114.291 129.855 135.986  0.00  0.00    +0.000 A 
ATOM     14  C   UNL     1     114.016 129.556 135.229  0.00  0.00    +0.000 A 
ATOM     15  C   UNL     1     113.660 130.688 138.676  0.00  0.00    +0.000 C 
ENDROOT
BRANCH   7  19
ATOM     16  O   UNL     1     108.797 130.165 135.013  0.00  0.00    +0.000 OA
ATOM     17  O   UNL     1     108.967 127.950 136.810  0.00  0.00    +0.000 OA
ATOM     18  O   UNL     1     108.080 128.903 135.797  0.00  0.00    +0.000 OA
ATOM     19  C   UNL     1     110.487 129.366 136.140  0.00  0.00    +0.000 A 
ATOM     20  C   UNL     1     110.128 128.735 136.533  0.00  0.00    +0.000 A 
ATOM     21  C   UNL     1     110.043 129.843 135.633  0.00  0.00    +0.000 A 
ATOM     22  C   UNL     1     109.241 129.688 135.519  0.00  0.00    +0.000 A 
ATOM     23  C   UNL     1     109.326 128.581 136.418  0.00  0.00    +0.000 A 
ATOM     24  C   UNL     1     108.882 129.058 135.911  0.00  0.00    +0.000 A 
ENDBRANCH   7  19
BRANCH   4  25
ATOM     25  O   UNL     1     111.016 129.941 137.594  0.00  0.00    +0.000 OA
BRANCH  25  34
ATOM     26  O   UNL     1     110.963 131.335 137.287  0.00  0.00    +0.000 OA
ATOM     27  O   UNL     1     109.940 131.781 139.497  0.00  0.00    +0.000 OA
ATOM     28  O   UNL     1     110.227 133.027 138.454  0.00  0.00    +0.000 OA
ATOM     29  O   UNL     1     110.334 130.238 139.067  0.00  0.00    +0.000 OA
ATOM     30  C   UNL     1     110.281 131.633 138.760  0.00  0.00    +0.000 C 
ATOM     31  C   UNL     1     110.425 132.255 138.239  0.00  0.00    +0.000 C 
ATOM     32  C   UNL     1     110.478 130.861 138.545  0.00  0.00    +0.000 C 
ATOM     33  C   UNL     1     110.766 132.107 137.502  0.00  0.00    +0.000 C 
ATOM     34  C   UNL     1     110.819 130.712 137.808  0.00  0.00    +0.000 C 
BRANCH  33  36
ATOM     35  O   UNL     1     110.360 132.912 136.394  0.00  0.00    +0.000 OA
ATOM     36  C   UNL     1     110.909 132.729 136.981  0.00  0.00    +0.000 C 
ENDBRANCH  33  36
ENDBRANCH  25  34
ENDBRANCH   4  25
TORSDOF 4
ENDMDL
MODEL 7
REMARK VINA RESULT:      -9.5      1.701      3.457
REMARK  Name = 101066655
REMARK  4 active torsions:
REMARK  status: ('A' for Active; 'I' for Inactive)
REMARK    1  A    between atoms: O_2  and  C_17
REMARK    2  A    between atoms: O_2  and  C_19
REMARK    3  A    between atoms: C_16  and  C_18
REMARK    4  A    between atoms: C_22  and  C_26
REMARK                            x       y       z     vdW  Elec       q    Type
REMARK                         _______ _______ _______ _____ _____    ______ ____
ROOT
ATOM      1  O   UNL     1     112.980 126.813 136.401  0.00  0.00    +0.000 OA
ATOM      2  O   UNL     1     113.772 126.185 139.089  0.00  0.00    +0.000 OA
ATOM      3  O   UNL     1     115.028 124.791 136.845  0.00  0.00    +0.000 OA
ATOM      4  C   UNL     1     112.375 127.486 137.508  0.00  0.00    +0.000 A 
ATOM      5  C   UNL     1     112.843 127.049 138.028  0.00  0.00    +0.000 A 
ATOM      6  C   UNL     1     113.379 126.495 137.735  0.00  0.00    +0.000 A 
ATOM      7  C   UNL     1     112.443 127.368 136.694  0.00  0.00    +0.000 A 
ATOM      8  C   UNL     1     113.447 126.377 136.922  0.00  0.00    +0.000 A 
ATOM      9  C   UNL     1     113.861 126.046 138.288  0.00  0.00    +0.000 A 
ATOM     10  C   UNL     1     112.775 127.167 138.835  0.00  0.00    +0.000 A 
ATOM     11  C   UNL     1     113.234 126.739 139.360  0.00  0.00    +0.000 A 
ATOM     12  C   UNL     1     114.002 125.803 136.604  0.00  0.00    +0.000 A 
ATOM     13  C   UNL     1     114.421 125.468 137.988  0.00  0.00    +0.000 A 
ATOM     14  C   UNL     1     114.492 125.345 137.141  0.00  0.00    +0.000 A 
ATOM     15  C   UNL     1     113.155 126.868 140.171  0.00  0.00    +0.000 C 
ENDROOT
BRANCH   7  19
ATOM     16  O   UNL     1     109.880 127.979 135.588  0.00  0.00    +0.000 OA
ATOM     17  O   UNL     1     112.200 129.379 134.678  0.00  0.00    +0.000 OA
ATOM     18  O   UNL     1     110.572 129.116 134.612  0.00  0.00    +0.000 OA
ATOM     19  C   UNL     1     111.975 127.804 136.174  0.00  0.00    +0.000 A 
ATOM     20  C   UNL     1     112.322 128.373 135.686  0.00  0.00    +0.000 A 
ATOM     21  C   UNL     1     111.161 127.673 136.141  0.00  0.00    +0.000 A 
ATOM     22  C   UNL     1     110.694 128.111 135.621  0.00  0.00    +0.000 A 
ATOM     23  C   UNL     1     111.853 128.810 135.166  0.00  0.00    +0.000 A 
ATOM     24  C   UNL     1     111.040 128.679 135.133  0.00  0.00    +0.000 A 
ENDBRANCH   7  19
BRANCH   4  25
ATOM     25  O   UNL     1     111.839 128.040 137.801  0.00  0.00    +0.000 OA
BRANCH  25  34
ATOM     26  O   UNL     1     112.877 129.011 137.954  0.00  0.00    +0.000 OA
ATOM     27  O   UNL     1     111.407 130.350 139.428  0.00  0.00    +0.000 OA
ATOM     28  O   UNL     1     112.934 130.873 139.089  0.00  0.00    +0.000 OA
ATOM     29  O   UNL     1     110.859 128.933 138.784  0.00  0.00    +0.000 OA
ATOM     30  C   UNL     1     111.897 129.904 138.936  0.00  0.00    +0.000 C 
ATOM     31  C   UNL     1     112.661 130.165 138.767  0.00  0.00    +0.000 C 
ATOM     32  C   UNL     1     111.623 129.194 138.614  0.00  0.00    +0.000 C 
ATOM     33  C   UNL     1     113.151 129.718 138.276  0.00  0.00    +0.000 C 
ATOM     34  C   UNL     1     112.113 128.748 138.123  0.00  0.00    +0.000 C 
BRANCH  33  36
ATOM     35  O   UNL     1     114.071 130.361 137.391  0.00  0.00    +0.000 OA
ATOM     36  C   UNL     1     113.914 129.980 138.107  0.00  0.00    +0.000 C 
ENDBRANCH  33  36
ENDBRANCH  25  34
ENDBRANCH   4  25
TORSDOF 4
ENDMDL
MODEL 8
REMARK VINA RESULT:      -7.4      1.507      3.142
REMARK  Name = 101066655
REMARK  4 active torsions:
REMARK  status: ('A' for Active; 'I' for Inactive)
REMARK    1  A    between atoms: O_2  and  C_17
REMARK    2  A    between atoms: O_2  and  C_19
REMARK    3  A    between atoms: C_16  and  C_18
REMARK    4  A    between atoms: C_22  and  C_26
REMARK                            x       y       z     vdW  Elec       q    Type
REMARK                         _______ _______ _______ _____ _____    ______ ____
ROOT
ATOM      1  O   UNL     1     111.505 127.445 135.606  0.00  0.00    +0.000 OA
ATOM      2  O   UNL     1     111.088 124.651 136.125  0.00  0.00    +0.000 OA
ATOM      3  O   UNL     1     109.089 126.158 134.612  0.00  0.00    +0.000 OA
ATOM      4  C   UNL     1     112.473 126.695 136.344  0.00  0.00    +0.000 A 
ATOM      5  C   UNL     1     112.006 126.019 136.267  0.00  0.00    +0.000 A 
ATOM      6  C   UNL     1     111.290 126.055 135.860  0.00  0.00    +0.000 A 
ATOM      7  C   UNL     1     112.222 127.409 136.013  0.00  0.00    +0.000 A 
ATOM      8  C   UNL     1     111.040 126.768 135.530  0.00  0.00    +0.000 A 
ATOM      9  C   UNL     1     110.814 125.344 135.787  0.00  0.00    +0.000 A 
ATOM     10  C   UNL     1     112.256 125.312 136.595  0.00  0.00    +0.000 A 
ATOM     11  C   UNL     1     111.802 124.635 136.525  0.00  0.00    +0.000 A 
ATOM     12  C   UNL     1     110.295 126.820 135.103  0.00  0.00    +0.000 A 
ATOM     13  C   UNL     1     110.067 125.376 135.364  0.00  0.00    +0.000 A 
ATOM     14  C   UNL     1     109.805 126.119 135.020  0.00  0.00    +0.000 A 
ATOM     15  C   UNL     1     112.066 123.930 136.860  0.00  0.00    +0.000 C 
ENDROOT
BRANCH   7  19
ATOM     16  O   UNL     1     112.646 130.011 137.115  0.00  0.00    +0.000 OA
ATOM     17  O   UNL     1     114.598 128.861 135.372  0.00  0.00    +0.000 OA
ATOM     18  O   UNL     1     114.089 130.112 136.320  0.00  0.00    +0.000 OA
ATOM     19  C   UNL     1     112.688 128.085 136.091  0.00  0.00    +0.000 A 
ATOM     20  C   UNL     1     113.410 128.135 135.693  0.00  0.00    +0.000 A 
ATOM     21  C   UNL     1     112.433 128.710 136.564  0.00  0.00    +0.000 A 
ATOM     22  C   UNL     1     112.901 129.386 136.641  0.00  0.00    +0.000 A 
ATOM     23  C   UNL     1     113.876 128.811 135.770  0.00  0.00    +0.000 A 
ATOM     24  C   UNL     1     113.621 129.437 136.244  0.00  0.00    +0.000 A 
ENDBRANCH   7  19
BRANCH   4  25
ATOM     25  O   UNL     1     113.189 126.658 136.751  0.00  0.00    +0.000 OA
BRANCH  25  34
ATOM     26  O   UNL     1     112.521 126.791 138.007  0.00  0.00    +0.000 OA
ATOM     27  O   UNL     1     114.552 125.990 139.173  0.00  0.00    +0.000 OA
ATOM     28  O   UNL     1     113.207 126.389 140.039  0.00  0.00    +0.000 OA
ATOM     29  O   UNL     1     114.543 126.124 137.528  0.00  0.00    +0.000 OA
ATOM     30  C   UNL     1     113.875 126.257 138.784  0.00  0.00    +0.000 C 
ATOM     31  C   UNL     1     113.202 126.457 139.217  0.00  0.00    +0.000 C 
ATOM     32  C   UNL     1     113.870 126.324 137.961  0.00  0.00    +0.000 C 
ATOM     33  C   UNL     1     112.525 126.723 138.829  0.00  0.00    +0.000 C 
ATOM     34  C   UNL     1     113.193 126.591 137.573  0.00  0.00    +0.000 C 
BRANCH  33  36
ATOM     35  O   UNL     1     111.645 127.715 139.362  0.00  0.00    +0.000 OA
ATOM     36  C   UNL     1     111.853 126.923 139.262  0.00  0.00    +0.000 C 
ENDBRANCH  33  36
ENDBRANCH  25  34
ENDBRANCH   4  25
TORSDOF 4
ENDMDL
