MODEL 1
REMARK VINA RESULT:     -10.7      0.000      0.000
REMARK  Name = 44257750
REMARK  7 active torsions:
REMARK  status: ('A' for Active; 'I' for Inactive)
REMARK    1  A    between atoms: O_1  and  C_19
REMARK    2  A    between atoms: O_1  and  C_23
REMARK    3  A    between atoms: O_5  and  C_30
REMARK    4  A    between atoms: O_5  and  C_34
REMARK    5  A    between atoms: C_20  and  C_24
REMARK    6  A    between atoms: C_32  and  C_39
REMARK    7  A    between atoms: C_43  and  C_44
REMARK                            x       y       z     vdW  Elec       q    Type
REMARK                         _______ _______ _______ _____ _____    ______ ____
ROOT
ATOM      1  O   UNL     1     111.106 127.634 136.734  0.00  0.00    +0.000 OA
ATOM      2  O   UNL     1     113.556 129.168 136.869  0.00  0.00    +0.000 OA
ATOM      3  O   UNL     1     111.555 128.337 135.557  0.00  0.00    +0.000 OA
ATOM      4  C   UNL     1     111.849 127.684 137.954  0.00  0.00    +0.000 A 
ATOM      5  C   UNL     1     112.499 127.953 138.384  0.00  0.00    +0.000 A 
ATOM      6  C   UNL     1     111.757 127.903 137.164  0.00  0.00    +0.000 A 
ATOM      7  C   UNL     1     113.058 128.440 138.023  0.00  0.00    +0.000 A 
ATOM      8  C   UNL     1     112.316 128.390 136.804  0.00  0.00    +0.000 A 
ATOM      9  C   UNL     1     112.967 128.659 137.233  0.00  0.00    +0.000 A 
ATOM     10  C   UNL     1     112.210 128.611 135.980  0.00  0.00    +0.000 A 
ATOM     11  C   UNL     1     112.789 129.119 135.599  0.00  0.00    +0.000 A 
ATOM     12  C   UNL     1     113.467 129.399 136.047  0.00  0.00    +0.000 A 
ENDROOT
BRANCH   4  17
ATOM     13  O   UNL     1     110.604 127.522 138.638  0.00  0.00    +0.000 OA
ATOM     14  O   UNL     1     110.982 125.079 138.748  0.00  0.00    +0.000 OA
ATOM     15  O   UNL     1     109.612 125.732 139.396  0.00  0.00    +0.000 OA
ATOM     16  C   UNL     1     111.416 126.382 138.351  0.00  0.00    +0.000 C 
ATOM     17  C   UNL     1     111.289 127.196 138.314  0.00  0.00    +0.000 C 
ATOM     18  C   UNL     1     110.856 125.893 138.712  0.00  0.00    +0.000 C 
ATOM     19  C   UNL     1     110.171 126.220 139.035  0.00  0.00    +0.000 C 
ATOM     20  C   UNL     1     110.045 127.035 138.998  0.00  0.00    +0.000 C 
BRANCH  16  21
ATOM     21  O   UNL     1     112.101 126.055 138.027  0.00  0.00    +0.000 OA
BRANCH  21  26
ATOM     22  O   UNL     1     111.363 125.297 137.067  0.00  0.00    +0.000 OA
ATOM     23  O   UNL     1     113.365 125.004 137.886  0.00  0.00    +0.000 OA
ATOM     24  O   UNL     1     113.259 123.720 136.855  0.00  0.00    +0.000 OA
ATOM     25  O   UNL     1     111.889 123.487 135.965  0.00  0.00    +0.000 OA
ATOM     26  C   UNL     1     112.047 125.413 137.511  0.00  0.00    +0.000 C 
ATOM     27  C   UNL     1     112.679 124.888 137.441  0.00  0.00    +0.000 C 
ATOM     28  C   UNL     1     112.627 124.246 136.926  0.00  0.00    +0.000 C 
ATOM     29  C   UNL     1     111.941 124.129 136.480  0.00  0.00    +0.000 C 
ATOM     30  C   UNL     1     111.309 124.655 136.551  0.00  0.00    +0.000 C 
ENDBRANCH  21  26
ENDBRANCH  16  21
ENDBRANCH   4  17
BRANCH  12  32
ATOM     31  O   UNL     1     115.710 131.351 134.616  0.00  0.00    +0.000 OA
ATOM     32  C   UNL     1     114.028 129.887 135.689  0.00  0.00    +0.000 A 
ATOM     33  C   UNL     1     114.121 130.666 135.946  0.00  0.00    +0.000 A 
ATOM     34  C   UNL     1     114.495 129.597 135.074  0.00  0.00    +0.000 A 
ATOM     35  C   UNL     1     114.682 131.154 135.588  0.00  0.00    +0.000 A 
ATOM     36  C   UNL     1     115.056 130.085 134.716  0.00  0.00    +0.000 A 
ATOM     37  C   UNL     1     115.149 130.863 134.974  0.00  0.00    +0.000 A 
ENDBRANCH  12  32
BRANCH   5  38
ATOM     38  O   UNL     1     112.591 127.734 139.174  0.00  0.00    +0.000 OA
BRANCH  38  45
ATOM     39  O   UNL     1     112.592 128.985 139.864  0.00  0.00    +0.000 OA
ATOM     40  O   UNL     1     113.996 127.315 139.931  0.00  0.00    +0.000 OA
ATOM     41  O   UNL     1     114.700 128.357 140.999  0.00  0.00    +0.000 OA
ATOM     42  O   UNL     1     113.999 129.818 141.311  0.00  0.00    +0.000 OA
ATOM     43  C   UNL     1     113.645 128.045 140.086  0.00  0.00    +0.000 C 
ATOM     44  C   UNL     1     113.997 128.566 140.621  0.00  0.00    +0.000 C 
ATOM     45  C   UNL     1     112.942 128.254 139.708  0.00  0.00    +0.000 C 
ATOM     46  C   UNL     1     113.646 129.296 140.776  0.00  0.00    +0.000 C 
ATOM     47  C   UNL     1     112.944 129.506 140.398  0.00  0.00    +0.000 C 
BRANCH  47  49
ATOM     48  O   UNL     1     111.775 130.322 140.504  0.00  0.00    +0.000 OA
ATOM     49  C   UNL     1     112.594 130.237 140.554  0.00  0.00    +0.000 C 
ENDBRANCH  47  49
ENDBRANCH  38  45
ENDBRANCH   5  38
TORSDOF 7
ENDMDL
MODEL 2
REMARK VINA RESULT:     -10.6      1.258      4.286
REMARK  Name = 44257750
REMARK  7 active torsions:
REMARK  status: ('A' for Active; 'I' for Inactive)
REMARK    1  A    between atoms: O_1  and  C_19
REMARK    2  A    between atoms: O_1  and  C_23
REMARK    3  A    between atoms: O_5  and  C_30
REMARK    4  A    between atoms: O_5  and  C_34
REMARK    5  A    between atoms: C_20  and  C_24
REMARK    6  A    between atoms: C_32  and  C_39
REMARK    7  A    between atoms: C_43  and  C_44
REMARK                            x       y       z     vdW  Elec       q    Type
REMARK                         _______ _______ _______ _____ _____    ______ ____
ROOT
ATOM      1  O   UNL     1     112.994 126.197 139.488  0.00  0.00    +0.000 OA
ATOM      2  O   UNL     1     113.492 129.045 139.359  0.00  0.00    +0.000 OA
ATOM      3  O   UNL     1     113.654 126.842 140.598  0.00  0.00    +0.000 OA
ATOM      4  C   UNL     1     112.588 126.939 138.337  0.00  0.00    +0.000 A 
ATOM      5  C   UNL     1     112.534 127.655 137.930  0.00  0.00    +0.000 A 
ATOM      6  C   UNL     1     112.941 126.913 139.082  0.00  0.00    +0.000 A 
ATOM      7  C   UNL     1     112.833 128.345 138.270  0.00  0.00    +0.000 A 
ATOM      8  C   UNL     1     113.239 127.603 139.421  0.00  0.00    +0.000 A 
ATOM      9  C   UNL     1     113.185 128.319 139.016  0.00  0.00    +0.000 A 
ATOM     10  C   UNL     1     113.604 127.563 140.198  0.00  0.00    +0.000 A 
ATOM     11  C   UNL     1     113.917 128.279 140.558  0.00  0.00    +0.000 A 
ATOM     12  C   UNL     1     113.860 129.024 140.134  0.00  0.00    +0.000 A 
ENDROOT
BRANCH   4  17
ATOM     13  O   UNL     1     112.794 125.735 137.595  0.00  0.00    +0.000 OA
ATOM     14  O   UNL     1     110.384 125.207 137.782  0.00  0.00    +0.000 OA
ATOM     15  O   UNL     1     111.394 124.179 136.979  0.00  0.00    +0.000 OA
ATOM     16  C   UNL     1     111.486 126.073 138.060  0.00  0.00    +0.000 C 
ATOM     17  C   UNL     1     112.290 126.249 137.997  0.00  0.00    +0.000 C 
ATOM     18  C   UNL     1     111.187 125.383 137.720  0.00  0.00    +0.000 C 
ATOM     19  C   UNL     1     111.692 124.869 137.318  0.00  0.00    +0.000 C 
ATOM     20  C   UNL     1     112.496 125.045 137.256  0.00  0.00    +0.000 C 
BRANCH  16  21
ATOM     21  O   UNL     1     110.981 126.587 138.461  0.00  0.00    +0.000 OA
BRANCH  21  26
ATOM     22  O   UNL     1     110.682 125.631 139.480  0.00  0.00    +0.000 OA
ATOM     23  O   UNL     1     109.534 127.331 138.734  0.00  0.00    +0.000 OA
ATOM     24  O   UNL     1     108.511 126.747 139.889  0.00  0.00    +0.000 OA
ATOM     25  O   UNL     1     108.935 125.419 140.772  0.00  0.00    +0.000 OA
ATOM     26  C   UNL     1     110.470 126.294 139.039  0.00  0.00    +0.000 C 
ATOM     27  C   UNL     1     109.746 126.666 139.176  0.00  0.00    +0.000 C 
ATOM     28  C   UNL     1     109.234 126.375 139.753  0.00  0.00    +0.000 C 
ATOM     29  C   UNL     1     109.447 125.710 140.194  0.00  0.00    +0.000 C 
ATOM     30  C   UNL     1     110.170 125.338 140.058  0.00  0.00    +0.000 C 
ENDBRANCH  21  26
ENDBRANCH  16  21
ENDBRANCH   4  17
BRANCH  12  32
ATOM     31  O   UNL     1     115.050 131.791 141.483  0.00  0.00    +0.000 OA
ATOM     32  C   UNL     1     114.158 129.716 140.472  0.00  0.00    +0.000 A 
ATOM     33  C   UNL     1     113.708 130.132 141.024  0.00  0.00    +0.000 A 
ATOM     34  C   UNL     1     114.905 129.992 140.256  0.00  0.00    +0.000 A 
ATOM     35  C   UNL     1     114.005 130.824 141.361  0.00  0.00    +0.000 A 
ATOM     36  C   UNL     1     115.203 130.683 140.594  0.00  0.00    +0.000 A 
ATOM     37  C   UNL     1     114.752 131.099 141.146  0.00  0.00    +0.000 A 
ENDBRANCH  12  32
BRANCH   5  38
ATOM     38  O   UNL     1     112.182 127.681 137.185  0.00  0.00    +0.000 OA
BRANCH  38  45
ATOM     39  O   UNL     1     113.279 128.142 136.394  0.00  0.00    +0.000 OA
ATOM     40  O   UNL     1     111.189 128.770 136.443  0.00  0.00    +0.000 OA
ATOM     41  O   UNL     1     111.790 129.776 135.281  0.00  0.00    +0.000 OA
ATOM     42  O   UNL     1     113.383 129.692 134.861  0.00  0.00    +0.000 OA
ATOM     43  C   UNL     1     111.986 128.728 136.233  0.00  0.00    +0.000 C 
ATOM     44  C   UNL     1     112.286 129.231 135.652  0.00  0.00    +0.000 C 
ATOM     45  C   UNL     1     112.482 128.183 136.605  0.00  0.00    +0.000 C 
ATOM     46  C   UNL     1     113.083 129.189 135.443  0.00  0.00    +0.000 C 
ATOM     47  C   UNL     1     113.579 128.645 135.814  0.00  0.00    +0.000 C 
BRANCH  47  49
ATOM     48  O   UNL     1     114.734 127.871 135.483  0.00  0.00    +0.000 OA
ATOM     49  C   UNL     1     114.376 128.603 135.603  0.00  0.00    +0.000 C 
ENDBRANCH  47  49
ENDBRANCH  38  45
ENDBRANCH   5  38
TORSDOF 7
ENDMDL
MODEL 3
REMARK VINA RESULT:     -10.6      2.122      4.770
REMARK  Name = 44257750
REMARK  7 active torsions:
REMARK  status: ('A' for Active; 'I' for Inactive)
REMARK    1  A    between atoms: O_1  and  C_19
REMARK    2  A    between atoms: O_1  and  C_23
REMARK    3  A    between atoms: O_5  and  C_30
REMARK    4  A    between atoms: O_5  and  C_34
REMARK    5  A    between atoms: C_20  and  C_24
REMARK    6  A    between atoms: C_32  and  C_39
REMARK    7  A    between atoms: C_43  and  C_44
REMARK                            x       y       z     vdW  Elec       q    Type
REMARK                         _______ _______ _______ _____ _____    ______ ____
ROOT
ATOM      1  O   UNL     1     112.225 129.184 136.020  0.00  0.00    +0.000 OA
ATOM      2  O   UNL     1     112.042 126.725 137.534  0.00  0.00    +0.000 OA
ATOM      3  O   UNL     1     112.455 127.930 135.345  0.00  0.00    +0.000 OA
ATOM      4  C   UNL     1     111.912 129.227 137.414  0.00  0.00    +0.000 A 
ATOM      5  C   UNL     1     111.777 128.838 138.128  0.00  0.00    +0.000 A 
ATOM      6  C   UNL     1     112.091 128.794 136.735  0.00  0.00    +0.000 A 
ATOM      7  C   UNL     1     111.821 128.015 138.163  0.00  0.00    +0.000 A 
ATOM      8  C   UNL     1     112.134 127.971 136.770  0.00  0.00    +0.000 A 
ATOM      9  C   UNL     1     111.999 127.581 137.484  0.00  0.00    +0.000 A 
ATOM     10  C   UNL     1     112.321 127.531 136.056  0.00  0.00    +0.000 A 
ATOM     11  C   UNL     1     112.368 126.673 136.086  0.00  0.00    +0.000 A 
ATOM     12  C   UNL     1     112.227 126.268 136.830  0.00  0.00    +0.000 A 
ENDROOT
BRANCH   4  17
ATOM     13  O   UNL     1     112.553 130.504 137.454  0.00  0.00    +0.000 OA
ATOM     14  O   UNL     1     110.366 131.613 137.122  0.00  0.00    +0.000 OA
ATOM     15  O   UNL     1     111.736 132.519 137.273  0.00  0.00    +0.000 OA
ATOM     16  C   UNL     1     111.139 130.420 137.268  0.00  0.00    +0.000 C 
ATOM     17  C   UNL     1     111.868 130.051 137.379  0.00  0.00    +0.000 C 
ATOM     18  C   UNL     1     111.095 131.244 137.233  0.00  0.00    +0.000 C 
ATOM     19  C   UNL     1     111.780 131.697 137.308  0.00  0.00    +0.000 C 
ATOM     20  C   UNL     1     112.509 131.326 137.419  0.00  0.00    +0.000 C 
BRANCH  16  21
ATOM     21  O   UNL     1     110.454 129.967 137.192  0.00  0.00    +0.000 OA
BRANCH  21  26
ATOM     22  O   UNL     1     110.192 130.449 135.873  0.00  0.00    +0.000 OA
ATOM     23  O   UNL     1     108.852 129.618 137.382  0.00  0.00    +0.000 OA
ATOM     24  O   UNL     1     107.790 129.927 136.158  0.00  0.00    +0.000 OA
ATOM     25  O   UNL     1     108.329 130.584 134.743  0.00  0.00    +0.000 OA
ATOM     26  C   UNL     1     109.923 130.121 136.579  0.00  0.00    +0.000 C 
ATOM     27  C   UNL     1     109.122 129.947 136.674  0.00  0.00    +0.000 C 
ATOM     28  C   UNL     1     108.591 130.101 136.063  0.00  0.00    +0.000 C 
ATOM     29  C   UNL     1     108.861 130.430 135.355  0.00  0.00    +0.000 C 
ATOM     30  C   UNL     1     109.662 130.604 135.260  0.00  0.00    +0.000 C 
ENDBRANCH  21  26
ENDBRANCH  16  21
ENDBRANCH   4  17
BRANCH  12  32
ATOM     31  O   UNL     1     112.399 122.976 136.983  0.00  0.00    +0.000 OA
ATOM     32  C   UNL     1     112.270 125.445 136.869  0.00  0.00    +0.000 A 
ATOM     33  C   UNL     1     111.588 124.991 136.774  0.00  0.00    +0.000 A 
ATOM     34  C   UNL     1     112.996 125.075 137.002  0.00  0.00    +0.000 A 
ATOM     35  C   UNL     1     111.630 124.168 136.812  0.00  0.00    +0.000 A 
ATOM     36  C   UNL     1     113.039 124.252 137.040  0.00  0.00    +0.000 A 
ATOM     37  C   UNL     1     112.356 123.799 136.945  0.00  0.00    +0.000 A 
ENDBRANCH  12  32
BRANCH   5  38
ATOM     38  O   UNL     1     111.598 129.271 138.807  0.00  0.00    +0.000 OA
BRANCH  38  45
ATOM     39  O   UNL     1     112.678 128.914 139.673  0.00  0.00    +0.000 OA
ATOM     40  O   UNL     1     110.524 128.958 140.020  0.00  0.00    +0.000 OA
ATOM     41  O   UNL     1     111.066 128.446 141.491  0.00  0.00    +0.000 OA
ATOM     42  O   UNL     1     112.683 128.245 141.751  0.00  0.00    +0.000 OA
ATOM     43  C   UNL     1     111.332 128.858 140.149  0.00  0.00    +0.000 C 
ATOM     44  C   UNL     1     111.603 128.602 140.885  0.00  0.00    +0.000 C 
ATOM     45  C   UNL     1     111.870 129.015 139.543  0.00  0.00    +0.000 C 
ATOM     46  C   UNL     1     112.412 128.502 141.014  0.00  0.00    +0.000 C 
ATOM     47  C   UNL     1     112.949 128.658 140.408  0.00  0.00    +0.000 C 
BRANCH  47  49
ATOM     48  O   UNL     1     114.287 129.154 140.330  0.00  0.00    +0.000 OA
ATOM     49  C   UNL     1     113.758 128.558 140.539  0.00  0.00    +0.000 C 
ENDBRANCH  47  49
ENDBRANCH  38  45
ENDBRANCH   5  38
TORSDOF 7
ENDMDL
MODEL 4
REMARK VINA RESULT:     -10.5      2.389      4.634
REMARK  Name = 44257750
REMARK  7 active torsions:
REMARK  status: ('A' for Active; 'I' for Inactive)
REMARK    1  A    between atoms: O_1  and  C_19
REMARK    2  A    between atoms: O_1  and  C_23
REMARK    3  A    between atoms: O_5  and  C_30
REMARK    4  A    between atoms: O_5  and  C_34
REMARK    5  A    between atoms: C_20  and  C_24
REMARK    6  A    between atoms: C_32  and  C_39
REMARK    7  A    between atoms: C_43  and  C_44
REMARK                            x       y       z     vdW  Elec       q    Type
REMARK                         _______ _______ _______ _____ _____    ______ ____
ROOT
ATOM      1  O   UNL     1     111.761 129.747 138.072  0.00  0.00    +0.000 OA
ATOM      2  O   UNL     1     112.347 126.913 138.091  0.00  0.00    +0.000 OA
ATOM      3  O   UNL     1     112.984 129.282 137.464  0.00  0.00    +0.000 OA
ATOM      4  C   UNL     1     110.844 128.834 138.677  0.00  0.00    +0.000 A 
ATOM      5  C   UNL     1     110.633 128.063 138.883  0.00  0.00    +0.000 A 
ATOM      6  C   UNL     1     111.551 128.975 138.277  0.00  0.00    +0.000 A 
ATOM      7  C   UNL     1     111.130 127.435 138.688  0.00  0.00    +0.000 A 
ATOM      8  C   UNL     1     112.047 128.347 138.083  0.00  0.00    +0.000 A 
ATOM      9  C   UNL     1     111.837 127.576 138.288  0.00  0.00    +0.000 A 
ATOM     10  C   UNL     1     112.781 128.507 137.666  0.00  0.00    +0.000 A 
ATOM     11  C   UNL     1     113.304 127.856 137.460  0.00  0.00    +0.000 A 
ATOM     12  C   UNL     1     113.084 127.053 137.674  0.00  0.00    +0.000 A 
ENDROOT
BRANCH   4  17
ATOM     13  O   UNL     1     110.483 129.901 139.558  0.00  0.00    +0.000 OA
ATOM     14  O   UNL     1     108.580 130.474 138.083  0.00  0.00    +0.000 OA
ATOM     15  O   UNL     1     108.854 131.349 139.455  0.00  0.00    +0.000 OA
ATOM     16  C   UNL     1     109.712 129.654 138.380  0.00  0.00    +0.000 C 
ATOM     17  C   UNL     1     110.346 129.463 138.872  0.00  0.00    +0.000 C 
ATOM     18  C   UNL     1     109.214 130.283 138.575  0.00  0.00    +0.000 C 
ATOM     19  C   UNL     1     109.351 130.721 139.261  0.00  0.00    +0.000 C 
ATOM     20  C   UNL     1     109.986 130.529 139.752  0.00  0.00    +0.000 C 
BRANCH  16  21
ATOM     21  O   UNL     1     109.575 129.217 137.694  0.00  0.00    +0.000 OA
BRANCH  21  26
ATOM     22  O   UNL     1     109.814 130.339 136.843  0.00  0.00    +0.000 OA
ATOM     23  O   UNL     1     108.659 128.517 136.513  0.00  0.00    +0.000 OA
ATOM     24  O   UNL     1     108.441 129.289 135.072  0.00  0.00    +0.000 OA
ATOM     25  O   UNL     1     109.138 130.762 134.812  0.00  0.00    +0.000 OA
ATOM     26  C   UNL     1     109.466 129.604 136.974  0.00  0.00    +0.000 C 
ATOM     27  C   UNL     1     109.008 129.254 136.383  0.00  0.00    +0.000 C 
ATOM     28  C   UNL     1     108.899 129.639 135.662  0.00  0.00    +0.000 C 
ATOM     29  C   UNL     1     109.247 130.376 135.532  0.00  0.00    +0.000 C 
ATOM     30  C   UNL     1     109.705 130.726 136.123  0.00  0.00    +0.000 C 
ENDBRANCH  21  26
ENDBRANCH  16  21
ENDBRANCH   4  17
BRANCH  12  32
ATOM     31  O   UNL     1     115.065 124.530 136.902  0.00  0.00    +0.000 OA
ATOM     32  C   UNL     1     113.580 126.422 137.481  0.00  0.00    +0.000 A 
ATOM     33  C   UNL     1     113.966 126.003 138.077  0.00  0.00    +0.000 A 
ATOM     34  C   UNL     1     113.689 126.211 136.691  0.00  0.00    +0.000 A 
ATOM     35  C   UNL     1     114.461 125.372 137.885  0.00  0.00    +0.000 A 
ATOM     36  C   UNL     1     114.184 125.580 136.498  0.00  0.00    +0.000 A 
ATOM     37  C   UNL     1     114.570 125.161 137.095  0.00  0.00    +0.000 A 
ENDBRANCH  12  32
BRANCH   5  38
ATOM     38  O   UNL     1     109.925 127.921 139.283  0.00  0.00    +0.000 OA
BRANCH  38  45
ATOM     39  O   UNL     1     110.402 127.370 140.512  0.00  0.00    +0.000 OA
ATOM     40  O   UNL     1     108.833 126.691 139.155  0.00  0.00    +0.000 OA
ATOM     41  O   UNL     1     108.764 125.525 140.320  0.00  0.00    +0.000 OA
ATOM     42  O   UNL     1     109.787 125.588 141.613  0.00  0.00    +0.000 OA
ATOM     43  C   UNL     1     109.345 126.724 139.801  0.00  0.00    +0.000 C 
ATOM     44  C   UNL     1     109.310 126.140 140.384  0.00  0.00    +0.000 C 
ATOM     45  C   UNL     1     109.891 127.339 139.865  0.00  0.00    +0.000 C 
ATOM     46  C   UNL     1     109.822 126.172 141.030  0.00  0.00    +0.000 C 
ATOM     47  C   UNL     1     110.368 126.787 141.094  0.00  0.00    +0.000 C 
BRANCH  47  49
ATOM     48  O   UNL     1     110.979 127.524 142.155  0.00  0.00    +0.000 OA
ATOM     49  C   UNL     1     110.879 126.818 141.741  0.00  0.00    +0.000 C 
ENDBRANCH  47  49
ENDBRANCH  38  45
ENDBRANCH   5  38
TORSDOF 7
ENDMDL
MODEL 5
REMARK VINA RESULT:     -10.5      7.058      9.851
REMARK  Name = 44257750
REMARK  7 active torsions:
REMARK  status: ('A' for Active; 'I' for Inactive)
REMARK    1  A    between atoms: O_1  and  C_19
REMARK    2  A    between atoms: O_1  and  C_23
REMARK    3  A    between atoms: O_5  and  C_30
REMARK    4  A    between atoms: O_5  and  C_34
REMARK    5  A    between atoms: C_20  and  C_24
REMARK    6  A    between atoms: C_32  and  C_39
REMARK    7  A    between atoms: C_43  and  C_44
REMARK                            x       y       z     vdW  Elec       q    Type
REMARK                         _______ _______ _______ _____ _____    ______ ____
ROOT
ATOM      1  O   UNL     1     105.107 126.136 144.086  0.00  0.00    +0.000 OA
ATOM      2  O   UNL     1     106.990 126.344 146.274  0.00  0.00    +0.000 OA
ATOM      3  O   UNL     1     105.090 125.130 145.120  0.00  0.00    +0.000 OA
ATOM      4  C   UNL     1     106.033 127.223 144.128  0.00  0.00    +0.000 A 
ATOM      5  C   UNL     1     106.652 127.621 144.501  0.00  0.00    +0.000 A 
ATOM      6  C   UNL     1     105.726 126.533 144.460  0.00  0.00    +0.000 A 
ATOM      7  C   UNL     1     106.964 127.328 145.206  0.00  0.00    +0.000 A 
ATOM      8  C   UNL     1     106.038 126.241 145.165  0.00  0.00    +0.000 A 
ATOM      9  C   UNL     1     106.656 126.638 145.538  0.00  0.00    +0.000 A 
ATOM     10  C   UNL     1     105.710 125.522 145.501  0.00  0.00    +0.000 A 
ATOM     11  C   UNL     1     106.030 125.212 146.236  0.00  0.00    +0.000 A 
ATOM     12  C   UNL     1     106.675 125.626 146.625  0.00  0.00    +0.000 A 
ENDROOT
BRANCH   4  17
ATOM     13  O   UNL     1     105.050 127.996 143.435  0.00  0.00    +0.000 OA
ATOM     14  O   UNL     1     106.129 127.434 141.279  0.00  0.00    +0.000 OA
ATOM     15  O   UNL     1     104.787 128.393 141.305  0.00  0.00    +0.000 OA
ATOM     16  C   UNL     1     106.081 127.329 142.703  0.00  0.00    +0.000 C 
ATOM     17  C   UNL     1     105.721 127.516 143.422  0.00  0.00    +0.000 C 
ATOM     18  C   UNL     1     105.769 127.621 141.997  0.00  0.00    +0.000 C 
ATOM     19  C   UNL     1     105.098 128.101 142.010  0.00  0.00    +0.000 C 
ATOM     20  C   UNL     1     104.739 128.288 142.729  0.00  0.00    +0.000 C 
BRANCH  16  21
ATOM     21  O   UNL     1     106.752 126.849 142.691  0.00  0.00    +0.000 OA
BRANCH  21  26
ATOM     22  O   UNL     1     106.097 125.814 141.955  0.00  0.00    +0.000 OA
ATOM     23  O   UNL     1     108.209 126.343 142.105  0.00  0.00    +0.000 OA
ATOM     24  O   UNL     1     108.283 125.054 141.077  0.00  0.00    +0.000 OA
ATOM     25  O   UNL     1     106.899 124.272 140.634  0.00  0.00    +0.000 OA
ATOM     26  C   UNL     1     106.788 126.204 142.176  0.00  0.00    +0.000 C 
ATOM     27  C   UNL     1     107.517 125.951 141.883  0.00  0.00    +0.000 C 
ATOM     28  C   UNL     1     107.554 125.307 141.369  0.00  0.00    +0.000 C 
ATOM     29  C   UNL     1     106.861 124.916 141.148  0.00  0.00    +0.000 C 
ATOM     30  C   UNL     1     106.133 125.169 141.441  0.00  0.00    +0.000 C 
ENDBRANCH  21  26
ENDBRANCH  16  21
ENDBRANCH   4  17
BRANCH  12  32
ATOM     31  O   UNL     1     107.929 124.465 149.447  0.00  0.00    +0.000 OA
ATOM     32  C   UNL     1     106.989 125.336 147.330  0.00  0.00    +0.000 A 
ATOM     33  C   UNL     1     106.486 125.135 147.953  0.00  0.00    +0.000 A 
ATOM     34  C   UNL     1     107.805 125.247 147.413  0.00  0.00    +0.000 A 
ATOM     35  C   UNL     1     106.799 124.845 148.659  0.00  0.00    +0.000 A 
ATOM     36  C   UNL     1     108.118 124.957 148.119  0.00  0.00    +0.000 A 
ATOM     37  C   UNL     1     107.615 124.756 148.742  0.00  0.00    +0.000 A 
ENDBRANCH  12  32
BRANCH   5  38
ATOM     38  O   UNL     1     106.959 128.311 144.169  0.00  0.00    +0.000 OA
BRANCH  38  45
ATOM     39  O   UNL     1     106.677 129.274 145.185  0.00  0.00    +0.000 OA
ATOM     40  O   UNL     1     108.515 128.855 144.085  0.00  0.00    +0.000 OA
ATOM     41  O   UNL     1     109.010 130.090 145.061  0.00  0.00    +0.000 OA
ATOM     42  O   UNL     1     107.950 130.782 146.119  0.00  0.00    +0.000 OA
ATOM     43  C   UNL     1     107.984 129.200 144.614  0.00  0.00    +0.000 C 
ATOM     44  C   UNL     1     108.232 129.818 145.102  0.00  0.00    +0.000 C 
ATOM     45  C   UNL     1     107.207 128.928 144.656  0.00  0.00    +0.000 C 
ATOM     46  C   UNL     1     107.702 130.164 145.631  0.00  0.00    +0.000 C 
ATOM     47  C   UNL     1     106.924 129.892 145.673  0.00  0.00    +0.000 C 
BRANCH  47  49
ATOM     48  O   UNL     1     105.617 130.385 145.972  0.00  0.00    +0.000 OA
ATOM     49  C   UNL     1     106.394 130.238 146.202  0.00  0.00    +0.000 C 
ENDBRANCH  47  49
ENDBRANCH  38  45
ENDBRANCH   5  38
TORSDOF 7
ENDMDL
MODEL 6
REMARK VINA RESULT:     -10.4      2.266      4.120
REMARK  Name = 44257750
REMARK  7 active torsions:
REMARK  status: ('A' for Active; 'I' for Inactive)
REMARK    1  A    between atoms: O_1  and  C_19
REMARK    2  A    between atoms: O_1  and  C_23
REMARK    3  A    between atoms: O_5  and  C_30
REMARK    4  A    between atoms: O_5  and  C_34
REMARK    5  A    between atoms: C_20  and  C_24
REMARK    6  A    between atoms: C_32  and  C_39
REMARK    7  A    between atoms: C_43  and  C_44
REMARK                            x       y       z     vdW  Elec       q    Type
REMARK                         _______ _______ _______ _____ _____    ______ ____
ROOT
ATOM      1  O   UNL     1     110.068 127.619 138.112  0.00  0.00    +0.000 OA
ATOM      2  O   UNL     1     112.929 127.237 137.900  0.00  0.00    +0.000 OA
ATOM      3  O   UNL     1     110.569 126.403 137.518  0.00  0.00    +0.000 OA
ATOM      4  C   UNL     1     110.960 128.628 138.593  0.00  0.00    +0.000 A 
ATOM      5  C   UNL     1     111.727 128.902 138.718  0.00  0.00    +0.000 A 
ATOM      6  C   UNL     1     110.837 127.893 138.238  0.00  0.00    +0.000 A 
ATOM      7  C   UNL     1     112.372 128.442 138.489  0.00  0.00    +0.000 A 
ATOM      8  C   UNL     1     111.481 127.433 138.009  0.00  0.00    +0.000 A 
ATOM      9  C   UNL     1     112.249 127.707 138.134  0.00  0.00    +0.000 A 
ATOM     10  C   UNL     1     111.341 126.670 137.640  0.00  0.00    +0.000 A 
ATOM     11  C   UNL     1     112.009 126.185 137.399  0.00  0.00    +0.000 A 
ATOM     12  C   UNL     1     112.808 126.471 137.530  0.00  0.00    +0.000 A 
ENDROOT
BRANCH   4  17
ATOM     13  O   UNL     1     109.953 128.958 139.553  0.00  0.00    +0.000 OA
ATOM     14  O   UNL     1     109.101 130.730 138.049  0.00  0.00    +0.000 OA
ATOM     15  O   UNL     1     108.380 130.470 139.509  0.00  0.00    +0.000 OA
ATOM     16  C   UNL     1     110.030 129.679 138.321  0.00  0.00    +0.000 C 
ATOM     17  C   UNL     1     110.314 129.088 138.822  0.00  0.00    +0.000 C 
ATOM     18  C   UNL     1     109.385 130.140 138.550  0.00  0.00    +0.000 C 
ATOM     19  C   UNL     1     109.024 130.010 139.281  0.00  0.00    +0.000 C 
ATOM     20  C   UNL     1     109.309 129.419 139.781  0.00  0.00    +0.000 C 
BRANCH  16  21
ATOM     21  O   UNL     1     110.391 129.809 137.590  0.00  0.00    +0.000 OA
BRANCH  21  26
ATOM     22  O   UNL     1     109.216 129.462 136.856  0.00  0.00    +0.000 OA
ATOM     23  O   UNL     1     110.904 130.741 136.329  0.00  0.00    +0.000 OA
ATOM     24  O   UNL     1     109.984 130.860 134.964  0.00  0.00    +0.000 OA
ATOM     25  O   UNL     1     108.552 130.047 134.860  0.00  0.00    +0.000 OA
ATOM     26  C   UNL     1     109.931 129.868 136.908  0.00  0.00    +0.000 C 
ATOM     27  C   UNL     1     110.187 130.334 136.277  0.00  0.00    +0.000 C 
ATOM     28  C   UNL     1     109.728 130.394 135.595  0.00  0.00    +0.000 C 
ATOM     29  C   UNL     1     109.011 129.987 135.543  0.00  0.00    +0.000 C 
ATOM     30  C   UNL     1     108.755 129.521 136.174  0.00  0.00    +0.000 C 
ENDBRANCH  21  26
ENDBRANCH  16  21
ENDBRANCH   4  17
BRANCH  12  32
ATOM     31  O   UNL     1     115.396 124.638 136.617  0.00  0.00    +0.000 OA
ATOM     32  C   UNL     1     113.455 126.013 137.301  0.00  0.00    +0.000 A 
ATOM     33  C   UNL     1     113.822 125.515 137.848  0.00  0.00    +0.000 A 
ATOM     34  C   UNL     1     113.736 126.052 136.526  0.00  0.00    +0.000 A 
ATOM     35  C   UNL     1     114.468 125.057 137.620  0.00  0.00    +0.000 A 
ATOM     36  C   UNL     1     114.383 125.594 136.298  0.00  0.00    +0.000 A 
ATOM     37  C   UNL     1     114.749 125.096 136.845  0.00  0.00    +0.000 A 
ENDBRANCH  12  32
BRANCH   5  38
ATOM     38  O   UNL     1     111.850 129.637 139.073  0.00  0.00    +0.000 OA
BRANCH  38  45
ATOM     39  O   UNL     1     112.571 129.283 140.255  0.00  0.00    +0.000 OA
ATOM     40  O   UNL     1     112.978 130.791 138.731  0.00  0.00    +0.000 OA
ATOM     41  O   UNL     1     114.263 131.014 139.742  0.00  0.00    +0.000 OA
ATOM     42  O   UNL     1     114.420 130.083 141.095  0.00  0.00    +0.000 OA
ATOM     43  C   UNL     1     113.056 130.325 139.407  0.00  0.00    +0.000 C 
ATOM     44  C   UNL     1     113.699 130.437 139.913  0.00  0.00    +0.000 C 
ATOM     45  C   UNL     1     112.492 129.748 139.578  0.00  0.00    +0.000 C 
ATOM     46  C   UNL     1     113.777 129.971 140.589  0.00  0.00    +0.000 C 
ATOM     47  C   UNL     1     113.212 129.394 140.761  0.00  0.00    +0.000 C 
BRANCH  47  49
ATOM     48  O   UNL     1     112.627 128.738 141.887  0.00  0.00    +0.000 OA
ATOM     49  C   UNL     1     113.291 128.929 141.438  0.00  0.00    +0.000 C 
ENDBRANCH  47  49
ENDBRANCH  38  45
ENDBRANCH   5  38
TORSDOF 7
ENDMDL
MODEL 7
REMARK VINA RESULT:     -10.4      1.647      5.517
REMARK  Name = 44257750
REMARK  7 active torsions:
REMARK  status: ('A' for Active; 'I' for Inactive)
REMARK    1  A    between atoms: O_1  and  C_19
REMARK    2  A    between atoms: O_1  and  C_23
REMARK    3  A    between atoms: O_5  and  C_30
REMARK    4  A    between atoms: O_5  and  C_34
REMARK    5  A    between atoms: C_20  and  C_24
REMARK    6  A    between atoms: C_32  and  C_39
REMARK    7  A    between atoms: C_43  and  C_44
REMARK                            x       y       z     vdW  Elec       q    Type
REMARK                         _______ _______ _______ _____ _____    ______ ____
ROOT
ATOM      1  O   UNL     1     114.027 128.139 140.750  0.00  0.00    +0.000 OA
ATOM      2  O   UNL     1     112.791 127.226 138.297  0.00  0.00    +0.000 OA
ATOM      3  O   UNL     1     113.999 126.725 140.465  0.00  0.00    +0.000 OA
ATOM      4  C   UNL     1     113.457 129.086 139.844  0.00  0.00    +0.000 A 
ATOM      5  C   UNL     1     113.063 129.253 139.139  0.00  0.00    +0.000 A 
ATOM      6  C   UNL     1     113.633 128.305 140.044  0.00  0.00    +0.000 A 
ATOM      7  C   UNL     1     112.846 128.638 138.633  0.00  0.00    +0.000 A 
ATOM      8  C   UNL     1     113.416 127.691 139.538  0.00  0.00    +0.000 A 
ATOM      9  C   UNL     1     113.023 127.857 138.833  0.00  0.00    +0.000 A 
ATOM     10  C   UNL     1     113.605 126.882 139.757  0.00  0.00    +0.000 A 
ATOM     11  C   UNL     1     113.382 126.237 139.234  0.00  0.00    +0.000 A 
ATOM     12  C   UNL     1     112.972 126.411 138.499  0.00  0.00    +0.000 A 
ENDROOT
BRANCH   4  17
ATOM     13  O   UNL     1     114.440 130.006 140.324  0.00  0.00    +0.000 OA
ATOM     14  O   UNL     1     112.793 130.932 141.922  0.00  0.00    +0.000 OA
ATOM     15  O   UNL     1     114.325 131.543 141.868  0.00  0.00    +0.000 OA
ATOM     16  C   UNL     1     113.125 130.009 140.883  0.00  0.00    +0.000 C 
ATOM     17  C   UNL     1     113.674 129.701 140.350  0.00  0.00    +0.000 C 
ATOM     18  C   UNL     1     113.342 130.624 141.389  0.00  0.00    +0.000 C 
ATOM     19  C   UNL     1     114.108 130.929 141.362  0.00  0.00    +0.000 C 
ATOM     20  C   UNL     1     114.657 130.620 140.829  0.00  0.00    +0.000 C 
BRANCH  16  21
ATOM     21  O   UNL     1     112.359 129.703 140.910  0.00  0.00    +0.000 OA
BRANCH  21  26
ATOM     22  O   UNL     1     112.522 129.211 142.241  0.00  0.00    +0.000 OA
ATOM     23  O   UNL     1     110.725 129.765 141.132  0.00  0.00    +0.000 OA
ATOM     24  O   UNL     1     110.071 129.303 142.575  0.00  0.00    +0.000 OA
ATOM     25  O   UNL     1     111.051 128.780 143.796  0.00  0.00    +0.000 OA
ATOM     26  C   UNL     1     112.033 129.473 141.632  0.00  0.00    +0.000 C 
ATOM     27  C   UNL     1     111.216 129.503 141.743  0.00  0.00    +0.000 C 
ATOM     28  C   UNL     1     110.888 129.273 142.464  0.00  0.00    +0.000 C 
ATOM     29  C   UNL     1     111.379 129.011 143.075  0.00  0.00    +0.000 C 
ATOM     30  C   UNL     1     112.196 128.980 142.963  0.00  0.00    +0.000 C 
ENDBRANCH  21  26
ENDBRANCH  16  21
ENDBRANCH   4  17
BRANCH  12  32
ATOM     31  O   UNL     1     112.097 123.962 136.468  0.00  0.00    +0.000 OA
ATOM     32  C   UNL     1     112.753 125.799 137.991  0.00  0.00    +0.000 A 
ATOM     33  C   UNL     1     111.992 125.484 138.029  0.00  0.00    +0.000 A 
ATOM     34  C   UNL     1     113.296 125.502 137.446  0.00  0.00    +0.000 A 
ATOM     35  C   UNL     1     111.773 124.871 137.521  0.00  0.00    +0.000 A 
ATOM     36  C   UNL     1     113.078 124.889 136.938  0.00  0.00    +0.000 A 
ATOM     37  C   UNL     1     112.316 124.574 136.976  0.00  0.00    +0.000 A 
ENDBRANCH  12  32
BRANCH   5  38
ATOM     38  O   UNL     1     112.887 130.034 138.939  0.00  0.00    +0.000 OA
BRANCH  38  45
ATOM     39  O   UNL     1     113.586 130.163 137.700  0.00  0.00    +0.000 OA
ATOM     40  O   UNL     1     111.552 130.724 138.258  0.00  0.00    +0.000 OA
ATOM     41  O   UNL     1     111.584 131.198 136.678  0.00  0.00    +0.000 OA
ATOM     42  O   UNL     1     112.950 130.983 135.779  0.00  0.00    +0.000 OA
ATOM     43  C   UNL     1     112.235 130.616 137.809  0.00  0.00    +0.000 C 
ATOM     44  C   UNL     1     112.251 130.853 137.018  0.00  0.00    +0.000 C 
ATOM     45  C   UNL     1     112.903 130.271 138.150  0.00  0.00    +0.000 C 
ATOM     46  C   UNL     1     112.935 130.745 136.570  0.00  0.00    +0.000 C 
ATOM     47  C   UNL     1     113.602 130.400 136.910  0.00  0.00    +0.000 C 
BRANCH  47  49
ATOM     48  O   UNL     1     115.017 130.530 136.757  0.00  0.00    +0.000 OA
ATOM     49  C   UNL     1     114.286 130.293 136.460  0.00  0.00    +0.000 C 
ENDBRANCH  47  49
ENDBRANCH  38  45
ENDBRANCH   5  38
TORSDOF 7
ENDMDL
MODEL 8
REMARK VINA RESULT:     -10.4      2.377      2.961
REMARK  Name = 44257750
REMARK  7 active torsions:
REMARK  status: ('A' for Active; 'I' for Inactive)
REMARK    1  A    between atoms: O_1  and  C_19
REMARK    2  A    between atoms: O_1  and  C_23
REMARK    3  A    between atoms: O_5  and  C_30
REMARK    4  A    between atoms: O_5  and  C_34
REMARK    5  A    between atoms: C_20  and  C_24
REMARK    6  A    between atoms: C_32  and  C_39
REMARK    7  A    between atoms: C_43  and  C_44
REMARK                            x       y       z     vdW  Elec       q    Type
REMARK                         _______ _______ _______ _____ _____    ______ ____
ROOT
ATOM      1  O   UNL     1     109.825 128.487 139.312  0.00  0.00    +0.000 OA
ATOM      2  O   UNL     1     111.206 130.910 138.541  0.00  0.00    +0.000 OA
ATOM      3  O   UNL     1     109.152 129.432 138.454  0.00  0.00    +0.000 OA
ATOM      4  C   UNL     1     111.152 128.730 139.781  0.00  0.00    +0.000 A 
ATOM      5  C   UNL     1     111.823 129.209 139.812  0.00  0.00    +0.000 A 
ATOM      6  C   UNL     1     110.495 128.967 139.342  0.00  0.00    +0.000 A 
ATOM      7  C   UNL     1     111.836 129.925 139.403  0.00  0.00    +0.000 A 
ATOM      8  C   UNL     1     110.509 129.682 138.933  0.00  0.00    +0.000 A 
ATOM      9  C   UNL     1     111.179 130.161 138.963  0.00  0.00    +0.000 A 
ATOM     10  C   UNL     1     109.819 129.918 138.479  0.00  0.00    +0.000 A 
ATOM     11  C   UNL     1     109.827 130.663 138.050  0.00  0.00    +0.000 A 
ATOM     12  C   UNL     1     110.526 131.162 138.082  0.00  0.00    +0.000 A 
ENDROOT
BRANCH   4  17
ATOM     13  O   UNL     1     110.813 127.977 140.948  0.00  0.00    +0.000 OA
ATOM     14  O   UNL     1     111.748 125.937 139.903  0.00  0.00    +0.000 OA
ATOM     15  O   UNL     1     111.098 125.865 141.418  0.00  0.00    +0.000 OA
ATOM     16  C   UNL     1     111.450 127.334 139.842  0.00  0.00    +0.000 C 
ATOM     17  C   UNL     1     111.138 128.013 140.191  0.00  0.00    +0.000 C 
ATOM     18  C   UNL     1     111.436 126.617 140.252  0.00  0.00    +0.000 C 
ATOM     19  C   UNL     1     111.111 126.580 141.009  0.00  0.00    +0.000 C 
ATOM     20  C   UNL     1     110.800 127.261 141.357  0.00  0.00    +0.000 C 
BRANCH  16  21
ATOM     21  O   UNL     1     111.775 127.370 139.085  0.00  0.00    +0.000 OA
BRANCH  21  26
ATOM     22  O   UNL     1     110.807 126.473 138.538  0.00  0.00    +0.000 OA
ATOM     23  O   UNL     1     112.842 126.939 137.903  0.00  0.00    +0.000 OA
ATOM     24  O   UNL     1     112.408 125.826 136.764  0.00  0.00    +0.000 OA
ATOM     25  O   UNL     1     110.906 125.144 136.808  0.00  0.00    +0.000 OA
ATOM     26  C   UNL     1     111.557 126.813 138.516  0.00  0.00    +0.000 C 
ATOM     27  C   UNL     1     112.091 126.598 137.925  0.00  0.00    +0.000 C 
ATOM     28  C   UNL     1     111.874 126.042 137.355  0.00  0.00    +0.000 C 
ATOM     29  C   UNL     1     111.122 125.701 137.377  0.00  0.00    +0.000 C 
ATOM     30  C   UNL     1     110.589 125.916 137.969  0.00  0.00    +0.000 C 
ENDBRANCH  21  26
ENDBRANCH  16  21
ENDBRANCH   4  17
BRANCH  12  32
ATOM     31  O   UNL     1     110.592 134.029 136.448  0.00  0.00    +0.000 OA
ATOM     32  C   UNL     1     110.542 131.879 137.674  0.00  0.00    +0.000 A 
ATOM     33  C   UNL     1     110.913 131.926 136.938  0.00  0.00    +0.000 A 
ATOM     34  C   UNL     1     110.188 132.548 138.001  0.00  0.00    +0.000 A 
ATOM     35  C   UNL     1     110.930 132.642 136.530  0.00  0.00    +0.000 A 
ATOM     36  C   UNL     1     110.205 133.265 137.592  0.00  0.00    +0.000 A 
ATOM     37  C   UNL     1     110.576 133.312 136.857  0.00  0.00    +0.000 A 
ENDBRANCH  12  32
BRANCH   5  38
ATOM     38  O   UNL     1     112.480 128.972 140.251  0.00  0.00    +0.000 OA
BRANCH  38  45
ATOM     39  O   UNL     1     112.627 130.017 141.215  0.00  0.00    +0.000 OA
ATOM     40  O   UNL     1     114.065 129.140 139.827  0.00  0.00    +0.000 OA
ATOM     41  O   UNL     1     115.005 130.269 140.578  0.00  0.00    +0.000 OA
ATOM     42  O   UNL     1     114.360 131.230 141.754  0.00  0.00    +0.000 OA
ATOM     43  C   UNL     1     113.742 129.620 140.415  0.00  0.00    +0.000 C 
ATOM     44  C   UNL     1     114.213 130.185 140.791  0.00  0.00    +0.000 C 
ATOM     45  C   UNL     1     112.949 129.536 140.627  0.00  0.00    +0.000 C 
ATOM     46  C   UNL     1     113.889 130.665 141.378  0.00  0.00    +0.000 C 
ATOM     47  C   UNL     1     113.097 130.581 141.591  0.00  0.00    +0.000 C 
BRANCH  47  49
ATOM     48  O   UNL     1     112.275 130.737 142.749  0.00  0.00    +0.000 OA
ATOM     49  C   UNL     1     112.775 131.061 142.179  0.00  0.00    +0.000 C 
ENDBRANCH  47  49
ENDBRANCH  38  45
ENDBRANCH   5  38
TORSDOF 7
ENDMDL
MODEL 9
REMARK VINA RESULT:     -10.3      1.933      3.212
REMARK  Name = 44257750
REMARK  7 active torsions:
REMARK  status: ('A' for Active; 'I' for Inactive)
REMARK    1  A    between atoms: O_1  and  C_19
REMARK    2  A    between atoms: O_1  and  C_23
REMARK    3  A    between atoms: O_5  and  C_30
REMARK    4  A    between atoms: O_5  and  C_34
REMARK    5  A    between atoms: C_20  and  C_24
REMARK    6  A    between atoms: C_32  and  C_39
REMARK    7  A    between atoms: C_43  and  C_44
REMARK                            x       y       z     vdW  Elec       q    Type
REMARK                         _______ _______ _______ _____ _____    ______ ____
ROOT
ATOM      1  O   UNL     1     112.088 127.697 138.679  0.00  0.00    +0.000 OA
ATOM      2  O   UNL     1     112.512 129.656 136.591  0.00  0.00    +0.000 OA
ATOM      3  O   UNL     1     113.433 128.139 138.398  0.00  0.00    +0.000 OA
ATOM      4  C   UNL     1     110.974 128.210 137.947  0.00  0.00    +0.000 A 
ATOM      5  C   UNL     1     110.670 128.703 137.359  0.00  0.00    +0.000 A 
ATOM      6  C   UNL     1     111.786 128.191 138.091  0.00  0.00    +0.000 A 
ATOM      7  C   UNL     1     111.180 129.177 136.916  0.00  0.00    +0.000 A 
ATOM      8  C   UNL     1     112.294 128.665 137.648  0.00  0.00    +0.000 A 
ATOM      9  C   UNL     1     111.992 129.158 137.060  0.00  0.00    +0.000 A 
ATOM     10  C   UNL     1     113.138 128.636 137.807  0.00  0.00    +0.000 A 
ATOM     11  C   UNL     1     113.674 129.127 137.349  0.00  0.00    +0.000 A 
ATOM     12  C   UNL     1     113.358 129.641 136.737  0.00  0.00    +0.000 A 
ENDROOT
BRANCH   4  17
ATOM     13  O   UNL     1     110.198 127.993 139.128  0.00  0.00    +0.000 OA
ATOM     14  O   UNL     1     109.468 125.800 138.245  0.00  0.00    +0.000 OA
ATOM     15  O   UNL     1     108.937 126.314 139.720  0.00  0.00    +0.000 OA
ATOM     16  C   UNL     1     110.221 127.005 138.096  0.00  0.00    +0.000 C 
ATOM     17  C   UNL     1     110.464 127.736 138.391  0.00  0.00    +0.000 C 
ATOM     18  C   UNL     1     109.711 126.531 138.540  0.00  0.00    +0.000 C 
ATOM     19  C   UNL     1     109.445 126.788 139.277  0.00  0.00    +0.000 C 
ATOM     20  C   UNL     1     109.690 127.519 139.571  0.00  0.00    +0.000 C 
BRANCH  16  21
ATOM     21  O   UNL     1     110.486 126.748 137.358  0.00  0.00    +0.000 OA
BRANCH  21  26
ATOM     22  O   UNL     1     111.184 125.639 137.929  0.00  0.00    +0.000 OA
ATOM     23  O   UNL     1     110.444 125.972 135.903  0.00  0.00    +0.000 OA
ATOM     24  O   UNL     1     111.121 124.475 135.746  0.00  0.00    +0.000 OA
ATOM     25  O   UNL     1     111.840 123.755 137.044  0.00  0.00    +0.000 OA
ATOM     26  C   UNL     1     110.825 125.999 137.280  0.00  0.00    +0.000 C 
ATOM     27  C   UNL     1     110.804 125.611 136.553  0.00  0.00    +0.000 C 
ATOM     28  C   UNL     1     111.142 124.863 136.473  0.00  0.00    +0.000 C 
ATOM     29  C   UNL     1     111.502 124.503 137.123  0.00  0.00    +0.000 C 
ATOM     30  C   UNL     1     111.523 124.891 137.851  0.00  0.00    +0.000 C 
ENDBRANCH  21  26
ENDBRANCH  16  21
ENDBRANCH   4  17
BRANCH  12  32
ATOM     31  O   UNL     1     115.386 131.542 134.957  0.00  0.00    +0.000 OA
ATOM     32  C   UNL     1     113.865 130.116 136.292  0.00  0.00    +0.000 A 
ATOM     33  C   UNL     1     114.004 130.897 136.519  0.00  0.00    +0.000 A 
ATOM     34  C   UNL     1     114.233 129.810 135.619  0.00  0.00    +0.000 A 
ATOM     35  C   UNL     1     114.511 131.372 136.074  0.00  0.00    +0.000 A 
ATOM     36  C   UNL     1     114.740 130.285 135.174  0.00  0.00    +0.000 A 
ATOM     37  C   UNL     1     114.879 131.066 135.402  0.00  0.00    +0.000 A 
ENDBRANCH  12  32
BRANCH   5  38
ATOM     38  O   UNL     1     109.858 128.723 137.215  0.00  0.00    +0.000 OA
BRANCH  38  45
ATOM     39  O   UNL     1     109.570 130.083 137.545  0.00  0.00    +0.000 OA
ATOM     40  O   UNL     1     108.952 128.864 135.843  0.00  0.00    +0.000 OA
ATOM     41  O   UNL     1     108.212 130.295 135.488  0.00  0.00    +0.000 OA
ATOM     42  O   UNL     1     108.377 131.585 136.504  0.00  0.00    +0.000 OA
ATOM     43  C   UNL     1     109.035 129.508 136.352  0.00  0.00    +0.000 C 
ATOM     44  C   UNL     1     108.665 130.224 136.174  0.00  0.00    +0.000 C 
ATOM     45  C   UNL     1     109.488 129.438 137.038  0.00  0.00    +0.000 C 
ATOM     46  C   UNL     1     108.747 130.869 136.682  0.00  0.00    +0.000 C 
ATOM     47  C   UNL     1     109.200 130.798 137.368  0.00  0.00    +0.000 C 
BRANCH  47  49
ATOM     48  O   UNL     1     109.161 131.349 138.686  0.00  0.00    +0.000 OA
ATOM     49  C   UNL     1     109.283 131.443 137.876  0.00  0.00    +0.000 C 
ENDBRANCH  47  49
ENDBRANCH  38  45
ENDBRANCH   5  38
TORSDOF 7
ENDMDL
MODEL 10
REMARK VINA RESULT:     -10.2      2.430      5.116
REMARK  Name = 44257750
REMARK  7 active torsions:
REMARK  status: ('A' for Active; 'I' for Inactive)
REMARK    1  A    between atoms: O_1  and  C_19
REMARK    2  A    between atoms: O_1  and  C_23
REMARK    3  A    between atoms: O_5  and  C_30
REMARK    4  A    between atoms: O_5  and  C_34
REMARK    5  A    between atoms: C_20  and  C_24
REMARK    6  A    between atoms: C_32  and  C_39
REMARK    7  A    between atoms: C_43  and  C_44
REMARK                            x       y       z     vdW  Elec       q    Type
REMARK                         _______ _______ _______ _____ _____    ______ ____
ROOT
ATOM      1  O   UNL     1     113.166 128.636 138.303  0.00  0.00    +0.000 OA
ATOM      2  O   UNL     1     110.320 129.157 138.227  0.00  0.00    +0.000 OA
ATOM      3  O   UNL     1     112.613 129.330 137.165  0.00  0.00    +0.000 OA
ATOM      4  C   UNL     1     112.334 128.206 139.382  0.00  0.00    +0.000 A 
ATOM      5  C   UNL     1     111.589 128.148 139.731  0.00  0.00    +0.000 A 
ATOM      6  C   UNL     1     112.420 128.578 138.651  0.00  0.00    +0.000 A 
ATOM      7  C   UNL     1     110.930 128.462 139.348  0.00  0.00    +0.000 A 
ATOM      8  C   UNL     1     111.760 128.892 138.268  0.00  0.00    +0.000 A 
ATOM      9  C   UNL     1     111.015 128.834 138.616  0.00  0.00    +0.000 A 
ATOM     10  C   UNL     1     111.862 129.277 137.507  0.00  0.00    +0.000 A 
ATOM     11  C   UNL     1     111.179 129.606 137.102  0.00  0.00    +0.000 A 
ATOM     12  C   UNL     1     110.402 129.545 137.466  0.00  0.00    +0.000 A 
ENDROOT
BRANCH   4  17
ATOM     13  O   UNL     1     113.263 127.136 139.573  0.00  0.00    +0.000 OA
ATOM     14  O   UNL     1     114.437 128.463 141.301  0.00  0.00    +0.000 OA
ATOM     15  O   UNL     1     114.973 126.951 140.915  0.00  0.00    +0.000 OA
ATOM     16  C   UNL     1     113.385 128.335 140.341  0.00  0.00    +0.000 C 
ATOM     17  C   UNL     1     112.994 127.892 139.766  0.00  0.00    +0.000 C 
ATOM     18  C   UNL     1     114.046 128.021 140.725  0.00  0.00    +0.000 C 
ATOM     19  C   UNL     1     114.314 127.265 140.532  0.00  0.00    +0.000 C 
ATOM     20  C   UNL     1     113.922 126.823 139.956  0.00  0.00    +0.000 C 
BRANCH  16  21
ATOM     21  O   UNL     1     113.117 129.091 140.534  0.00  0.00    +0.000 OA
BRANCH  21  26
ATOM     22  O   UNL     1     114.317 129.746 140.119  0.00  0.00    +0.000 OA
ATOM     23  O   UNL     1     112.867 130.266 141.665  0.00  0.00    +0.000 OA
ATOM     24  O   UNL     1     113.941 131.509 141.815  0.00  0.00    +0.000 OA
ATOM     25  O   UNL     1     115.266 131.577 140.834  0.00  0.00    +0.000 OA
ATOM     26  C   UNL     1     113.655 129.712 140.609  0.00  0.00    +0.000 C 
ATOM     27  C   UNL     1     113.530 130.300 141.174  0.00  0.00    +0.000 C 
ATOM     28  C   UNL     1     114.066 130.921 141.250  0.00  0.00    +0.000 C 
ATOM     29  C   UNL     1     114.729 130.955 140.759  0.00  0.00    +0.000 C 
ATOM     30  C   UNL     1     114.855 130.368 140.193  0.00  0.00    +0.000 C 
ENDBRANCH  21  26
ENDBRANCH  16  21
ENDBRANCH   4  17
BRANCH  12  32
ATOM     31  O   UNL     1     107.756 130.796 135.942  0.00  0.00    +0.000 OA
ATOM     32  C   UNL     1     109.741 129.858 137.085  0.00  0.00    +0.000 A 
ATOM     33  C   UNL     1     109.331 129.405 136.530  0.00  0.00    +0.000 A 
ATOM     34  C   UNL     1     109.489 130.624 137.258  0.00  0.00    +0.000 A 
ATOM     35  C   UNL     1     108.670 129.717 136.149  0.00  0.00    +0.000 A 
ATOM     36  C   UNL     1     108.827 130.937 136.877  0.00  0.00    +0.000 A 
ATOM     37  C   UNL     1     108.418 130.483 136.323  0.00  0.00    +0.000 A 
ENDBRANCH  12  32
BRANCH   5  38
ATOM     38  O   UNL     1     111.503 127.776 140.462  0.00  0.00    +0.000 OA
BRANCH  38  45
ATOM     39  O   UNL     1     110.608 126.717 140.118  0.00  0.00    +0.000 OA
ATOM     40  O   UNL     1     110.587 128.118 141.792  0.00  0.00    +0.000 OA
ATOM     41  O   UNL     1     109.234 127.229 142.112  0.00  0.00    +0.000 OA
ATOM     42  O   UNL     1     108.797 125.999 141.103  0.00  0.00    +0.000 OA
ATOM     43  C   UNL     1     110.369 127.503 141.287  0.00  0.00    +0.000 C 
ATOM     44  C   UNL     1     109.692 127.058 141.447  0.00  0.00    +0.000 C 
ATOM     45  C   UNL     1     110.827 127.332 140.622  0.00  0.00    +0.000 C 
ATOM     46  C   UNL     1     109.474 126.443 140.942  0.00  0.00    +0.000 C 
ATOM     47  C   UNL     1     109.932 126.272 140.278  0.00  0.00    +0.000 C 
BRANCH  47  49
ATOM     48  O   UNL     1     110.288 125.156 139.459  0.00  0.00    +0.000 OA
ATOM     49  C   UNL     1     109.713 125.657 139.773  0.00  0.00    +0.000 C 
ENDBRANCH  47  49
ENDBRANCH  38  45
ENDBRANCH   5  38
TORSDOF 7
ENDMDL
