MODEL 1
REMARK VINA RESULT:      -8.2      0.000      0.000
REMARK  Name = 129684544
REMARK  3 active torsions:
REMARK  status: ('A' for Active; 'I' for Inactive)
REMARK    1  A    between atoms: O_3  and  C_16
REMARK    2  A    between atoms: O_5  and  C_20
REMARK    3  A    between atoms: C_6  and  C_10
REMARK                            x       y       z     vdW  Elec       q    Type
REMARK                         _______ _______ _______ _____ _____    ______ ____
ROOT
ATOM      1  O   UNL     1     105.953 125.292 146.139  0.00  0.00    +0.000 OA
ATOM      2  O   UNL     1     108.433 125.540 147.585  0.00  0.00    +0.000 OA
ATOM      3  C   UNL     1     104.803 124.595 146.768  0.00  0.00    +0.000 C 
ATOM      4  C   UNL     1     105.282 124.455 147.467  0.00  0.00    +0.000 C 
ATOM      5  C   UNL     1     105.140 125.016 146.100  0.00  0.00    +0.000 C 
ATOM      6  C   UNL     1     106.093 124.738 147.489  0.00  0.00    +0.000 A 
ATOM      7  C   UNL     1     106.418 125.143 146.847  0.00  0.00    +0.000 A 
ATOM      8  C   UNL     1     106.549 124.601 148.162  0.00  0.00    +0.000 A 
ATOM      9  C   UNL     1     107.197 125.410 146.879  0.00  0.00    +0.000 A 
ATOM     10  C   UNL     1     107.329 124.868 148.195  0.00  0.00    +0.000 A 
ATOM     11  C   UNL     1     107.653 125.273 147.553  0.00  0.00    +0.000 A 
ENDROOT
BRANCH   3  13
ATOM     12  O   UNL     1     104.437 123.210 145.951  0.00  0.00    +0.000 OA
ATOM     13  C   UNL     1     104.023 124.326 146.739  0.00  0.00    +0.000 A 
ATOM     14  C   UNL     1     103.840 123.634 146.330  0.00  0.00    +0.000 A 
ATOM     15  C   UNL     1     103.426 124.751 147.118  0.00  0.00    +0.000 A 
ATOM     16  C   UNL     1     103.060 123.366 146.301  0.00  0.00    +0.000 A 
ATOM     17  C   UNL     1     102.646 124.483 147.089  0.00  0.00    +0.000 A 
ATOM     18  C   UNL     1     102.463 123.790 146.680  0.00  0.00    +0.000 A 
BRANCH  18  19
ATOM     19  O   UNL     1     101.684 123.522 146.651  0.00  0.00    +0.000 OA
ATOM     20  C   UNL     1     101.161 123.834 146.095  0.00  0.00    +0.000 C 
ENDBRANCH  18  19
ENDBRANCH   3  13
BRANCH  10  21
ATOM     21  O   UNL     1     107.785 124.731 148.868  0.00  0.00    +0.000 OA
ATOM     22  C   UNL     1     107.470 124.300 149.498  0.00  0.00    +0.000 C 
ENDBRANCH  10  21
TORSDOF 3
ENDMDL
MODEL 2
REMARK VINA RESULT:      -7.6      7.584      8.595
REMARK  Name = 129684544
REMARK  3 active torsions:
REMARK  status: ('A' for Active; 'I' for Inactive)
REMARK    1  A    between atoms: O_3  and  C_16
REMARK    2  A    between atoms: O_5  and  C_20
REMARK    3  A    between atoms: C_6  and  C_10
REMARK                            x       y       z     vdW  Elec       q    Type
REMARK                         _______ _______ _______ _____ _____    ______ ____
ROOT
ATOM      1  O   UNL     1     103.095 129.450 140.643  0.00  0.00    +0.000 OA
ATOM      2  O   UNL     1     104.900 127.483 141.725  0.00  0.00    +0.000 OA
ATOM      3  C   UNL     1     102.667 130.596 141.484  0.00  0.00    +0.000 C 
ATOM      4  C   UNL     1     103.148 130.292 142.127  0.00  0.00    +0.000 C 
ATOM      5  C   UNL     1     102.641 130.173 140.737  0.00  0.00    +0.000 C 
ATOM      6  C   UNL     1     103.597 129.567 142.014  0.00  0.00    +0.000 A 
ATOM      7  C   UNL     1     103.571 129.160 141.297  0.00  0.00    +0.000 A 
ATOM      8  C   UNL     1     104.057 129.279 142.635  0.00  0.00    +0.000 A 
ATOM      9  C   UNL     1     104.005 128.465 141.200  0.00  0.00    +0.000 A 
ATOM     10  C   UNL     1     104.492 128.584 142.539  0.00  0.00    +0.000 A 
ATOM     11  C   UNL     1     104.466 128.177 141.822  0.00  0.00    +0.000 A 
ENDROOT
BRANCH   3  13
ATOM     12  O   UNL     1     103.304 132.042 141.007  0.00  0.00    +0.000 OA
ATOM     13  C   UNL     1     102.234 131.291 141.583  0.00  0.00    +0.000 A 
ATOM     14  C   UNL     1     102.552 132.014 141.345  0.00  0.00    +0.000 A 
ATOM     15  C   UNL     1     101.482 131.263 141.920  0.00  0.00    +0.000 A 
ATOM     16  C   UNL     1     102.118 132.709 141.444  0.00  0.00    +0.000 A 
ATOM     17  C   UNL     1     101.047 131.958 142.019  0.00  0.00    +0.000 A 
ATOM     18  C   UNL     1     101.366 132.681 141.781  0.00  0.00    +0.000 A 
BRANCH  18  19
ATOM     19  O   UNL     1     100.932 133.376 141.880  0.00  0.00    +0.000 OA
ATOM     20  C   UNL     1     100.718 133.624 142.637  0.00  0.00    +0.000 C 
ENDBRANCH  18  19
ENDBRANCH   3  13
BRANCH  10  21
ATOM     21  O   UNL     1     104.952 128.296 143.160  0.00  0.00    +0.000 OA
ATOM     22  C   UNL     1     105.057 128.750 143.841  0.00  0.00    +0.000 C 
ENDBRANCH  10  21
TORSDOF 3
ENDMDL
MODEL 3
REMARK VINA RESULT:      -7.5     12.428     13.051
REMARK  Name = 129684544
REMARK  3 active torsions:
REMARK  status: ('A' for Active; 'I' for Inactive)
REMARK    1  A    between atoms: O_3  and  C_16
REMARK    2  A    between atoms: O_5  and  C_20
REMARK    3  A    between atoms: C_6  and  C_10
REMARK                            x       y       z     vdW  Elec       q    Type
REMARK                         _______ _______ _______ _____ _____    ______ ____
ROOT
ATOM      1  O   UNL     1     110.826 124.766 135.683  0.00  0.00    +0.000 OA
ATOM      2  O   UNL     1     112.978 123.369 136.993  0.00  0.00    +0.000 OA
ATOM      3  C   UNL     1     110.808 126.251 135.681  0.00  0.00    +0.000 C 
ATOM      4  C   UNL     1     111.540 126.251 136.129  0.00  0.00    +0.000 C 
ATOM      5  C   UNL     1     110.448 125.504 135.456  0.00  0.00    +0.000 C 
ATOM      6  C   UNL     1     111.904 125.503 136.348  0.00  0.00    +0.000 A 
ATOM      7  C   UNL     1     111.559 124.786 136.132  0.00  0.00    +0.000 A 
ATOM      8  C   UNL     1     112.607 125.509 136.779  0.00  0.00    +0.000 A 
ATOM      9  C   UNL     1     111.916 124.074 136.347  0.00  0.00    +0.000 A 
ATOM     10  C   UNL     1     112.965 124.798 136.994  0.00  0.00    +0.000 A 
ATOM     11  C   UNL     1     112.620 124.080 136.778  0.00  0.00    +0.000 A 
ENDROOT
BRANCH   3  13
ATOM     12  O   UNL     1     109.507 126.811 136.527  0.00  0.00    +0.000 OA
ATOM     13  C   UNL     1     110.452 126.964 135.467  0.00  0.00    +0.000 A 
ATOM     14  C   UNL     1     109.802 127.244 135.889  0.00  0.00    +0.000 A 
ATOM     15  C   UNL     1     110.746 127.397 134.829  0.00  0.00    +0.000 A 
ATOM     16  C   UNL     1     109.446 127.956 135.675  0.00  0.00    +0.000 A 
ATOM     17  C   UNL     1     110.391 128.110 134.615  0.00  0.00    +0.000 A 
ATOM     18  C   UNL     1     109.740 128.390 135.038  0.00  0.00    +0.000 A 
BRANCH  18  19
ATOM     19  O   UNL     1     109.384 129.102 134.824  0.00  0.00    +0.000 OA
ATOM     20  C   UNL     1     109.845 129.778 134.717  0.00  0.00    +0.000 C 
ENDBRANCH  18  19
ENDBRANCH   3  13
BRANCH  10  21
ATOM     21  O   UNL     1     113.668 124.804 137.425  0.00  0.00    +0.000 OA
ATOM     22  C   UNL     1     113.908 125.491 137.814  0.00  0.00    +0.000 C 
ENDBRANCH  10  21
TORSDOF 3
ENDMDL
MODEL 4
REMARK VINA RESULT:      -7.5      6.959      7.902
REMARK  Name = 129684544
REMARK  3 active torsions:
REMARK  status: ('A' for Active; 'I' for Inactive)
REMARK    1  A    between atoms: O_3  and  C_16
REMARK    2  A    between atoms: O_5  and  C_20
REMARK    3  A    between atoms: C_6  and  C_10
REMARK                            x       y       z     vdW  Elec       q    Type
REMARK                         _______ _______ _______ _____ _____    ______ ____
ROOT
ATOM      1  O   UNL     1     105.471 123.175 140.291  0.00  0.00    +0.000 OA
ATOM      2  O   UNL     1     106.790 124.956 142.132  0.00  0.00    +0.000 OA
ATOM      3  C   UNL     1     104.579 123.730 139.243  0.00  0.00    +0.000 C 
ATOM      4  C   UNL     1     104.743 124.521 139.536  0.00  0.00    +0.000 C 
ATOM      5  C   UNL     1     104.946 123.053 139.623  0.00  0.00    +0.000 C 
ATOM      6  C   UNL     1     105.272 124.624 140.206  0.00  0.00    +0.000 A 
ATOM      7  C   UNL     1     105.624 123.973 140.571  0.00  0.00    +0.000 A 
ATOM      8  C   UNL     1     105.426 125.385 140.483  0.00  0.00    +0.000 A 
ATOM      9  C   UNL     1     106.130 124.084 141.213  0.00  0.00    +0.000 A 
ATOM     10  C   UNL     1     105.932 125.497 141.125  0.00  0.00    +0.000 A 
ATOM     11  C   UNL     1     106.284 124.846 141.490  0.00  0.00    +0.000 A 
ENDROOT
BRANCH   3  13
ATOM     12  O   UNL     1     102.950 123.638 139.482  0.00  0.00    +0.000 OA
ATOM     13  C   UNL     1     104.073 123.622 138.601  0.00  0.00    +0.000 A 
ATOM     14  C   UNL     1     103.258 123.576 138.720  0.00  0.00    +0.000 A 
ATOM     15  C   UNL     1     104.382 123.560 137.838  0.00  0.00    +0.000 A 
ATOM     16  C   UNL     1     102.752 123.468 138.077  0.00  0.00    +0.000 A 
ATOM     17  C   UNL     1     103.876 123.452 137.195  0.00  0.00    +0.000 A 
ATOM     18  C   UNL     1     103.061 123.406 137.315  0.00  0.00    +0.000 A 
BRANCH  18  19
ATOM     19  O   UNL     1     102.555 123.298 136.673  0.00  0.00    +0.000 OA
ATOM     20  C   UNL     1     102.796 122.841 136.029  0.00  0.00    +0.000 C 
ENDBRANCH  18  19
ENDBRANCH   3  13
BRANCH  10  21
ATOM     21  O   UNL     1     106.086 126.258 141.402  0.00  0.00    +0.000 OA
ATOM     22  C   UNL     1     105.461 126.768 141.575  0.00  0.00    +0.000 C 
ENDBRANCH  10  21
TORSDOF 3
ENDMDL
MODEL 5
REMARK VINA RESULT:      -7.4     11.866     12.929
REMARK  Name = 129684544
REMARK  3 active torsions:
REMARK  status: ('A' for Active; 'I' for Inactive)
REMARK    1  A    between atoms: O_3  and  C_16
REMARK    2  A    between atoms: O_5  and  C_20
REMARK    3  A    between atoms: C_6  and  C_10
REMARK                            x       y       z     vdW  Elec       q    Type
REMARK                         _______ _______ _______ _____ _____    ______ ____
ROOT
ATOM      1  O   UNL     1     110.000 125.680 135.429  0.00  0.00    +0.000 OA
ATOM      2  O   UNL     1     108.099 127.824 135.733  0.00  0.00    +0.000 OA
ATOM      3  C   UNL     1     111.221 125.657 136.273  0.00  0.00    +0.000 C 
ATOM      4  C   UNL     1     110.964 126.384 136.650  0.00  0.00    +0.000 C 
ATOM      5  C   UNL     1     110.736 125.302 135.659  0.00  0.00    +0.000 C 
ATOM      6  C   UNL     1     110.224 126.748 136.407  0.00  0.00    +0.000 A 
ATOM      7  C   UNL     1     109.758 126.408 135.817  0.00  0.00    +0.000 A 
ATOM      8  C   UNL     1     109.981 127.447 136.772  0.00  0.00    +0.000 A 
ATOM      9  C   UNL     1     109.050 126.766 135.592  0.00  0.00    +0.000 A 
ATOM     10  C   UNL     1     109.273 127.806 136.548  0.00  0.00    +0.000 A 
ATOM     11  C   UNL     1     108.807 127.466 135.958  0.00  0.00    +0.000 A 
ENDROOT
BRANCH   3  13
ATOM     12  O   UNL     1     111.203 124.343 137.271  0.00  0.00    +0.000 OA
ATOM     13  C   UNL     1     111.930 125.300 136.499  0.00  0.00    +0.000 A 
ATOM     14  C   UNL     1     111.921 124.644 136.998  0.00  0.00    +0.000 A 
ATOM     15  C   UNL     1     112.648 125.601 136.226  0.00  0.00    +0.000 A 
ATOM     16  C   UNL     1     112.630 124.288 137.225  0.00  0.00    +0.000 A 
ATOM     17  C   UNL     1     113.358 125.245 136.453  0.00  0.00    +0.000 A 
ATOM     18  C   UNL     1     113.348 124.588 136.952  0.00  0.00    +0.000 A 
BRANCH  18  19
ATOM     19  O   UNL     1     114.057 124.232 137.178  0.00  0.00    +0.000 OA
ATOM     20  C   UNL     1     114.721 124.696 137.335  0.00  0.00    +0.000 C 
ENDBRANCH  18  19
ENDBRANCH   3  13
BRANCH  10  21
ATOM     21  O   UNL     1     109.030 128.504 136.913  0.00  0.00    +0.000 OA
ATOM     22  C   UNL     1     109.587 128.999 137.267  0.00  0.00    +0.000 C 
ENDBRANCH  10  21
TORSDOF 3
ENDMDL
MODEL 6
REMARK VINA RESULT:      -7.4     12.975     14.710
REMARK  Name = 129684544
REMARK  3 active torsions:
REMARK  status: ('A' for Active; 'I' for Inactive)
REMARK    1  A    between atoms: O_3  and  C_16
REMARK    2  A    between atoms: O_5  and  C_20
REMARK    3  A    between atoms: C_6  and  C_10
REMARK                            x       y       z     vdW  Elec       q    Type
REMARK                         _______ _______ _______ _____ _____    ______ ____
ROOT
ATOM      1  O   UNL     1     112.194 127.368 136.003  0.00  0.00    +0.000 OA
ATOM      2  O   UNL     1     112.213 124.612 136.843  0.00  0.00    +0.000 OA
ATOM      3  C   UNL     1     113.448 128.160 136.053  0.00  0.00    +0.000 C 
ATOM      4  C   UNL     1     113.860 127.471 136.357  0.00  0.00    +0.000 C 
ATOM      5  C   UNL     1     112.610 128.108 135.874  0.00  0.00    +0.000 C 
ATOM      6  C   UNL     1     113.428 126.738 136.479  0.00  0.00    +0.000 A 
ATOM      7  C   UNL     1     112.622 126.688 136.308  0.00  0.00    +0.000 A 
ATOM      8  C   UNL     1     113.828 126.079 136.772  0.00  0.00    +0.000 A 
ATOM      9  C   UNL     1     112.217 125.980 136.429  0.00  0.00    +0.000 A 
ATOM     10  C   UNL     1     113.424 125.370 136.893  0.00  0.00    +0.000 A 
ATOM     11  C   UNL     1     112.618 125.320 136.722  0.00  0.00    +0.000 A 
ENDROOT
BRANCH   3  13
ATOM     12  O   UNL     1     113.361 129.364 137.177  0.00  0.00    +0.000 OA
ATOM     13  C   UNL     1     113.855 128.867 135.932  0.00  0.00    +0.000 A 
ATOM     14  C   UNL     1     113.812 129.470 136.494  0.00  0.00    +0.000 A 
ATOM     15  C   UNL     1     114.306 128.973 135.250  0.00  0.00    +0.000 A 
ATOM     16  C   UNL     1     114.219 130.177 136.374  0.00  0.00    +0.000 A 
ATOM     17  C   UNL     1     114.714 129.680 135.129  0.00  0.00    +0.000 A 
ATOM     18  C   UNL     1     114.670 130.282 135.691  0.00  0.00    +0.000 A 
BRANCH  18  19
ATOM     19  O   UNL     1     115.077 130.990 135.571  0.00  0.00    +0.000 OA
ATOM     20  C   UNL     1     115.552 131.084 134.903  0.00  0.00    +0.000 C 
ENDBRANCH  18  19
ENDBRANCH   3  13
BRANCH  10  21
ATOM     21  O   UNL     1     113.824 124.711 137.186  0.00  0.00    +0.000 OA
ATOM     22  C   UNL     1     114.631 124.760 137.353  0.00  0.00    +0.000 C 
ENDBRANCH  10  21
TORSDOF 3
ENDMDL
MODEL 7
REMARK VINA RESULT:      -7.4     12.816     14.209
REMARK  Name = 129684544
REMARK  3 active torsions:
REMARK  status: ('A' for Active; 'I' for Inactive)
REMARK    1  A    between atoms: O_3  and  C_16
REMARK    2  A    between atoms: O_5  and  C_20
REMARK    3  A    between atoms: C_6  and  C_10
REMARK                            x       y       z     vdW  Elec       q    Type
REMARK                         _______ _______ _______ _____ _____    ______ ____
ROOT
ATOM      1  O   UNL     1     113.348 126.024 136.898  0.00  0.00    +0.000 OA
ATOM      2  O   UNL     1     111.349 124.049 136.264  0.00  0.00    +0.000 OA
ATOM      3  C   UNL     1     113.169 127.424 136.438  0.00  0.00    +0.000 C 
ATOM      4  C   UNL     1     112.426 127.199 136.072  0.00  0.00    +0.000 C 
ATOM      5  C   UNL     1     113.634 126.833 136.853  0.00  0.00    +0.000 C 
ATOM      6  C   UNL     1     112.156 126.384 136.126  0.00  0.00    +0.000 A 
ATOM      7  C   UNL     1     112.602 125.816 136.525  0.00  0.00    +0.000 A 
ATOM      8  C   UNL     1     111.441 126.173 135.773  0.00  0.00    +0.000 A 
ATOM      9  C   UNL     1     112.333 125.038 136.571  0.00  0.00    +0.000 A 
ATOM     10  C   UNL     1     111.172 125.395 135.818  0.00  0.00    +0.000 A 
ATOM     11  C   UNL     1     111.617 124.827 136.218  0.00  0.00    +0.000 A 
ENDROOT
BRANCH   3  13
ATOM     12  O   UNL     1     112.871 128.475 137.674  0.00  0.00    +0.000 OA
ATOM     13  C   UNL     1     113.436 128.203 136.390  0.00  0.00    +0.000 A 
ATOM     14  C   UNL     1     113.287 128.729 137.008  0.00  0.00    +0.000 A 
ATOM     15  C   UNL     1     113.852 128.457 135.725  0.00  0.00    +0.000 A 
ATOM     16  C   UNL     1     113.554 129.508 136.961  0.00  0.00    +0.000 A 
ATOM     17  C   UNL     1     114.119 129.237 135.677  0.00  0.00    +0.000 A 
ATOM     18  C   UNL     1     113.970 129.762 136.295  0.00  0.00    +0.000 A 
BRANCH  18  19
ATOM     19  O   UNL     1     114.237 130.541 136.248  0.00  0.00    +0.000 OA
ATOM     20  C   UNL     1     114.928 130.716 135.833  0.00  0.00    +0.000 C 
ENDBRANCH  18  19
ENDBRANCH   3  13
BRANCH  10  21
ATOM     21  O   UNL     1     110.457 125.184 135.465  0.00  0.00    +0.000 OA
ATOM     22  C   UNL     1     110.017 125.749 135.056  0.00  0.00    +0.000 C 
ENDBRANCH  10  21
TORSDOF 3
ENDMDL
MODEL 8
REMARK VINA RESULT:      -7.3      8.745     10.012
REMARK  Name = 129684544
REMARK  3 active torsions:
REMARK  status: ('A' for Active; 'I' for Inactive)
REMARK    1  A    between atoms: O_3  and  C_16
REMARK    2  A    between atoms: O_5  and  C_20
REMARK    3  A    between atoms: C_6  and  C_10
REMARK                            x       y       z     vdW  Elec       q    Type
REMARK                         _______ _______ _______ _____ _____    ______ ____
ROOT
ATOM      1  O   UNL     1     101.095 131.763 141.911  0.00  0.00    +0.000 OA
ATOM      2  O   UNL     1     101.008 134.639 141.758  0.00  0.00    +0.000 OA
ATOM      3  C   UNL     1     102.359 131.049 141.600  0.00  0.00    +0.000 C 
ATOM      4  C   UNL     1     102.738 131.805 141.447  0.00  0.00    +0.000 C 
ATOM      5  C   UNL     1     101.533 131.028 141.833  0.00  0.00    +0.000 C 
ATOM      6  C   UNL     1     102.284 132.530 141.530  0.00  0.00    +0.000 A 
ATOM      7  C   UNL     1     101.490 132.510 141.754  0.00  0.00    +0.000 A 
ATOM      8  C   UNL     1     102.652 133.253 141.382  0.00  0.00    +0.000 A 
ATOM      9  C   UNL     1     101.065 133.213 141.830  0.00  0.00    +0.000 A 
ATOM     10  C   UNL     1     102.227 133.956 141.458  0.00  0.00    +0.000 A 
ATOM     11  C   UNL     1     101.433 133.936 141.682  0.00  0.00    +0.000 A 
ENDROOT
BRANCH   3  13
ATOM     12  O   UNL     1     102.224 130.146 140.226  0.00  0.00    +0.000 OA
ATOM     13  C   UNL     1     102.787 130.348 141.523  0.00  0.00    +0.000 A 
ATOM     14  C   UNL     1     102.719 129.896 140.836  0.00  0.00    +0.000 A 
ATOM     15  C   UNL     1     103.283 130.098 142.133  0.00  0.00    +0.000 A 
ATOM     16  C   UNL     1     103.147 129.195 140.759  0.00  0.00    +0.000 A 
ATOM     17  C   UNL     1     103.711 129.396 142.057  0.00  0.00    +0.000 A 
ATOM     18  C   UNL     1     103.643 128.945 141.370  0.00  0.00    +0.000 A 
BRANCH  18  19
ATOM     19  O   UNL     1     104.070 128.243 141.293  0.00  0.00    +0.000 OA
ATOM     20  C   UNL     1     104.739 128.115 141.759  0.00  0.00    +0.000 C 
ENDBRANCH  18  19
ENDBRANCH   3  13
BRANCH  10  21
ATOM     21  O   UNL     1     102.595 134.679 141.310  0.00  0.00    +0.000 OA
ATOM     22  C   UNL     1     103.342 134.698 140.959  0.00  0.00    +0.000 C 
ENDBRANCH  10  21
TORSDOF 3
ENDMDL
MODEL 9
REMARK VINA RESULT:      -7.2      1.194      4.648
REMARK  Name = 129684544
REMARK  3 active torsions:
REMARK  status: ('A' for Active; 'I' for Inactive)
REMARK    1  A    between atoms: O_3  and  C_16
REMARK    2  A    between atoms: O_5  and  C_20
REMARK    3  A    between atoms: C_6  and  C_10
REMARK                            x       y       z     vdW  Elec       q    Type
REMARK                         _______ _______ _______ _____ _____    ______ ____
ROOT
ATOM      1  O   UNL     1     103.436 123.260 145.750  0.00  0.00    +0.000 OA
ATOM      2  O   UNL     1     100.713 122.996 146.655  0.00  0.00    +0.000 OA
ATOM      3  C   UNL     1     104.306 124.311 146.335  0.00  0.00    +0.000 C 
ATOM      4  C   UNL     1     103.652 124.561 146.834  0.00  0.00    +0.000 C 
ATOM      5  C   UNL     1     104.197 123.657 145.790  0.00  0.00    +0.000 C 
ATOM      6  C   UNL     1     102.898 124.151 146.781  0.00  0.00    +0.000 A 
ATOM      7  C   UNL     1     102.794 123.523 146.257  0.00  0.00    +0.000 A 
ATOM      8  C   UNL     1     102.275 124.395 147.263  0.00  0.00    +0.000 A 
ATOM      9  C   UNL     1     102.066 123.137 146.215  0.00  0.00    +0.000 A 
ATOM     10  C   UNL     1     101.546 124.010 147.221  0.00  0.00    +0.000 A 
ATOM     11  C   UNL     1     101.441 123.381 146.697  0.00  0.00    +0.000 A 
ENDROOT
BRANCH   3  13
ATOM     12  O   UNL     1     104.747 125.376 145.155  0.00  0.00    +0.000 OA
ATOM     13  C   UNL     1     105.033 124.698 146.379  0.00  0.00    +0.000 A 
ATOM     14  C   UNL     1     105.254 125.231 145.790  0.00  0.00    +0.000 A 
ATOM     15  C   UNL     1     105.540 124.553 147.014  0.00  0.00    +0.000 A 
ATOM     16  C   UNL     1     105.981 125.617 145.834  0.00  0.00    +0.000 A 
ATOM     17  C   UNL     1     106.268 124.939 147.058  0.00  0.00    +0.000 A 
ATOM     18  C   UNL     1     106.488 125.472 146.468  0.00  0.00    +0.000 A 
BRANCH  18  19
ATOM     19  O   UNL     1     107.215 125.859 146.512  0.00  0.00    +0.000 OA
ATOM     20  C   UNL     1     107.322 126.476 147.049  0.00  0.00    +0.000 C 
ENDBRANCH  18  19
ENDBRANCH   3  13
BRANCH  10  21
ATOM     21  O   UNL     1     100.922 124.253 147.702  0.00  0.00    +0.000 OA
ATOM     22  C   UNL     1     101.078 124.617 148.426  0.00  0.00    +0.000 C 
ENDBRANCH  10  21
TORSDOF 3
ENDMDL
MODEL 10
REMARK VINA RESULT:      -7.2     12.816     14.499
REMARK  Name = 129684544
REMARK  3 active torsions:
REMARK  status: ('A' for Active; 'I' for Inactive)
REMARK    1  A    between atoms: O_3  and  C_16
REMARK    2  A    between atoms: O_5  and  C_20
REMARK    3  A    between atoms: C_6  and  C_10
REMARK                            x       y       z     vdW  Elec       q    Type
REMARK                         _______ _______ _______ _____ _____    ______ ____
ROOT
ATOM      1  O   UNL     1     110.943 128.107 134.612  0.00  0.00    +0.000 OA
ATOM      2  O   UNL     1     109.636 125.542 134.719  0.00  0.00    +0.000 OA
ATOM      3  C   UNL     1     112.138 128.358 135.456  0.00  0.00    +0.000 C 
ATOM      4  C   UNL     1     112.076 127.559 135.765  0.00  0.00    +0.000 C 
ATOM      5  C   UNL     1     111.568 128.634 134.876  0.00  0.00    +0.000 C 
ATOM      6  C   UNL     1     111.444 127.046 135.490  0.00  0.00    +0.000 A 
ATOM      7  C   UNL     1     110.896 127.311 134.932  0.00  0.00    +0.000 A 
ATOM      8  C   UNL     1     111.389 126.280 135.790  0.00  0.00    +0.000 A 
ATOM      9  C   UNL     1     110.293 126.810 134.675  0.00  0.00    +0.000 A 
ATOM     10  C   UNL     1     110.786 125.778 135.533  0.00  0.00    +0.000 A 
ATOM     11  C   UNL     1     110.239 126.043 134.976  0.00  0.00    +0.000 A 
ENDROOT
BRANCH   3  13
ATOM     12  O   UNL     1     111.825 129.512 136.593  0.00  0.00    +0.000 OA
ATOM     13  C   UNL     1     112.742 128.857 135.714  0.00  0.00    +0.000 A 
ATOM     14  C   UNL     1     112.586 129.434 136.283  0.00  0.00    +0.000 A 
ATOM     15  C   UNL     1     113.503 128.780 135.404  0.00  0.00    +0.000 A 
ATOM     16  C   UNL     1     113.190 129.934 136.541  0.00  0.00    +0.000 A 
ATOM     17  C   UNL     1     114.107 129.279 135.662  0.00  0.00    +0.000 A 
ATOM     18  C   UNL     1     113.950 129.856 136.231  0.00  0.00    +0.000 A 
BRANCH  18  19
ATOM     19  O   UNL     1     114.554 130.356 136.490  0.00  0.00    +0.000 OA
ATOM     20  C   UNL     1     115.110 130.642 135.952  0.00  0.00    +0.000 C 
ENDBRANCH  18  19
ENDBRANCH   3  13
BRANCH  10  21
ATOM     21  O   UNL     1     110.731 125.012 135.833  0.00  0.00    +0.000 OA
ATOM     22  C   UNL     1     111.385 124.663 136.196  0.00  0.00    +0.000 C 
ENDBRANCH  10  21
TORSDOF 3
ENDMDL
