MODEL 1
REMARK VINA RESULT:      -9.9      0.000      0.000
REMARK  Name = 42607963
REMARK  3 active torsions:
REMARK  status: ('A' for Active; 'I' for Inactive)
REMARK    1  A    between atoms: C_12  and  C_17
REMARK    2  A    between atoms: C_16  and  C_18
REMARK    3  A    between atoms: C_22  and  C_27
REMARK                            x       y       z     vdW  Elec       q    Type
REMARK                         _______ _______ _______ _____ _____    ______ ____
ROOT
ATOM      1  O   UNL     1     111.850 126.026 136.615  0.00  0.00    +0.000 OA
ATOM      2  O   UNL     1     114.572 125.868 137.548  0.00  0.00    +0.000 OA
ATOM      3  O   UNL     1     113.211 123.476 136.777  0.00  0.00    +0.000 OA
ATOM      4  O   UNL     1     111.848 123.513 136.304  0.00  0.00    +0.000 OA
ATOM      5  C   UNL     1     113.222 125.932 137.083  0.00  0.00    +0.000 A 
ATOM      6  C   UNL     1     112.546 125.555 136.800  0.00  0.00    +0.000 A 
ATOM      7  C   UNL     1     112.542 124.736 136.698  0.00  0.00    +0.000 A 
ATOM      8  C   UNL     1     113.894 125.491 137.264  0.00  0.00    +0.000 A 
ATOM      9  C   UNL     1     111.143 125.638 136.319  0.00  0.00    +0.000 C 
ATOM     10  C   UNL     1     111.139 124.786 136.213  0.00  0.00    +0.000 C 
ATOM     11  C   UNL     1     111.843 124.332 136.403  0.00  0.00    +0.000 C 
ATOM     12  C   UNL     1     113.214 124.295 136.879  0.00  0.00    +0.000 A 
ATOM     13  C   UNL     1     113.891 124.672 137.162  0.00  0.00    +0.000 A 
ENDROOT
BRANCH   5  18
ATOM     14  O   UNL     1     113.374 127.246 136.543  0.00  0.00    +0.000 OA
ATOM     15  O   UNL     1     112.932 126.578 138.574  0.00  0.00    +0.000 OA
ATOM     16  O   UNL     1     112.940 128.215 138.778  0.00  0.00    +0.000 OA
ATOM     17  O   UNL     1     113.237 129.207 137.493  0.00  0.00    +0.000 OA
ATOM     18  C   UNL     1     113.226 126.750 137.186  0.00  0.00    +0.000 C 
ATOM     19  C   UNL     1     113.081 127.074 137.930  0.00  0.00    +0.000 C 
ATOM     20  C   UNL     1     113.085 127.893 138.033  0.00  0.00    +0.000 C 
ATOM     21  C   UNL     1     113.233 128.387 137.390  0.00  0.00    +0.000 C 
ATOM     22  C   UNL     1     113.378 128.065 136.646  0.00  0.00    +0.000 C 
BRANCH  22  24
ATOM     23  O   UNL     1     114.174 128.413 135.510  0.00  0.00    +0.000 OA
ATOM     24  C   UNL     1     113.526 128.559 136.002  0.00  0.00    +0.000 C 
ENDBRANCH  22  24
ENDBRANCH   5  18
BRANCH   9  27
ATOM     25  O   UNL     1     108.738 126.940 137.154  0.00  0.00    +0.000 OA
ATOM     26  O   UNL     1     108.456 127.414 135.598  0.00  0.00    +0.000 OA
ATOM     27  C   UNL     1     110.471 126.082 136.139  0.00  0.00    +0.000 A 
ATOM     28  C   UNL     1     109.941 126.289 136.736  0.00  0.00    +0.000 A 
ATOM     29  C   UNL     1     110.330 126.320 135.362  0.00  0.00    +0.000 A 
ATOM     30  C   UNL     1     109.269 126.733 136.556  0.00  0.00    +0.000 A 
ATOM     31  C   UNL     1     109.658 126.764 135.182  0.00  0.00    +0.000 A 
ATOM     32  C   UNL     1     109.128 126.970 135.779  0.00  0.00    +0.000 A 
ENDBRANCH   9  27
TORSDOF 3
ENDMDL
MODEL 2
REMARK VINA RESULT:      -9.8     11.237     12.556
REMARK  Name = 42607963
REMARK  3 active torsions:
REMARK  status: ('A' for Active; 'I' for Inactive)
REMARK    1  A    between atoms: C_12  and  C_17
REMARK    2  A    between atoms: C_16  and  C_18
REMARK    3  A    between atoms: C_22  and  C_27
REMARK                            x       y       z     vdW  Elec       q    Type
REMARK                         _______ _______ _______ _____ _____    ______ ____
ROOT
ATOM      1  O   UNL     1     105.024 125.057 147.290  0.00  0.00    +0.000 OA
ATOM      2  O   UNL     1     107.744 125.753 146.644  0.00  0.00    +0.000 OA
ATOM      3  O   UNL     1     107.152 124.634 149.207  0.00  0.00    +0.000 OA
ATOM      4  O   UNL     1     105.803 124.273 149.568  0.00  0.00    +0.000 OA
ATOM      5  C   UNL     1     106.399 125.404 146.977  0.00  0.00    +0.000 A 
ATOM      6  C   UNL     1     105.853 125.101 147.515  0.00  0.00    +0.000 A 
ATOM      7  C   UNL     1     106.104 124.844 148.258  0.00  0.00    +0.000 A 
ATOM      8  C   UNL     1     107.197 125.450 147.182  0.00  0.00    +0.000 A 
ATOM      9  C   UNL     1     104.450 124.743 147.846  0.00  0.00    +0.000 C 
ATOM     10  C   UNL     1     104.711 124.476 148.620  0.00  0.00    +0.000 C 
ATOM     11  C   UNL     1     105.543 124.527 148.827  0.00  0.00    +0.000 C 
ATOM     12  C   UNL     1     106.901 124.891 148.463  0.00  0.00    +0.000 A 
ATOM     13  C   UNL     1     107.448 125.194 147.925  0.00  0.00    +0.000 A 
ENDROOT
BRANCH   5  18
ATOM     14  O   UNL     1     105.830 126.415 146.144  0.00  0.00    +0.000 OA
ATOM     15  O   UNL     1     106.536 124.405 145.671  0.00  0.00    +0.000 OA
ATOM     16  O   UNL     1     106.035 124.918 144.185  0.00  0.00    +0.000 OA
ATOM     17  O   UNL     1     105.397 126.429 144.005  0.00  0.00    +0.000 OA
ATOM     18  C   UNL     1     106.149 125.660 146.235  0.00  0.00    +0.000 C 
ATOM     19  C   UNL     1     106.217 125.161 145.581  0.00  0.00    +0.000 C 
ATOM     20  C   UNL     1     105.966 125.418 144.838  0.00  0.00    +0.000 C 
ATOM     21  C   UNL     1     105.648 126.173 144.749  0.00  0.00    +0.000 C 
ATOM     22  C   UNL     1     105.580 126.672 145.401  0.00  0.00    +0.000 C 
BRANCH  22  24
ATOM     23  O   UNL     1     105.432 128.015 145.867  0.00  0.00    +0.000 OA
ATOM     24  C   UNL     1     105.261 127.427 145.312  0.00  0.00    +0.000 C 
ENDBRANCH  22  24
ENDBRANCH   5  18
BRANCH   9  27
ATOM     25  O   UNL     1     102.307 123.378 146.537  0.00  0.00    +0.000 OA
ATOM     26  O   UNL     1     101.261 124.561 147.015  0.00  0.00    +0.000 OA
ATOM     27  C   UNL     1     103.653 124.698 147.639  0.00  0.00    +0.000 A 
ATOM     28  C   UNL     1     103.379 124.061 147.192  0.00  0.00    +0.000 A 
ATOM     29  C   UNL     1     103.130 125.289 147.877  0.00  0.00    +0.000 A 
ATOM     30  C   UNL     1     102.581 124.015 146.984  0.00  0.00    +0.000 A 
ATOM     31  C   UNL     1     102.332 125.243 147.670  0.00  0.00    +0.000 A 
ATOM     32  C   UNL     1     102.058 124.606 147.223  0.00  0.00    +0.000 A 
ENDBRANCH   9  27
TORSDOF 3
ENDMDL
MODEL 3
REMARK VINA RESULT:      -9.7      1.043      3.464
REMARK  Name = 42607963
REMARK  3 active torsions:
REMARK  status: ('A' for Active; 'I' for Inactive)
REMARK    1  A    between atoms: C_12  and  C_17
REMARK    2  A    between atoms: C_16  and  C_18
REMARK    3  A    between atoms: C_22  and  C_27
REMARK                            x       y       z     vdW  Elec       q    Type
REMARK                         _______ _______ _______ _____ _____    ______ ____
ROOT
ATOM      1  O   UNL     1     112.552 126.573 136.592  0.00  0.00    +0.000 OA
ATOM      2  O   UNL     1     111.340 123.977 136.894  0.00  0.00    +0.000 OA
ATOM      3  O   UNL     1     114.189 124.193 136.785  0.00  0.00    +0.000 OA
ATOM      4  O   UNL     1     114.833 125.474 136.634  0.00  0.00    +0.000 OA
ATOM      5  C   UNL     1     111.954 125.258 136.745  0.00  0.00    +0.000 A 
ATOM      6  C   UNL     1     112.633 125.721 136.677  0.00  0.00    +0.000 A 
ATOM      7  C   UNL     1     113.378 125.366 136.690  0.00  0.00    +0.000 A 
ATOM      8  C   UNL     1     112.020 124.440 136.826  0.00  0.00    +0.000 A 
ATOM      9  C   UNL     1     113.256 127.060 136.521  0.00  0.00    +0.000 C 
ATOM     10  C   UNL     1     114.031 126.691 136.535  0.00  0.00    +0.000 C 
ATOM     11  C   UNL     1     114.093 125.838 136.620  0.00  0.00    +0.000 C 
ATOM     12  C   UNL     1     113.443 124.548 136.771  0.00  0.00    +0.000 A 
ATOM     13  C   UNL     1     112.765 124.085 136.840  0.00  0.00    +0.000 A 
ENDROOT
BRANCH   5  18
ATOM     14  O   UNL     1     110.852 125.794 136.011  0.00  0.00    +0.000 OA
ATOM     15  O   UNL     1     111.182 125.607 138.160  0.00  0.00    +0.000 OA
ATOM     16  O   UNL     1     109.693 126.317 138.134  0.00  0.00    +0.000 OA
ATOM     17  O   UNL     1     108.976 126.679 136.692  0.00  0.00    +0.000 OA
ATOM     18  C   UNL     1     111.210 125.613 136.731  0.00  0.00    +0.000 C 
ATOM     19  C   UNL     1     110.823 125.788 137.439  0.00  0.00    +0.000 C 
ATOM     20  C   UNL     1     110.079 126.143 137.425  0.00  0.00    +0.000 C 
ATOM     21  C   UNL     1     109.721 126.323 136.705  0.00  0.00    +0.000 C 
ATOM     22  C   UNL     1     110.107 126.149 135.998  0.00  0.00    +0.000 C 
BRANCH  22  24
ATOM     23  O   UNL     1     109.899 125.860 134.613  0.00  0.00    +0.000 OA
ATOM     24  C   UNL     1     109.750 126.329 135.276  0.00  0.00    +0.000 C 
ENDBRANCH  22  24
ENDBRANCH   5  18
BRANCH   9  27
ATOM     25  O   UNL     1     112.996 129.369 134.855  0.00  0.00    +0.000 OA
ATOM     26  O   UNL     1     112.983 130.333 136.194  0.00  0.00    +0.000 OA
ATOM     27  C   UNL     1     113.188 127.879 136.439  0.00  0.00    +0.000 A 
ATOM     28  C   UNL     1     113.126 128.215 135.688  0.00  0.00    +0.000 A 
ATOM     29  C   UNL     1     113.181 128.361 137.108  0.00  0.00    +0.000 A 
ATOM     30  C   UNL     1     113.057 129.033 135.606  0.00  0.00    +0.000 A 
ATOM     31  C   UNL     1     113.113 129.179 137.027  0.00  0.00    +0.000 A 
ATOM     32  C   UNL     1     113.051 129.515 136.276  0.00  0.00    +0.000 A 
ENDBRANCH   9  27
TORSDOF 3
ENDMDL
MODEL 4
REMARK VINA RESULT:      -9.6      1.544      3.868
REMARK  Name = 42607963
REMARK  3 active torsions:
REMARK  status: ('A' for Active; 'I' for Inactive)
REMARK    1  A    between atoms: C_12  and  C_17
REMARK    2  A    between atoms: C_16  and  C_18
REMARK    3  A    between atoms: C_22  and  C_27
REMARK                            x       y       z     vdW  Elec       q    Type
REMARK                         _______ _______ _______ _____ _____    ______ ____
ROOT
ATOM      1  O   UNL     1     110.645 127.367 136.193  0.00  0.00    +0.000 OA
ATOM      2  O   UNL     1     110.547 130.218 135.794  0.00  0.00    +0.000 OA
ATOM      3  O   UNL     1     108.111 128.723 135.848  0.00  0.00    +0.000 OA
ATOM      4  O   UNL     1     108.118 127.294 136.045  0.00  0.00    +0.000 OA
ATOM      5  C   UNL     1     110.582 128.804 135.991  0.00  0.00    +0.000 A 
ATOM      6  C   UNL     1     110.187 128.083 136.065  0.00  0.00    +0.000 A 
ATOM      7  C   UNL     1     109.364 128.056 136.018  0.00  0.00    +0.000 A 
ATOM      8  C   UNL     1     110.152 129.497 135.869  0.00  0.00    +0.000 A 
ATOM      9  C   UNL     1     110.240 126.613 136.271  0.00  0.00    +0.000 C 
ATOM     10  C   UNL     1     109.383 126.585 136.221  0.00  0.00    +0.000 C 
ATOM     11  C   UNL     1     108.942 127.311 136.094  0.00  0.00    +0.000 C 
ATOM     12  C   UNL     1     108.935 128.750 135.896  0.00  0.00    +0.000 A 
ATOM     13  C   UNL     1     109.329 129.470 135.821  0.00  0.00    +0.000 A 
ENDROOT
BRANCH   5  18
ATOM     14  O   UNL     1     111.775 128.840 136.775  0.00  0.00    +0.000 OA
ATOM     15  O   UNL     1     111.486 128.839 134.612  0.00  0.00    +0.000 OA
ATOM     16  O   UNL     1     113.133 128.893 134.707  0.00  0.00    +0.000 OA
ATOM     17  O   UNL     1     113.874 128.911 136.182  0.00  0.00    +0.000 OA
ATOM     18  C   UNL     1     111.404 128.830 136.039  0.00  0.00    +0.000 C 
ATOM     19  C   UNL     1     111.857 128.848 135.350  0.00  0.00    +0.000 C 
ATOM     20  C   UNL     1     112.680 128.875 135.397  0.00  0.00    +0.000 C 
ATOM     21  C   UNL     1     113.050 128.884 136.134  0.00  0.00    +0.000 C 
ATOM     22  C   UNL     1     112.598 128.867 136.823  0.00  0.00    +0.000 C 
BRANCH  22  24
ATOM     23  O   UNL     1     112.550 129.126 138.228  0.00  0.00    +0.000 OA
ATOM     24  C   UNL     1     112.968 128.876 137.561  0.00  0.00    +0.000 C 
ENDBRANCH  22  24
ENDBRANCH   5  18
BRANCH   9  27
ATOM     25  O   UNL     1     111.459 124.738 138.051  0.00  0.00    +0.000 OA
ATOM     26  O   UNL     1     111.967 123.843 136.761  0.00  0.00    +0.000 OA
ATOM     27  C   UNL     1     110.672 125.921 136.393  0.00  0.00    +0.000 A 
ATOM     28  C   UNL     1     110.849 125.676 137.161  0.00  0.00    +0.000 A 
ATOM     29  C   UNL     1     110.926 125.473 135.749  0.00  0.00    +0.000 A 
ATOM     30  C   UNL     1     111.281 124.983 137.284  0.00  0.00    +0.000 A 
ATOM     31  C   UNL     1     111.357 124.781 135.871  0.00  0.00    +0.000 A 
ATOM     32  C   UNL     1     111.535 124.536 136.639  0.00  0.00    +0.000 A 
ENDBRANCH   9  27
TORSDOF 3
ENDMDL
MODEL 5
REMARK VINA RESULT:      -9.5      1.499      2.415
REMARK  Name = 42607963
REMARK  3 active torsions:
REMARK  status: ('A' for Active; 'I' for Inactive)
REMARK    1  A    between atoms: C_12  and  C_17
REMARK    2  A    between atoms: C_16  and  C_18
REMARK    3  A    between atoms: C_22  and  C_27
REMARK                            x       y       z     vdW  Elec       q    Type
REMARK                         _______ _______ _______ _____ _____    ______ ____
ROOT
ATOM      1  O   UNL     1     112.273 126.061 137.133  0.00  0.00    +0.000 OA
ATOM      2  O   UNL     1     113.839 126.517 139.509  0.00  0.00    +0.000 OA
ATOM      3  O   UNL     1     114.915 124.909 137.404  0.00  0.00    +0.000 OA
ATOM      4  O   UNL     1     114.163 124.658 136.200  0.00  0.00    +0.000 OA
ATOM      5  C   UNL     1     113.073 126.283 138.325  0.00  0.00    +0.000 A 
ATOM      6  C   UNL     1     112.997 125.937 137.580  0.00  0.00    +0.000 A 
ATOM      7  C   UNL     1     113.611 125.479 137.273  0.00  0.00    +0.000 A 
ATOM      8  C   UNL     1     113.763 126.171 138.763  0.00  0.00    +0.000 A 
ATOM      9  C   UNL     1     112.188 125.704 136.357  0.00  0.00    +0.000 C 
ATOM     10  C   UNL     1     112.828 125.227 136.037  0.00  0.00    +0.000 C 
ATOM     11  C   UNL     1     113.544 125.114 136.498  0.00  0.00    +0.000 C 
ATOM     12  C   UNL     1     114.300 125.367 137.711  0.00  0.00    +0.000 A 
ATOM     13  C   UNL     1     114.377 125.713 138.456  0.00  0.00    +0.000 A 
ENDROOT
BRANCH   5  18
ATOM     14  O   UNL     1     111.818 126.377 139.001  0.00  0.00    +0.000 OA
ATOM     15  O   UNL     1     113.129 127.927 138.200  0.00  0.00    +0.000 OA
ATOM     16  O   UNL     1     111.901 128.843 138.814  0.00  0.00    +0.000 OA
ATOM     17  O   UNL     1     110.617 128.115 139.553  0.00  0.00    +0.000 OA
ATOM     18  C   UNL     1     112.460 126.740 138.632  0.00  0.00    +0.000 C 
ATOM     19  C   UNL     1     112.487 127.562 138.570  0.00  0.00    +0.000 C 
ATOM     20  C   UNL     1     111.873 128.020 138.877  0.00  0.00    +0.000 C 
ATOM     21  C   UNL     1     111.232 127.656 139.246  0.00  0.00    +0.000 C 
ATOM     22  C   UNL     1     111.204 126.835 139.308  0.00  0.00    +0.000 C 
BRANCH  22  24
ATOM     23  O   UNL     1     110.661 125.736 140.045  0.00  0.00    +0.000 OA
ATOM     24  C   UNL     1     110.563 126.470 139.677  0.00  0.00    +0.000 C 
ENDBRANCH  22  24
ENDBRANCH   5  18
BRANCH   9  27
ATOM     25  O   UNL     1     110.600 127.317 134.612  0.00  0.00    +0.000 OA
ATOM     26  O   UNL     1     109.424 126.159 134.612  0.00  0.00    +0.000 OA
ATOM     27  C   UNL     1     111.497 125.817 135.921  0.00  0.00    +0.000 A 
ATOM     28  C   UNL     1     111.394 126.510 135.485  0.00  0.00    +0.000 A 
ATOM     29  C   UNL     1     110.910 125.239 135.920  0.00  0.00    +0.000 A 
ATOM     30  C   UNL     1     110.703 126.624 135.048  0.00  0.00    +0.000 A 
ATOM     31  C   UNL     1     110.219 125.353 135.484  0.00  0.00    +0.000 A 
ATOM     32  C   UNL     1     110.115 126.045 135.048  0.00  0.00    +0.000 A 
ENDBRANCH   9  27
TORSDOF 3
ENDMDL
MODEL 6
REMARK VINA RESULT:      -9.5     11.484     13.067
REMARK  Name = 42607963
REMARK  3 active torsions:
REMARK  status: ('A' for Active; 'I' for Inactive)
REMARK    1  A    between atoms: C_12  and  C_17
REMARK    2  A    between atoms: C_16  and  C_18
REMARK    3  A    between atoms: C_22  and  C_27
REMARK                            x       y       z     vdW  Elec       q    Type
REMARK                         _______ _______ _______ _____ _____    ______ ____
ROOT
ATOM      1  O   UNL     1     104.101 125.668 147.196  0.00  0.00    +0.000 OA
ATOM      2  O   UNL     1     104.598 123.546 145.312  0.00  0.00    +0.000 OA
ATOM      3  O   UNL     1     102.312 123.399 147.022  0.00  0.00    +0.000 OA
ATOM      4  O   UNL     1     102.028 124.441 147.978  0.00  0.00    +0.000 OA
ATOM      5  C   UNL     1     104.340 124.592 146.251  0.00  0.00    +0.000 A 
ATOM      6  C   UNL     1     103.873 124.915 146.849  0.00  0.00    +0.000 A 
ATOM      7  C   UNL     1     103.197 124.518 147.105  0.00  0.00    +0.000 A 
ATOM      8  C   UNL     1     104.131 123.870 145.910  0.00  0.00    +0.000 A 
ATOM      9  C   UNL     1     103.619 126.010 147.819  0.00  0.00    +0.000 C 
ATOM     10  C   UNL     1     102.915 125.597 148.086  0.00  0.00    +0.000 C 
ATOM     11  C   UNL     1     102.702 124.846 147.728  0.00  0.00    +0.000 C 
ATOM     12  C   UNL     1     102.988 123.797 146.764  0.00  0.00    +0.000 A 
ATOM     13  C   UNL     1     103.455 123.473 146.167  0.00  0.00    +0.000 A 
ENDROOT
BRANCH   5  18
ATOM     14  O   UNL     1     104.951 125.599 145.443  0.00  0.00    +0.000 OA
ATOM     15  O   UNL     1     105.821 124.165 146.841  0.00  0.00    +0.000 OA
ATOM     16  O   UNL     1     107.172 124.960 146.327  0.00  0.00    +0.000 OA
ATOM     17  O   UNL     1     107.044 126.181 145.224  0.00  0.00    +0.000 OA
ATOM     18  C   UNL     1     105.015 124.989 145.995  0.00  0.00    +0.000 C 
ATOM     19  C   UNL     1     105.756 124.776 146.289  0.00  0.00    +0.000 C 
ATOM     20  C   UNL     1     106.432 125.174 146.032  0.00  0.00    +0.000 C 
ATOM     21  C   UNL     1     106.367 125.783 145.481  0.00  0.00    +0.000 C 
ATOM     22  C   UNL     1     105.627 125.996 145.187  0.00  0.00    +0.000 C 
BRANCH  22  24
ATOM     23  O   UNL     1     105.206 126.465 143.903  0.00  0.00    +0.000 OA
ATOM     24  C   UNL     1     105.562 126.606 144.635  0.00  0.00    +0.000 C 
ENDBRANCH  22  24
ENDBRANCH   5  18
BRANCH   9  27
ATOM     25  O   UNL     1     105.258 127.517 149.612  0.00  0.00    +0.000 OA
ATOM     26  O   UNL     1     104.464 128.897 149.177  0.00  0.00    +0.000 OA
ATOM     27  C   UNL     1     103.830 126.732 148.158  0.00  0.00    +0.000 A 
ATOM     28  C   UNL     1     104.438 126.764 148.715  0.00  0.00    +0.000 A 
ATOM     29  C   UNL     1     103.434 127.422 147.942  0.00  0.00    +0.000 A 
ATOM     30  C   UNL     1     104.650 127.486 149.055  0.00  0.00    +0.000 A 
ATOM     31  C   UNL     1     103.645 128.144 148.281  0.00  0.00    +0.000 A 
ATOM     32  C   UNL     1     104.253 128.176 148.838  0.00  0.00    +0.000 A 
ENDBRANCH   9  27
TORSDOF 3
ENDMDL
MODEL 7
REMARK VINA RESULT:      -9.4      1.650      4.187
REMARK  Name = 42607963
REMARK  3 active torsions:
REMARK  status: ('A' for Active; 'I' for Inactive)
REMARK    1  A    between atoms: C_12  and  C_17
REMARK    2  A    between atoms: C_16  and  C_18
REMARK    3  A    between atoms: C_22  and  C_27
REMARK                            x       y       z     vdW  Elec       q    Type
REMARK                         _______ _______ _______ _____ _____    ______ ____
ROOT
ATOM      1  O   UNL     1     112.637 126.204 138.464  0.00  0.00    +0.000 OA
ATOM      2  O   UNL     1     111.062 124.628 136.638  0.00  0.00    +0.000 OA
ATOM      3  O   UNL     1     113.894 124.254 136.734  0.00  0.00    +0.000 OA
ATOM      4  O   UNL     1     114.717 125.023 137.634  0.00  0.00    +0.000 OA
ATOM      5  C   UNL     1     111.854 125.403 137.540  0.00  0.00    +0.000 A 
ATOM      6  C   UNL     1     112.591 125.599 137.856  0.00  0.00    +0.000 A 
ATOM      7  C   UNL     1     113.270 125.216 137.587  0.00  0.00    +0.000 A 
ATOM      8  C   UNL     1     111.799 124.824 136.955  0.00  0.00    +0.000 A 
ATOM      9  C   UNL     1     113.401 126.413 138.798  0.00  0.00    +0.000 C 
ATOM     10  C   UNL     1     114.108 126.014 138.518  0.00  0.00    +0.000 C 
ATOM     11  C   UNL     1     114.043 125.412 137.909  0.00  0.00    +0.000 C 
ATOM     12  C   UNL     1     113.214 124.637 137.003  0.00  0.00    +0.000 A 
ATOM     13  C   UNL     1     112.478 124.441 136.686  0.00  0.00    +0.000 A 
ENDROOT
BRANCH   5  18
ATOM     14  O   UNL     1     110.810 125.538 138.504  0.00  0.00    +0.000 OA
ATOM     15  O   UNL     1     111.227 126.665 136.682  0.00  0.00    +0.000 OA
ATOM     16  O   UNL     1     109.867 127.431 137.219  0.00  0.00    +0.000 OA
ATOM     17  O   UNL     1     109.136 126.935 138.613  0.00  0.00    +0.000 OA
ATOM     18  C   UNL     1     111.176 125.786 137.808  0.00  0.00    +0.000 C 
ATOM     19  C   UNL     1     110.861 126.417 137.380  0.00  0.00    +0.000 C 
ATOM     20  C   UNL     1     110.181 126.800 137.648  0.00  0.00    +0.000 C 
ATOM     21  C   UNL     1     109.816 126.552 138.344  0.00  0.00    +0.000 C 
ATOM     22  C   UNL     1     110.130 125.921 138.773  0.00  0.00    +0.000 C 
BRANCH  22  24
ATOM     23  O   UNL     1     110.215 125.327 140.070  0.00  0.00    +0.000 OA
ATOM     24  C   UNL     1     109.765 125.672 139.470  0.00  0.00    +0.000 C 
ENDBRANCH  22  24
ENDBRANCH   5  18
BRANCH   9  27
ATOM     25  O   UNL     1     113.507 129.169 139.549  0.00  0.00    +0.000 OA
ATOM     26  O   UNL     1     113.615 128.731 141.136  0.00  0.00    +0.000 OA
ATOM     27  C   UNL     1     113.454 126.992 139.382  0.00  0.00    +0.000 A 
ATOM     28  C   UNL     1     113.454 127.790 139.173  0.00  0.00    +0.000 A 
ATOM     29  C   UNL     1     113.509 126.774 140.176  0.00  0.00    +0.000 A 
ATOM     30  C   UNL     1     113.507 128.371 139.758  0.00  0.00    +0.000 A 
ATOM     31  C   UNL     1     113.562 127.354 140.761  0.00  0.00    +0.000 A 
ATOM     32  C   UNL     1     113.562 128.152 140.552  0.00  0.00    +0.000 A 
ENDBRANCH   9  27
TORSDOF 3
ENDMDL
MODEL 8
REMARK VINA RESULT:      -9.4      1.406      3.078
REMARK  Name = 42607963
REMARK  3 active torsions:
REMARK  status: ('A' for Active; 'I' for Inactive)
REMARK    1  A    between atoms: C_12  and  C_17
REMARK    2  A    between atoms: C_16  and  C_18
REMARK    3  A    between atoms: C_22  and  C_27
REMARK                            x       y       z     vdW  Elec       q    Type
REMARK                         _______ _______ _______ _____ _____    ______ ____
ROOT
ATOM      1  O   UNL     1     111.754 127.601 136.250  0.00  0.00    +0.000 OA
ATOM      2  O   UNL     1     114.169 126.210 136.980  0.00  0.00    +0.000 OA
ATOM      3  O   UNL     1     114.346 128.650 135.501  0.00  0.00    +0.000 OA
ATOM      4  O   UNL     1     113.160 129.376 135.117  0.00  0.00    +0.000 OA
ATOM      5  C   UNL     1     112.979 126.910 136.612  0.00  0.00    +0.000 A 
ATOM      6  C   UNL     1     112.612 127.550 136.243  0.00  0.00    +0.000 A 
ATOM      7  C   UNL     1     113.068 128.130 135.872  0.00  0.00    +0.000 A 
ATOM      8  C   UNL     1     113.802 126.850 136.610  0.00  0.00    +0.000 A 
ATOM      9  C   UNL     1     111.366 128.265 135.868  0.00  0.00    +0.000 C 
ATOM     10  C   UNL     1     111.840 128.869 135.483  0.00  0.00    +0.000 C 
ATOM     11  C   UNL     1     112.696 128.801 135.485  0.00  0.00    +0.000 C 
ATOM     12  C   UNL     1     113.890 128.070 135.871  0.00  0.00    +0.000 A 
ATOM     13  C   UNL     1     114.257 127.430 136.240  0.00  0.00    +0.000 A 
ENDROOT
BRANCH   5  18
ATOM     14  O   UNL     1     112.203 125.713 136.539  0.00  0.00    +0.000 OA
ATOM     15  O   UNL     1     112.712 126.985 138.238  0.00  0.00    +0.000 OA
ATOM     16  O   UNL     1     111.802 125.825 138.978  0.00  0.00    +0.000 OA
ATOM     17  O   UNL     1     111.158 124.590 138.092  0.00  0.00    +0.000 OA
ATOM     18  C   UNL     1     112.524 126.330 136.981  0.00  0.00    +0.000 C 
ATOM     19  C   UNL     1     112.390 126.367 137.794  0.00  0.00    +0.000 C 
ATOM     20  C   UNL     1     111.935 125.787 138.164  0.00  0.00    +0.000 C 
ATOM     21  C   UNL     1     111.614 125.171 137.722  0.00  0.00    +0.000 C 
ATOM     22  C   UNL     1     111.747 125.133 136.909  0.00  0.00    +0.000 C 
BRANCH  22  24
ATOM     23  O   UNL     1     111.091 124.671 135.726  0.00  0.00    +0.000 OA
ATOM     24  C   UNL     1     111.426 124.516 136.465  0.00  0.00    +0.000 C 
ENDBRANCH  22  24
ENDBRANCH   5  18
BRANCH   9  27
ATOM     25  O   UNL     1     108.948 129.116 137.133  0.00  0.00    +0.000 OA
ATOM     26  O   UNL     1     108.073 128.495 135.879  0.00  0.00    +0.000 OA
ATOM     27  C   UNL     1     110.543 128.322 135.871  0.00  0.00    +0.000 A 
ATOM     28  C   UNL     1     110.157 128.690 136.500  0.00  0.00    +0.000 A 
ATOM     29  C   UNL     1     110.105 128.012 135.244  0.00  0.00    +0.000 A 
ATOM     30  C   UNL     1     109.334 128.748 136.504  0.00  0.00    +0.000 A 
ATOM     31  C   UNL     1     109.282 128.070 135.247  0.00  0.00    +0.000 A 
ATOM     32  C   UNL     1     108.896 128.438 135.877  0.00  0.00    +0.000 A 
ENDBRANCH   9  27
TORSDOF 3
ENDMDL
MODEL 9
REMARK VINA RESULT:      -9.4      1.432      1.902
REMARK  Name = 42607963
REMARK  3 active torsions:
REMARK  status: ('A' for Active; 'I' for Inactive)
REMARK    1  A    between atoms: C_12  and  C_17
REMARK    2  A    between atoms: C_16  and  C_18
REMARK    3  A    between atoms: C_22  and  C_27
REMARK                            x       y       z     vdW  Elec       q    Type
REMARK                         _______ _______ _______ _____ _____    ______ ____
ROOT
ATOM      1  O   UNL     1     111.093 127.436 135.944  0.00  0.00    +0.000 OA
ATOM      2  O   UNL     1     113.291 125.907 137.007  0.00  0.00    +0.000 OA
ATOM      3  O   UNL     1     111.168 124.557 135.648  0.00  0.00    +0.000 OA
ATOM      4  O   UNL     1     110.051 125.287 135.102  0.00  0.00    +0.000 OA
ATOM      5  C   UNL     1     112.195 126.653 136.475  0.00  0.00    +0.000 A 
ATOM      6  C   UNL     1     111.476 126.677 136.071  0.00  0.00    +0.000 A 
ATOM      7  C   UNL     1     111.134 125.978 135.796  0.00  0.00    +0.000 A 
ATOM      8  C   UNL     1     112.571 125.931 136.603  0.00  0.00    +0.000 A 
ATOM      9  C   UNL     1     110.344 127.467 135.524  0.00  0.00    +0.000 C 
ATOM     10  C   UNL     1     109.988 126.740 135.237  0.00  0.00    +0.000 C 
ATOM     11  C   UNL     1     110.385 125.991 135.374  0.00  0.00    +0.000 C 
ATOM     12  C   UNL     1     111.511 125.257 135.924  0.00  0.00    +0.000 A 
ATOM     13  C   UNL     1     112.229 125.232 136.327  0.00  0.00    +0.000 A 
ENDROOT
BRANCH   5  18
ATOM     14  O   UNL     1     112.993 127.815 136.243  0.00  0.00    +0.000 OA
ATOM     15  O   UNL     1     111.967 127.121 138.040  0.00  0.00    +0.000 OA
ATOM     16  O   UNL     1     112.651 128.518 138.591  0.00  0.00    +0.000 OA
ATOM     17  O   UNL     1     113.563 129.447 137.577  0.00  0.00    +0.000 OA
ATOM     18  C   UNL     1     112.537 127.351 136.750  0.00  0.00    +0.000 C 
ATOM     19  C   UNL     1     112.423 127.585 137.533  0.00  0.00    +0.000 C 
ATOM     20  C   UNL     1     112.765 128.284 137.808  0.00  0.00    +0.000 C 
ATOM     21  C   UNL     1     113.221 128.748 137.301  0.00  0.00    +0.000 C 
ATOM     22  C   UNL     1     113.335 128.514 136.519  0.00  0.00    +0.000 C 
BRANCH  22  24
ATOM     23  O   UNL     1     114.153 128.634 135.353  0.00  0.00    +0.000 OA
ATOM     24  C   UNL     1     113.790 128.977 136.011  0.00  0.00    +0.000 C 
ENDBRANCH  22  24
ENDBRANCH   5  18
BRANCH   9  27
ATOM     25  O   UNL     1     108.452 129.451 136.335  0.00  0.00    +0.000 OA
ATOM     26  O   UNL     1     108.844 130.363 135.017  0.00  0.00    +0.000 OA
ATOM     27  C   UNL     1     109.969 128.191 135.397  0.00  0.00    +0.000 A 
ATOM     28  C   UNL     1     109.399 128.459 135.929  0.00  0.00    +0.000 A 
ATOM     29  C   UNL     1     110.165 128.648 134.739  0.00  0.00    +0.000 A 
ATOM     30  C   UNL     1     109.023 129.183 135.803  0.00  0.00    +0.000 A 
ATOM     31  C   UNL     1     109.790 129.371 134.612  0.00  0.00    +0.000 A 
ATOM     32  C   UNL     1     109.219 129.639 135.144  0.00  0.00    +0.000 A 
ENDBRANCH   9  27
TORSDOF 3
ENDMDL
MODEL 10
REMARK VINA RESULT:      -9.2      1.488      3.924
REMARK  Name = 42607963
REMARK  3 active torsions:
REMARK  status: ('A' for Active; 'I' for Inactive)
REMARK    1  A    between atoms: C_12  and  C_17
REMARK    2  A    between atoms: C_16  and  C_18
REMARK    3  A    between atoms: C_22  and  C_27
REMARK                            x       y       z     vdW  Elec       q    Type
REMARK                         _______ _______ _______ _____ _____    ______ ____
ROOT
ATOM      1  O   UNL     1     111.516 126.106 136.987  0.00  0.00    +0.000 OA
ATOM      2  O   UNL     1     109.210 127.728 137.582  0.00  0.00    +0.000 OA
ATOM      3  O   UNL     1     109.223 126.117 135.220  0.00  0.00    +0.000 OA
ATOM      4  O   UNL     1     110.358 125.292 134.887  0.00  0.00    +0.000 OA
ATOM      5  C   UNL     1     110.348 126.919 137.275  0.00  0.00    +0.000 A 
ATOM      6  C   UNL     1     110.728 126.381 136.779  0.00  0.00    +0.000 A 
ATOM      7  C   UNL     1     110.354 126.114 136.094  0.00  0.00    +0.000 A 
ATOM      8  C   UNL     1     109.592 127.190 137.086  0.00  0.00    +0.000 A 
ATOM      9  C   UNL     1     111.918 125.546 136.475  0.00  0.00    +0.000 C 
ATOM     10  C   UNL     1     111.528 125.268 135.762  0.00  0.00    +0.000 C 
ATOM     11  C   UNL     1     110.741 125.553 135.570  0.00  0.00    +0.000 C 
ATOM     12  C   UNL     1     109.598 126.385 135.906  0.00  0.00    +0.000 A 
ATOM     13  C   UNL     1     109.217 126.923 136.401  0.00  0.00    +0.000 A 
ENDROOT
BRANCH   5  18
ATOM     14  O   UNL     1     110.692 126.735 138.649  0.00  0.00    +0.000 OA
ATOM     15  O   UNL     1     111.156 128.357 137.265  0.00  0.00    +0.000 OA
ATOM     16  O   UNL     1     111.905 128.891 138.635  0.00  0.00    +0.000 OA
ATOM     17  O   UNL     1     111.846 127.988 140.015  0.00  0.00    +0.000 OA
ATOM     18  C   UNL     1     110.722 127.186 137.959  0.00  0.00    +0.000 C 
ATOM     19  C   UNL     1     111.126 127.905 137.955  0.00  0.00    +0.000 C 
ATOM     20  C   UNL     1     111.501 128.172 138.640  0.00  0.00    +0.000 C 
ATOM     21  C   UNL     1     111.471 127.720 139.329  0.00  0.00    +0.000 C 
ATOM     22  C   UNL     1     111.067 127.002 139.334  0.00  0.00    +0.000 C 
BRANCH  22  24
ATOM     23  O   UNL     1     110.773 125.767 139.992  0.00  0.00    +0.000 OA
ATOM     24  C   UNL     1     111.037 126.549 140.023  0.00  0.00    +0.000 C 
ENDBRANCH  22  24
ENDBRANCH   5  18
BRANCH   9  27
ATOM     25  O   UNL     1     114.755 125.892 136.425  0.00  0.00    +0.000 OA
ATOM     26  O   UNL     1     114.942 124.469 137.241  0.00  0.00    +0.000 OA
ATOM     27  C   UNL     1     112.674 125.277 136.666  0.00  0.00    +0.000 A 
ATOM     28  C   UNL     1     113.336 125.719 136.450  0.00  0.00    +0.000 A 
ATOM     29  C   UNL     1     112.768 124.566 137.074  0.00  0.00    +0.000 A 
ATOM     30  C   UNL     1     114.093 125.450 136.642  0.00  0.00    +0.000 A 
ATOM     31  C   UNL     1     113.524 124.297 137.266  0.00  0.00    +0.000 A 
ATOM     32  C   UNL     1     114.186 124.739 137.049  0.00  0.00    +0.000 A 
ENDBRANCH   9  27
TORSDOF 3
ENDMDL
