MODEL 1
REMARK VINA RESULT:      -8.9      0.000      0.000
REMARK  Name = 44259696
REMARK  6 active torsions:
REMARK  status: ('A' for Active; 'I' for Inactive)
REMARK    1  A    between atoms: O_2  and  C_17
REMARK    2  A    between atoms: O_2  and  C_19
REMARK    3  A    between atoms: O_9  and  C_27
REMARK    4  A    between atoms: O_11  and  C_33
REMARK    5  A    between atoms: C_16  and  C_18
REMARK    6  A    between atoms: C_26  and  C_28
REMARK                            x       y       z     vdW  Elec       q    Type
REMARK                         _______ _______ _______ _____ _____    ______ ____
ROOT
ATOM      1  O   UNL     1     104.997 127.583 142.402  0.00  0.00    +0.000 OA
ATOM      2  O   UNL     1     107.870 127.336 142.574  0.00  0.00    +0.000 OA
ATOM      3  O   UNL     1     107.254 128.562 142.128  0.00  0.00    +0.000 OA
ATOM      4  C   UNL     1     106.258 125.854 143.042  0.00  0.00    +0.000 A 
ATOM      5  C   UNL     1     105.565 126.327 142.857  0.00  0.00    +0.000 A 
ATOM      6  C   UNL     1     107.041 126.193 142.948  0.00  0.00    +0.000 A 
ATOM      7  C   UNL     1     105.665 127.133 142.579  0.00  0.00    +0.000 A 
ATOM      8  C   UNL     1     106.418 127.460 142.487  0.00  0.00    +0.000 A 
ATOM      9  C   UNL     1     107.121 127.001 142.668  0.00  0.00    +0.000 A 
ATOM     10  C   UNL     1     106.501 128.236 142.219  0.00  0.00    +0.000 A 
ATOM     11  C   UNL     1     105.080 128.359 142.134  0.00  0.00    +0.000 A 
ATOM     12  C   UNL     1     105.833 128.685 142.043  0.00  0.00    +0.000 A 
ENDROOT
BRANCH  11  14
ATOM     13  O   UNL     1     103.016 129.111 140.306  0.00  0.00    +0.000 OA
ATOM     14  C   UNL     1     104.412 128.809 141.957  0.00  0.00    +0.000 A 
ATOM     15  C   UNL     1     104.048 128.735 141.220  0.00  0.00    +0.000 A 
ATOM     16  C   UNL     1     104.106 129.332 142.517  0.00  0.00    +0.000 A 
ATOM     17  C   UNL     1     103.380 129.185 141.043  0.00  0.00    +0.000 A 
ATOM     18  C   UNL     1     103.438 129.782 142.340  0.00  0.00    +0.000 A 
ATOM     19  C   UNL     1     103.075 129.708 141.603  0.00  0.00    +0.000 A 
BRANCH  19  20
ATOM     20  O   UNL     1     102.406 130.158 141.426  0.00  0.00    +0.000 OA
ATOM     21  C   UNL     1     102.252 130.852 141.845  0.00  0.00    +0.000 C 
ENDBRANCH  19  20
ENDBRANCH  11  14
BRANCH  12  22
ATOM     22  O   UNL     1     105.916 129.461 141.775  0.00  0.00    +0.000 OA
ATOM     23  C   UNL     1     106.667 129.793 141.700  0.00  0.00    +0.000 C 
ENDBRANCH  12  22
BRANCH   4  24
ATOM     24  O   UNL     1     106.171 125.078 143.310  0.00  0.00    +0.000 OA
BRANCH  24  33
ATOM     25  O   UNL     1     106.332 125.326 144.708  0.00  0.00    +0.000 OA
ATOM     26  O   UNL     1     104.519 123.716 145.203  0.00  0.00    +0.000 OA
ATOM     27  O   UNL     1     105.284 124.500 146.435  0.00  0.00    +0.000 OA
ATOM     28  O   UNL     1     104.962 124.004 143.640  0.00  0.00    +0.000 OA
ATOM     29  C   UNL     1     105.124 124.252 145.038  0.00  0.00    +0.000 C 
ATOM     30  C   UNL     1     105.506 124.644 145.654  0.00  0.00    +0.000 C 
ATOM     31  C   UNL     1     105.345 124.396 144.256  0.00  0.00    +0.000 C 
ATOM     32  C   UNL     1     106.110 125.181 145.489  0.00  0.00    +0.000 C 
ATOM     33  C   UNL     1     105.949 124.933 144.091  0.00  0.00    +0.000 C 
BRANCH  32  35
ATOM     34  O   UNL     1     107.308 125.487 146.206  0.00  0.00    +0.000 OA
ATOM     35  C   UNL     1     106.493 125.574 146.105  0.00  0.00    +0.000 C 
ENDBRANCH  32  35
ENDBRANCH  24  33
ENDBRANCH   4  24
TORSDOF 6
ENDMDL
MODEL 2
REMARK VINA RESULT:      -8.9      7.303      9.981
REMARK  Name = 44259696
REMARK  6 active torsions:
REMARK  status: ('A' for Active; 'I' for Inactive)
REMARK    1  A    between atoms: O_2  and  C_17
REMARK    2  A    between atoms: O_2  and  C_19
REMARK    3  A    between atoms: O_9  and  C_27
REMARK    4  A    between atoms: O_11  and  C_33
REMARK    5  A    between atoms: C_16  and  C_18
REMARK    6  A    between atoms: C_26  and  C_28
REMARK                            x       y       z     vdW  Elec       q    Type
REMARK                         _______ _______ _______ _____ _____    ______ ____
ROOT
ATOM      1  O   UNL     1     110.722 127.232 136.212  0.00  0.00    +0.000 OA
ATOM      2  O   UNL     1     112.039 129.607 135.225  0.00  0.00    +0.000 OA
ATOM      3  O   UNL     1     112.797 128.444 135.619  0.00  0.00    +0.000 OA
ATOM      4  C   UNL     1     109.862 129.178 135.527  0.00  0.00    +0.000 A 
ATOM      5  C   UNL     1     109.911 128.375 135.830  0.00  0.00    +0.000 A 
ATOM      6  C   UNL     1     110.582 129.598 135.322  0.00  0.00    +0.000 A 
ATOM      7  C   UNL     1     110.680 128.004 135.922  0.00  0.00    +0.000 A 
ATOM      8  C   UNL     1     111.372 128.407 135.724  0.00  0.00    +0.000 A 
ATOM      9  C   UNL     1     111.342 129.211 135.421  0.00  0.00    +0.000 A 
ATOM     10  C   UNL     1     112.105 128.040 135.817  0.00  0.00    +0.000 A 
ATOM     11  C   UNL     1     111.455 126.866 136.305  0.00  0.00    +0.000 A 
ATOM     12  C   UNL     1     112.146 127.270 136.107  0.00  0.00    +0.000 A 
ENDROOT
BRANCH  11  14
ATOM     13  O   UNL     1     111.402 125.045 138.508  0.00  0.00    +0.000 OA
ATOM     14  C   UNL     1     111.496 126.094 136.596  0.00  0.00    +0.000 A 
ATOM     15  C   UNL     1     111.429 125.955 137.406  0.00  0.00    +0.000 A 
ATOM     16  C   UNL     1     111.605 125.463 136.076  0.00  0.00    +0.000 A 
ATOM     17  C   UNL     1     111.470 125.184 137.697  0.00  0.00    +0.000 A 
ATOM     18  C   UNL     1     111.647 124.692 136.367  0.00  0.00    +0.000 A 
ATOM     19  C   UNL     1     111.579 124.553 137.178  0.00  0.00    +0.000 A 
BRANCH  19  20
ATOM     20  O   UNL     1     111.621 123.782 137.468  0.00  0.00    +0.000 OA
ATOM     21  C   UNL     1     111.949 123.183 137.006  0.00  0.00    +0.000 C 
ENDBRANCH  19  20
ENDBRANCH  11  14
BRANCH  12  22
ATOM     22  O   UNL     1     112.879 126.903 136.200  0.00  0.00    +0.000 OA
ATOM     23  C   UNL     1     113.546 127.352 136.381  0.00  0.00    +0.000 C 
ENDBRANCH  12  22
BRANCH   4  24
ATOM     24  O   UNL     1     109.127 129.542 135.436  0.00  0.00    +0.000 OA
BRANCH  24  33
ATOM     25  O   UNL     1     109.061 130.052 136.769  0.00  0.00    +0.000 OA
ATOM     26  O   UNL     1     107.824 132.033 135.950  0.00  0.00    +0.000 OA
ATOM     27  O   UNL     1     108.169 131.882 137.556  0.00  0.00    +0.000 OA
ATOM     28  O   UNL     1     108.303 130.863 134.890  0.00  0.00    +0.000 OA
ATOM     29  C   UNL     1     108.236 131.373 136.223  0.00  0.00    +0.000 C 
ATOM     30  C   UNL     1     108.409 131.297 137.026  0.00  0.00    +0.000 C 
ATOM     31  C   UNL     1     108.475 130.788 135.692  0.00  0.00    +0.000 C 
ATOM     32  C   UNL     1     108.821 130.637 137.299  0.00  0.00    +0.000 C 
ATOM     33  C   UNL     1     108.888 130.128 135.965  0.00  0.00    +0.000 C 
BRANCH  32  35
ATOM     34  O   UNL     1     108.748 129.889 138.514  0.00  0.00    +0.000 OA
ATOM     35  C   UNL     1     108.994 130.561 138.102  0.00  0.00    +0.000 C 
ENDBRANCH  32  35
ENDBRANCH  24  33
ENDBRANCH   4  24
TORSDOF 6
ENDMDL
MODEL 3
REMARK VINA RESULT:      -8.8      1.682      2.895
REMARK  Name = 44259696
REMARK  6 active torsions:
REMARK  status: ('A' for Active; 'I' for Inactive)
REMARK    1  A    between atoms: O_2  and  C_17
REMARK    2  A    between atoms: O_2  and  C_19
REMARK    3  A    between atoms: O_9  and  C_27
REMARK    4  A    between atoms: O_11  and  C_33
REMARK    5  A    between atoms: C_16  and  C_18
REMARK    6  A    between atoms: C_26  and  C_28
REMARK                            x       y       z     vdW  Elec       q    Type
REMARK                         _______ _______ _______ _____ _____    ______ ____
ROOT
ATOM      1  O   UNL     1     105.408 126.407 144.226  0.00  0.00    +0.000 OA
ATOM      2  O   UNL     1     107.267 126.365 146.436  0.00  0.00    +0.000 OA
ATOM      3  O   UNL     1     107.286 127.435 145.469  0.00  0.00    +0.000 OA
ATOM      4  C   UNL     1     105.647 124.923 145.878  0.00  0.00    +0.000 A 
ATOM      5  C   UNL     1     105.346 125.307 145.171  0.00  0.00    +0.000 A 
ATOM      6  C   UNL     1     106.299 125.279 146.310  0.00  0.00    +0.000 A 
ATOM      7  C   UNL     1     105.701 126.043 144.905  0.00  0.00    +0.000 A 
ATOM      8  C   UNL     1     106.327 126.386 145.319  0.00  0.00    +0.000 A 
ATOM      9  C   UNL     1     106.641 126.015 146.029  0.00  0.00    +0.000 A 
ATOM     10  C   UNL     1     106.660 127.092 145.054  0.00  0.00    +0.000 A 
ATOM     11  C   UNL     1     105.740 127.114 143.961  0.00  0.00    +0.000 A 
ATOM     12  C   UNL     1     106.366 127.456 144.375  0.00  0.00    +0.000 A 
ENDROOT
BRANCH  11  14
ATOM     13  O   UNL     1     105.582 127.277 141.112  0.00  0.00    +0.000 OA
ATOM     14  C   UNL     1     105.447 127.479 143.281  0.00  0.00    +0.000 A 
ATOM     15  C   UNL     1     105.661 127.196 142.536  0.00  0.00    +0.000 A 
ATOM     16  C   UNL     1     104.941 128.127 143.347  0.00  0.00    +0.000 A 
ATOM     17  C   UNL     1     105.368 127.560 141.857  0.00  0.00    +0.000 A 
ATOM     18  C   UNL     1     104.647 128.492 142.667  0.00  0.00    +0.000 A 
ATOM     19  C   UNL     1     104.862 128.208 141.922  0.00  0.00    +0.000 A 
BRANCH  19  20
ATOM     20  O   UNL     1     104.568 128.573 141.243  0.00  0.00    +0.000 OA
ATOM     21  C   UNL     1     103.922 129.082 141.293  0.00  0.00    +0.000 C 
ENDBRANCH  19  20
ENDBRANCH  11  14
BRANCH  12  22
ATOM     22  O   UNL     1     106.699 128.163 144.110  0.00  0.00    +0.000 OA
ATOM     23  C   UNL     1     107.238 128.570 144.584  0.00  0.00    +0.000 C 
ENDBRANCH  12  22
BRANCH   4  24
ATOM     24  O   UNL     1     105.313 124.216 146.141  0.00  0.00    +0.000 OA
BRANCH  24  33
ATOM     25  O   UNL     1     104.295 124.783 146.969  0.00  0.00    +0.000 OA
ATOM     26  O   UNL     1     102.713 123.032 146.223  0.00  0.00    +0.000 OA
ATOM     27  O   UNL     1     102.223 124.183 147.299  0.00  0.00    +0.000 OA
ATOM     28  O   UNL     1     104.258 123.049 145.644  0.00  0.00    +0.000 OA
ATOM     29  C   UNL     1     103.240 123.616 146.472  0.00  0.00    +0.000 C 
ATOM     30  C   UNL     1     102.995 124.191 147.009  0.00  0.00    +0.000 C 
ATOM     31  C   UNL     1     104.013 123.624 146.182  0.00  0.00    +0.000 C 
ATOM     32  C   UNL     1     103.523 124.774 147.258  0.00  0.00    +0.000 C 
ATOM     33  C   UNL     1     104.540 124.207 146.430  0.00  0.00    +0.000 C 
BRANCH  32  35
ATOM     34  O   UNL     1     103.729 125.500 148.471  0.00  0.00    +0.000 OA
ATOM     35  C   UNL     1     103.278 125.350 147.796  0.00  0.00    +0.000 C 
ENDBRANCH  32  35
ENDBRANCH  24  33
ENDBRANCH   4  24
TORSDOF 6
ENDMDL
MODEL 4
REMARK VINA RESULT:      -8.8      2.848      3.680
REMARK  Name = 44259696
REMARK  6 active torsions:
REMARK  status: ('A' for Active; 'I' for Inactive)
REMARK    1  A    between atoms: O_2  and  C_17
REMARK    2  A    between atoms: O_2  and  C_19
REMARK    3  A    between atoms: O_9  and  C_27
REMARK    4  A    between atoms: O_11  and  C_33
REMARK    5  A    between atoms: C_16  and  C_18
REMARK    6  A    between atoms: C_26  and  C_28
REMARK                            x       y       z     vdW  Elec       q    Type
REMARK                         _______ _______ _______ _____ _____    ______ ____
ROOT
ATOM      1  O   UNL     1     105.701 125.349 142.496  0.00  0.00    +0.000 OA
ATOM      2  O   UNL     1     107.539 127.352 143.472  0.00  0.00    +0.000 OA
ATOM      3  O   UNL     1     107.664 126.814 142.139  0.00  0.00    +0.000 OA
ATOM      4  C   UNL     1     105.791 126.379 144.476  0.00  0.00    +0.000 A 
ATOM      5  C   UNL     1     105.530 125.857 143.845  0.00  0.00    +0.000 A 
ATOM      6  C   UNL     1     106.472 126.887 144.353  0.00  0.00    +0.000 A 
ATOM      7  C   UNL     1     105.955 125.851 143.099  0.00  0.00    +0.000 A 
ATOM      8  C   UNL     1     106.610 126.340 142.979  0.00  0.00    +0.000 A 
ATOM      9  C   UNL     1     106.884 126.867 143.600  0.00  0.00    +0.000 A 
ATOM     10  C   UNL     1     107.010 126.325 142.258  0.00  0.00    +0.000 A 
ATOM     11  C   UNL     1     106.101 125.334 141.774  0.00  0.00    +0.000 A 
ATOM     12  C   UNL     1     106.755 125.823 141.656  0.00  0.00    +0.000 A 
ENDROOT
BRANCH  11  14
ATOM     13  O   UNL     1     106.035 122.739 140.579  0.00  0.00    +0.000 OA
ATOM     14  C   UNL     1     105.846 124.832 141.171  0.00  0.00    +0.000 A 
ATOM     15  C   UNL     1     106.068 124.037 141.176  0.00  0.00    +0.000 A 
ATOM     16  C   UNL     1     105.371 125.124 140.564  0.00  0.00    +0.000 A 
ATOM     17  C   UNL     1     105.814 123.534 140.574  0.00  0.00    +0.000 A 
ATOM     18  C   UNL     1     105.117 124.621 139.961  0.00  0.00    +0.000 A 
ATOM     19  C   UNL     1     105.339 123.826 139.966  0.00  0.00    +0.000 A 
BRANCH  19  20
ATOM     20  O   UNL     1     105.084 123.324 139.363  0.00  0.00    +0.000 OA
ATOM     21  C   UNL     1     104.586 123.608 138.771  0.00  0.00    +0.000 C 
ENDBRANCH  19  20
ENDBRANCH  11  14
BRANCH  12  22
ATOM     22  O   UNL     1     107.155 125.808 140.934  0.00  0.00    +0.000 OA
ATOM     23  C   UNL     1     107.972 125.918 140.913  0.00  0.00    +0.000 C 
ENDBRANCH  12  22
BRANCH   4  24
ATOM     24  O   UNL     1     105.389 126.391 145.197  0.00  0.00    +0.000 OA
BRANCH  24  33
ATOM     25  O   UNL     1     106.359 125.835 146.087  0.00  0.00    +0.000 OA
ATOM     26  O   UNL     1     104.650 124.283 146.980  0.00  0.00    +0.000 OA
ATOM     27  O   UNL     1     106.190 124.245 147.571  0.00  0.00    +0.000 OA
ATOM     28  O   UNL     1     104.250 125.357 145.792  0.00  0.00    +0.000 OA
ATOM     29  C   UNL     1     105.220 124.801 146.682  0.00  0.00    +0.000 C 
ATOM     30  C   UNL     1     105.989 124.781 146.978  0.00  0.00    +0.000 C 
ATOM     31  C   UNL     1     105.019 125.337 146.088  0.00  0.00    +0.000 C 
ATOM     32  C   UNL     1     106.559 125.299 146.680  0.00  0.00    +0.000 C 
ATOM     33  C   UNL     1     105.588 125.855 145.790  0.00  0.00    +0.000 C 
BRANCH  32  35
ATOM     34  O   UNL     1     107.717 125.985 147.158  0.00  0.00    +0.000 OA
ATOM     35  C   UNL     1     107.328 125.280 146.976  0.00  0.00    +0.000 C 
ENDBRANCH  32  35
ENDBRANCH  24  33
ENDBRANCH   4  24
TORSDOF 6
ENDMDL
MODEL 5
REMARK VINA RESULT:      -8.7      7.995      9.174
REMARK  Name = 44259696
REMARK  6 active torsions:
REMARK  status: ('A' for Active; 'I' for Inactive)
REMARK    1  A    between atoms: O_2  and  C_17
REMARK    2  A    between atoms: O_2  and  C_19
REMARK    3  A    between atoms: O_9  and  C_27
REMARK    4  A    between atoms: O_11  and  C_33
REMARK    5  A    between atoms: C_16  and  C_18
REMARK    6  A    between atoms: C_26  and  C_28
REMARK                            x       y       z     vdW  Elec       q    Type
REMARK                         _______ _______ _______ _____ _____    ______ ____
ROOT
ATOM      1  O   UNL     1     111.208 128.750 136.319  0.00  0.00    +0.000 OA
ATOM      2  O   UNL     1     112.678 128.324 138.770  0.00  0.00    +0.000 OA
ATOM      3  O   UNL     1     111.620 129.300 138.698  0.00  0.00    +0.000 OA
ATOM      4  C   UNL     1     112.882 127.339 136.769  0.00  0.00    +0.000 A 
ATOM      5  C   UNL     1     112.265 127.754 136.337  0.00  0.00    +0.000 A 
ATOM      6  C   UNL     1     113.024 127.530 137.593  0.00  0.00    +0.000 A 
ATOM      7  C   UNL     1     111.799 128.355 136.738  0.00  0.00    +0.000 A 
ATOM      8  C   UNL     1     111.936 128.539 137.531  0.00  0.00    +0.000 A 
ATOM      9  C   UNL     1     112.549 128.133 137.977  0.00  0.00    +0.000 A 
ATOM     10  C   UNL     1     111.482 129.117 137.905  0.00  0.00    +0.000 A 
ATOM     11  C   UNL     1     110.755 129.329 136.693  0.00  0.00    +0.000 A 
ATOM     12  C   UNL     1     110.892 129.512 137.486  0.00  0.00    +0.000 A 
ENDROOT
BRANCH  11  14
ATOM     13  O   UNL     1     108.062 129.465 135.745  0.00  0.00    +0.000 OA
ATOM     14  C   UNL     1     110.164 129.724 136.275  0.00  0.00    +0.000 A 
ATOM     15  C   UNL     1     109.408 129.398 136.219  0.00  0.00    +0.000 A 
ATOM     16  C   UNL     1     110.328 130.447 135.912  0.00  0.00    +0.000 A 
ATOM     17  C   UNL     1     108.817 129.792 135.801  0.00  0.00    +0.000 A 
ATOM     18  C   UNL     1     109.737 130.842 135.494  0.00  0.00    +0.000 A 
ATOM     19  C   UNL     1     108.982 130.515 135.438  0.00  0.00    +0.000 A 
BRANCH  19  20
ATOM     20  O   UNL     1     108.391 130.910 135.020  0.00  0.00    +0.000 OA
ATOM     21  C   UNL     1     108.525 131.673 134.736  0.00  0.00    +0.000 C 
ENDBRANCH  19  20
ENDBRANCH  11  14
BRANCH  12  22
ATOM     22  O   UNL     1     110.438 130.091 137.860  0.00  0.00    +0.000 OA
ATOM     23  C   UNL     1     110.463 130.169 138.681  0.00  0.00    +0.000 C 
ENDBRANCH  12  22
BRANCH   4  24
ATOM     24  O   UNL     1     113.334 126.761 136.392  0.00  0.00    +0.000 OA
BRANCH  24  33
ATOM     25  O   UNL     1     112.414 125.668 136.440  0.00  0.00    +0.000 OA
ATOM     26  O   UNL     1     114.249 124.153 137.121  0.00  0.00    +0.000 OA
ATOM     27  O   UNL     1     112.718 123.566 136.942  0.00  0.00    +0.000 OA
ATOM     28  O   UNL     1     114.557 125.751 136.846  0.00  0.00    +0.000 OA
ATOM     29  C   UNL     1     113.637 124.658 136.894  0.00  0.00    +0.000 C 
ATOM     30  C   UNL     1     112.872 124.364 136.805  0.00  0.00    +0.000 C 
ATOM     31  C   UNL     1     113.792 125.457 136.757  0.00  0.00    +0.000 C 
ATOM     32  C   UNL     1     112.261 124.869 136.577  0.00  0.00    +0.000 C 
ATOM     33  C   UNL     1     113.180 125.962 136.530  0.00  0.00    +0.000 C 
BRANCH  32  35
ATOM     34  O   UNL     1     111.068 124.742 135.801  0.00  0.00    +0.000 OA
ATOM     35  C   UNL     1     111.495 124.576 136.488  0.00  0.00    +0.000 C 
ENDBRANCH  32  35
ENDBRANCH  24  33
ENDBRANCH   4  24
TORSDOF 6
ENDMDL
MODEL 6
REMARK VINA RESULT:      -8.7      6.221      7.807
REMARK  Name = 44259696
REMARK  6 active torsions:
REMARK  status: ('A' for Active; 'I' for Inactive)
REMARK    1  A    between atoms: O_2  and  C_17
REMARK    2  A    between atoms: O_2  and  C_19
REMARK    3  A    between atoms: O_9  and  C_27
REMARK    4  A    between atoms: O_11  and  C_33
REMARK    5  A    between atoms: C_16  and  C_18
REMARK    6  A    between atoms: C_26  and  C_28
REMARK                            x       y       z     vdW  Elec       q    Type
REMARK                         _______ _______ _______ _____ _____    ______ ____
ROOT
ATOM      1  O   UNL     1     110.715 127.401 137.105  0.00  0.00    +0.000 OA
ATOM      2  O   UNL     1     111.341 124.581 137.140  0.00  0.00    +0.000 OA
ATOM      3  O   UNL     1     110.646 125.174 136.025  0.00  0.00    +0.000 OA
ATOM      4  C   UNL     1     111.765 126.178 138.652  0.00  0.00    +0.000 A 
ATOM      5  C   UNL     1     111.417 126.854 138.253  0.00  0.00    +0.000 A 
ATOM      6  C   UNL     1     111.742 125.405 138.277  0.00  0.00    +0.000 A 
ATOM      7  C   UNL     1     111.048 126.748 137.484  0.00  0.00    +0.000 A 
ATOM      8  C   UNL     1     111.025 126.006 137.123  0.00  0.00    +0.000 A 
ATOM      9  C   UNL     1     111.369 125.319 137.508  0.00  0.00    +0.000 A 
ATOM     10  C   UNL     1     110.669 125.916 136.384  0.00  0.00    +0.000 A 
ATOM     11  C   UNL     1     110.359 127.311 136.366  0.00  0.00    +0.000 A 
ATOM     12  C   UNL     1     110.336 126.569 136.006  0.00  0.00    +0.000 A 
ENDROOT
BRANCH  11  14
ATOM     13  O   UNL     1     108.109 129.004 135.872  0.00  0.00    +0.000 OA
ATOM     14  C   UNL     1     110.025 127.964 135.987  0.00  0.00    +0.000 A 
ATOM     15  C   UNL     1     109.234 128.158 136.119  0.00  0.00    +0.000 A 
ATOM     16  C   UNL     1     110.483 128.423 135.476  0.00  0.00    +0.000 A 
ATOM     17  C   UNL     1     108.900 128.810 135.740  0.00  0.00    +0.000 A 
ATOM     18  C   UNL     1     110.149 129.075 135.097  0.00  0.00    +0.000 A 
ATOM     19  C   UNL     1     109.358 129.269 135.230  0.00  0.00    +0.000 A 
BRANCH  19  20
ATOM     20  O   UNL     1     109.024 129.921 134.851  0.00  0.00    +0.000 OA
ATOM     21  C   UNL     1     109.502 130.551 134.615  0.00  0.00    +0.000 C 
ENDBRANCH  19  20
ENDBRANCH  11  14
BRANCH  12  22
ATOM     22  O   UNL     1     109.979 126.480 135.268  0.00  0.00    +0.000 OA
ATOM     23  C   UNL     1     110.036 125.762 134.865  0.00  0.00    +0.000 C 
ENDBRANCH  12  22
BRANCH   4  24
ATOM     24  O   UNL     1     112.121 126.270 139.390  0.00  0.00    +0.000 OA
BRANCH  24  33
ATOM     25  O   UNL     1     110.929 126.110 140.162  0.00  0.00    +0.000 OA
ATOM     26  O   UNL     1     111.756 127.784 141.786  0.00  0.00    +0.000 OA
ATOM     27  O   UNL     1     110.289 127.066 142.016  0.00  0.00    +0.000 OA
ATOM     28  O   UNL     1     112.672 127.386 140.473  0.00  0.00    +0.000 OA
ATOM     29  C   UNL     1     111.481 127.226 141.245  0.00  0.00    +0.000 C 
ATOM     30  C   UNL     1     110.747 126.868 141.360  0.00  0.00    +0.000 C 
ATOM     31  C   UNL     1     111.939 127.028 140.588  0.00  0.00    +0.000 C 
ATOM     32  C   UNL     1     110.472 126.309 140.819  0.00  0.00    +0.000 C 
ATOM     33  C   UNL     1     111.664 126.469 140.047  0.00  0.00    +0.000 C 
BRANCH  32  35
ATOM     34  O   UNL     1     109.690 125.131 141.027  0.00  0.00    +0.000 OA
ATOM     35  C   UNL     1     109.738 125.950 140.933  0.00  0.00    +0.000 C 
ENDBRANCH  32  35
ENDBRANCH  24  33
ENDBRANCH   4  24
TORSDOF 6
ENDMDL
MODEL 7
REMARK VINA RESULT:      -8.7      8.308     10.543
REMARK  Name = 44259696
REMARK  6 active torsions:
REMARK  status: ('A' for Active; 'I' for Inactive)
REMARK    1  A    between atoms: O_2  and  C_17
REMARK    2  A    between atoms: O_2  and  C_19
REMARK    3  A    between atoms: O_9  and  C_27
REMARK    4  A    between atoms: O_11  and  C_33
REMARK    5  A    between atoms: C_16  and  C_18
REMARK    6  A    between atoms: C_26  and  C_28
REMARK                            x       y       z     vdW  Elec       q    Type
REMARK                         _______ _______ _______ _____ _____    ______ ____
ROOT
ATOM      1  O   UNL     1     111.959 127.039 136.331  0.00  0.00    +0.000 OA
ATOM      2  O   UNL     1     110.403 128.762 134.612  0.00  0.00    +0.000 OA
ATOM      3  O   UNL     1     110.003 127.398 134.858  0.00  0.00    +0.000 OA
ATOM      4  C   UNL     1     112.291 129.169 135.745  0.00  0.00    +0.000 A 
ATOM      5  C   UNL     1     112.408 128.403 136.117  0.00  0.00    +0.000 A 
ATOM      6  C   UNL     1     111.612 129.294 135.235  0.00  0.00    +0.000 A 
ATOM      7  C   UNL     1     111.843 127.772 135.972  0.00  0.00    +0.000 A 
ATOM      8  C   UNL     1     111.190 127.892 135.481  0.00  0.00    +0.000 A 
ATOM      9  C   UNL     1     111.058 128.651 135.101  0.00  0.00    +0.000 A 
ATOM     10  C   UNL     1     110.655 127.278 135.349  0.00  0.00    +0.000 A 
ATOM     11  C   UNL     1     111.424 126.425 136.199  0.00  0.00    +0.000 A 
ATOM     12  C   UNL     1     110.772 126.545 135.708  0.00  0.00    +0.000 A 
ENDROOT
BRANCH  11  14
ATOM     13  O   UNL     1     111.160 124.712 138.472  0.00  0.00    +0.000 OA
ATOM     14  C   UNL     1     111.540 125.691 136.558  0.00  0.00    +0.000 A 
ATOM     15  C   UNL     1     111.292 125.568 137.335  0.00  0.00    +0.000 A 
ATOM     16  C   UNL     1     111.905 125.081 136.140  0.00  0.00    +0.000 A 
ATOM     17  C   UNL     1     111.408 124.835 137.695  0.00  0.00    +0.000 A 
ATOM     18  C   UNL     1     112.021 124.347 136.499  0.00  0.00    +0.000 A 
ATOM     19  C   UNL     1     111.773 124.225 137.276  0.00  0.00    +0.000 A 
BRANCH  19  20
ATOM     20  O   UNL     1     111.889 123.491 137.635  0.00  0.00    +0.000 OA
ATOM     21  C   UNL     1     111.991 122.816 137.172  0.00  0.00    +0.000 C 
ENDBRANCH  19  20
ENDBRANCH  11  14
BRANCH  12  22
ATOM     22  O   UNL     1     110.236 125.932 135.576  0.00  0.00    +0.000 OA
ATOM     23  C   UNL     1     109.657 126.007 134.994  0.00  0.00    +0.000 C 
ENDBRANCH  12  22
BRANCH   4  24
ATOM     24  O   UNL     1     112.828 129.781 135.879  0.00  0.00    +0.000 OA
BRANCH  24  33
ATOM     25  O   UNL     1     112.227 130.309 137.063  0.00  0.00    +0.000 OA
ATOM     26  O   UNL     1     114.472 130.689 138.034  0.00  0.00    +0.000 OA
ATOM     27  O   UNL     1     113.123 131.090 138.893  0.00  0.00    +0.000 OA
ATOM     28  O   UNL     1     114.325 130.035 136.526  0.00  0.00    +0.000 OA
ATOM     29  C   UNL     1     113.724 130.563 137.710  0.00  0.00    +0.000 C 
ATOM     30  C   UNL     1     113.049 130.763 138.140  0.00  0.00    +0.000 C 
ATOM     31  C   UNL     1     113.651 130.235 136.956  0.00  0.00    +0.000 C 
ATOM     32  C   UNL     1     112.301 130.636 137.817  0.00  0.00    +0.000 C 
ATOM     33  C   UNL     1     112.902 130.108 136.633  0.00  0.00    +0.000 C 
BRANCH  32  35
ATOM     34  O   UNL     1     111.095 131.392 137.944  0.00  0.00    +0.000 OA
ATOM     35  C   UNL     1     111.626 130.837 138.246  0.00  0.00    +0.000 C 
ENDBRANCH  32  35
ENDBRANCH  24  33
ENDBRANCH   4  24
TORSDOF 6
ENDMDL
MODEL 8
REMARK VINA RESULT:      -8.6      1.987      5.574
REMARK  Name = 44259696
REMARK  6 active torsions:
REMARK  status: ('A' for Active; 'I' for Inactive)
REMARK    1  A    between atoms: O_2  and  C_17
REMARK    2  A    between atoms: O_2  and  C_19
REMARK    3  A    between atoms: O_9  and  C_27
REMARK    4  A    between atoms: O_11  and  C_33
REMARK    5  A    between atoms: C_16  and  C_18
REMARK    6  A    between atoms: C_26  and  C_28
REMARK                            x       y       z     vdW  Elec       q    Type
REMARK                         _______ _______ _______ _____ _____    ______ ____
ROOT
ATOM      1  O   UNL     1     104.598 125.545 145.747  0.00  0.00    +0.000 OA
ATOM      2  O   UNL     1     107.401 126.131 146.129  0.00  0.00    +0.000 OA
ATOM      3  O   UNL     1     106.724 125.161 146.955  0.00  0.00    +0.000 OA
ATOM      4  C   UNL     1     105.933 126.969 144.660  0.00  0.00    +0.000 A 
ATOM      5  C   UNL     1     105.230 126.530 144.888  0.00  0.00    +0.000 A 
ATOM      6  C   UNL     1     106.671 126.836 145.079  0.00  0.00    +0.000 A 
ATOM      7  C   UNL     1     105.275 125.964 145.532  0.00  0.00    +0.000 A 
ATOM      8  C   UNL     1     105.984 125.836 145.936  0.00  0.00    +0.000 A 
ATOM      9  C   UNL     1     106.697 126.266 145.721  0.00  0.00    +0.000 A 
ATOM     10  C   UNL     1     106.015 125.289 146.553  0.00  0.00    +0.000 A 
ATOM     11  C   UNL     1     104.629 124.999 146.365  0.00  0.00    +0.000 A 
ATOM     12  C   UNL     1     105.338 124.871 146.767  0.00  0.00    +0.000 A 
ENDROOT
BRANCH  11  14
ATOM     13  O   UNL     1     102.908 122.740 146.039  0.00  0.00    +0.000 OA
ATOM     14  C   UNL     1     103.951 124.580 146.580  0.00  0.00    +0.000 A 
ATOM     15  C   UNL     1     103.768 123.870 146.202  0.00  0.00    +0.000 A 
ATOM     16  C   UNL     1     103.456 124.872 147.172  0.00  0.00    +0.000 A 
ATOM     17  C   UNL     1     103.091 123.450 146.417  0.00  0.00    +0.000 A 
ATOM     18  C   UNL     1     102.779 124.453 147.387  0.00  0.00    +0.000 A 
ATOM     19  C   UNL     1     102.596 123.742 147.009  0.00  0.00    +0.000 A 
BRANCH  19  20
ATOM     20  O   UNL     1     101.919 123.324 147.224  0.00  0.00    +0.000 OA
ATOM     21  C   UNL     1     101.425 123.613 147.818  0.00  0.00    +0.000 C 
ENDBRANCH  19  20
ENDBRANCH  11  14
BRANCH  12  22
ATOM     22  O   UNL     1     105.369 124.325 147.384  0.00  0.00    +0.000 OA
ATOM     23  C   UNL     1     105.923 124.414 147.988  0.00  0.00    +0.000 C 
ENDBRANCH  12  22
BRANCH   4  24
ATOM     24  O   UNL     1     105.899 127.515 144.042  0.00  0.00    +0.000 OA
BRANCH  24  33
ATOM     25  O   UNL     1     106.297 126.609 143.011  0.00  0.00    +0.000 OA
ATOM     26  O   UNL     1     104.780 127.750 141.423  0.00  0.00    +0.000 OA
ATOM     27  O   UNL     1     105.684 126.465 140.922  0.00  0.00    +0.000 OA
ATOM     28  O   UNL     1     104.888 128.276 142.984  0.00  0.00    +0.000 OA
ATOM     29  C   UNL     1     105.286 127.370 141.953  0.00  0.00    +0.000 C 
ATOM     30  C   UNL     1     105.738 126.727 141.702  0.00  0.00    +0.000 C 
ATOM     31  C   UNL     1     105.339 127.633 142.733  0.00  0.00    +0.000 C 
ATOM     32  C   UNL     1     106.243 126.347 142.231  0.00  0.00    +0.000 C 
ATOM     33  C   UNL     1     105.845 127.253 143.262  0.00  0.00    +0.000 C 
BRANCH  32  35
ATOM     34  O   UNL     1     107.512 125.703 142.101  0.00  0.00    +0.000 OA
ATOM     35  C   UNL     1     106.695 125.704 141.981  0.00  0.00    +0.000 C 
ENDBRANCH  32  35
ENDBRANCH  24  33
ENDBRANCH   4  24
TORSDOF 6
ENDMDL
MODEL 9
REMARK VINA RESULT:      -8.5      8.392      9.264
REMARK  Name = 44259696
REMARK  6 active torsions:
REMARK  status: ('A' for Active; 'I' for Inactive)
REMARK    1  A    between atoms: O_2  and  C_17
REMARK    2  A    between atoms: O_2  and  C_19
REMARK    3  A    between atoms: O_9  and  C_27
REMARK    4  A    between atoms: O_11  and  C_33
REMARK    5  A    between atoms: C_16  and  C_18
REMARK    6  A    between atoms: C_26  and  C_28
REMARK                            x       y       z     vdW  Elec       q    Type
REMARK                         _______ _______ _______ _____ _____    ______ ____
ROOT
ATOM      1  O   UNL     1     112.341 128.621 138.421  0.00  0.00    +0.000 OA
ATOM      2  O   UNL     1     113.926 127.401 140.507  0.00  0.00    +0.000 OA
ATOM      3  O   UNL     1     113.961 128.825 140.282  0.00  0.00    +0.000 OA
ATOM      4  C   UNL     1     112.519 126.478 139.029  0.00  0.00    +0.000 A 
ATOM      5  C   UNL     1     112.269 127.182 138.604  0.00  0.00    +0.000 A 
ATOM      6  C   UNL     1     113.081 126.548 139.674  0.00  0.00    +0.000 A 
ATOM      7  C   UNL     1     112.585 127.948 138.832  0.00  0.00    +0.000 A 
ATOM      8  C   UNL     1     113.125 128.016 139.453  0.00  0.00    +0.000 A 
ATOM      9  C   UNL     1     113.385 127.323 139.888  0.00  0.00    +0.000 A 
ATOM     10  C   UNL     1     113.421 128.757 139.662  0.00  0.00    +0.000 A 
ATOM     11  C   UNL     1     112.638 129.361 138.631  0.00  0.00    +0.000 A 
ATOM     12  C   UNL     1     113.177 129.429 139.251  0.00  0.00    +0.000 A 
ENDROOT
BRANCH  11  14
ATOM     13  O   UNL     1     113.008 131.228 136.499  0.00  0.00    +0.000 OA
ATOM     14  C   UNL     1     112.394 130.034 138.220  0.00  0.00    +0.000 A 
ATOM     15  C   UNL     1     112.822 130.295 137.565  0.00  0.00    +0.000 A 
ATOM     16  C   UNL     1     111.723 130.447 138.465  0.00  0.00    +0.000 A 
ATOM     17  C   UNL     1     112.580 130.968 137.154  0.00  0.00    +0.000 A 
ATOM     18  C   UNL     1     111.480 131.120 138.054  0.00  0.00    +0.000 A 
ATOM     19  C   UNL     1     111.909 131.380 137.399  0.00  0.00    +0.000 A 
BRANCH  19  20
ATOM     20  O   UNL     1     111.665 132.053 136.988  0.00  0.00    +0.000 OA
ATOM     21  C   UNL     1     110.957 132.426 137.188  0.00  0.00    +0.000 C 
ENDBRANCH  19  20
ENDBRANCH  11  14
BRANCH  12  22
ATOM     22  O   UNL     1     113.474 130.170 139.461  0.00  0.00    +0.000 OA
ATOM     23  C   UNL     1     114.128 130.228 139.959  0.00  0.00    +0.000 C 
ENDBRANCH  12  22
BRANCH   4  24
ATOM     24  O   UNL     1     112.221 125.738 138.817  0.00  0.00    +0.000 OA
BRANCH  24  33
ATOM     25  O   UNL     1     113.300 125.369 137.955  0.00  0.00    +0.000 OA
ATOM     26  O   UNL     1     111.705 124.224 136.448  0.00  0.00    +0.000 OA
ATOM     27  O   UNL     1     113.314 124.237 136.090  0.00  0.00    +0.000 OA
ATOM     28  O   UNL     1     111.158 124.975 137.812  0.00  0.00    +0.000 OA
ATOM     29  C   UNL     1     112.236 124.606 136.951  0.00  0.00    +0.000 C 
ATOM     30  C   UNL     1     113.041 124.612 136.771  0.00  0.00    +0.000 C 
ATOM     31  C   UNL     1     111.962 124.981 137.633  0.00  0.00    +0.000 C 
ATOM     32  C   UNL     1     113.572 124.994 137.273  0.00  0.00    +0.000 C 
ATOM     33  C   UNL     1     112.494 125.363 138.135  0.00  0.00    +0.000 C 
BRANCH  32  35
ATOM     34  O   UNL     1     114.924 124.707 137.640  0.00  0.00    +0.000 OA
ATOM     35  C   UNL     1     114.378 125.000 137.094  0.00  0.00    +0.000 C 
ENDBRANCH  32  35
ENDBRANCH  24  33
ENDBRANCH   4  24
TORSDOF 6
ENDMDL
MODEL 10
REMARK VINA RESULT:      -8.5      7.371      9.684
REMARK  Name = 44259696
REMARK  6 active torsions:
REMARK  status: ('A' for Active; 'I' for Inactive)
REMARK    1  A    between atoms: O_2  and  C_17
REMARK    2  A    between atoms: O_2  and  C_19
REMARK    3  A    between atoms: O_9  and  C_27
REMARK    4  A    between atoms: O_11  and  C_33
REMARK    5  A    between atoms: C_16  and  C_18
REMARK    6  A    between atoms: C_26  and  C_28
REMARK                            x       y       z     vdW  Elec       q    Type
REMARK                         _______ _______ _______ _____ _____    ______ ____
ROOT
ATOM      1  O   UNL     1     110.840 127.169 137.159  0.00  0.00    +0.000 OA
ATOM      2  O   UNL     1     108.940 128.506 135.442  0.00  0.00    +0.000 OA
ATOM      3  O   UNL     1     109.695 127.370 134.974  0.00  0.00    +0.000 OA
ATOM      4  C   UNL     1     109.525 128.929 137.562  0.00  0.00    +0.000 A 
ATOM      5  C   UNL     1     110.106 128.308 137.681  0.00  0.00    +0.000 A 
ATOM      6  C   UNL     1     109.128 129.000 136.804  0.00  0.00    +0.000 A 
ATOM      7  C   UNL     1     110.281 127.764 137.040  0.00  0.00    +0.000 A 
ATOM      8  C   UNL     1     109.900 127.831 136.311  0.00  0.00    +0.000 A 
ATOM      9  C   UNL     1     109.316 128.447 136.174  0.00  0.00    +0.000 A 
ATOM     10  C   UNL     1     110.077 127.303 135.702  0.00  0.00    +0.000 A 
ATOM     11  C   UNL     1     111.017 126.641 136.550  0.00  0.00    +0.000 A 
ATOM     12  C   UNL     1     110.635 126.708 135.822  0.00  0.00    +0.000 A 
ENDROOT
BRANCH  11  14
ATOM     13  O   UNL     1     111.681 124.020 137.476  0.00  0.00    +0.000 OA
ATOM     14  C   UNL     1     111.576 126.045 136.670  0.00  0.00    +0.000 A 
ATOM     15  C   UNL     1     111.349 125.330 137.013  0.00  0.00    +0.000 A 
ATOM     16  C   UNL     1     112.361 126.165 136.446  0.00  0.00    +0.000 A 
ATOM     17  C   UNL     1     111.907 124.735 137.133  0.00  0.00    +0.000 A 
ATOM     18  C   UNL     1     112.919 125.570 136.566  0.00  0.00    +0.000 A 
ATOM     19  C   UNL     1     112.692 124.855 136.909  0.00  0.00    +0.000 A 
BRANCH  19  20
ATOM     20  O   UNL     1     113.251 124.259 137.029  0.00  0.00    +0.000 OA
ATOM     21  C   UNL     1     114.055 124.428 136.962  0.00  0.00    +0.000 C 
ENDBRANCH  19  20
ENDBRANCH  11  14
BRANCH  12  22
ATOM     22  O   UNL     1     110.812 126.180 135.213  0.00  0.00    +0.000 OA
ATOM     23  C   UNL     1     110.264 126.042 134.613  0.00  0.00    +0.000 C 
ENDBRANCH  12  22
BRANCH   4  24
ATOM     24  O   UNL     1     109.350 129.456 138.173  0.00  0.00    +0.000 OA
BRANCH  24  33
ATOM     25  O   UNL     1     110.422 130.379 137.972  0.00  0.00    +0.000 OA
ATOM     26  O   UNL     1     108.876 132.266 138.385  0.00  0.00    +0.000 OA
ATOM     27  O   UNL     1     110.464 132.559 138.046  0.00  0.00    +0.000 OA
ATOM     28  O   UNL     1     108.319 130.715 138.448  0.00  0.00    +0.000 OA
ATOM     29  C   UNL     1     109.392 131.637 138.247  0.00  0.00    +0.000 C 
ATOM     30  C   UNL     1     110.185 131.784 138.078  0.00  0.00    +0.000 C 
ATOM     31  C   UNL     1     109.112 130.861 138.279  0.00  0.00    +0.000 C 
ATOM     32  C   UNL     1     110.700 131.154 137.940  0.00  0.00    +0.000 C 
ATOM     33  C   UNL     1     109.628 130.232 138.141  0.00  0.00    +0.000 C 
BRANCH  32  35
ATOM     34  O   UNL     1     112.082 131.024 138.280  0.00  0.00    +0.000 OA
ATOM     35  C   UNL     1     111.494 131.300 137.771  0.00  0.00    +0.000 C 
ENDBRANCH  32  35
ENDBRANCH  24  33
ENDBRANCH   4  24
TORSDOF 6
ENDMDL
