MODEL 1
REMARK VINA RESULT:      -9.5      0.000      0.000
REMARK  Name = 131837145
REMARK  11 active torsions:
REMARK  status: ('A' for Active; 'I' for Inactive)
REMARK    1  A    between atoms: O_2  and  C_15
REMARK    2  A    between atoms: O_2  and  C_18
REMARK    3  A    between atoms: C_16  and  C_17
REMARK    4  A    between atoms: C_19  and  C_23
REMARK    5  A    between atoms: C_22  and  C_26
REMARK    6  A    between atoms: C_23  and  C_28
REMARK    7  A    between atoms: C_25  and  C_26
REMARK    8  A    between atoms: C_25  and  C_27
REMARK    9  A    between atoms: C_27  and  C_29
REMARK   10  A    between atoms: C_32  and  C_34
REMARK   11  A    between atoms: C_34  and  C_39
REMARK                            x       y       z     vdW  Elec       q    Type
REMARK                         _______ _______ _______ _____ _____    ______ ____
ROOT
ATOM      1  O   UNL     1     109.468 129.011 135.845  0.00  0.00    +0.000 OA
ATOM      2  C   UNL     1     111.335 130.087 136.195  0.00  0.00    +0.000 A 
ATOM      3  C   UNL     1     111.887 129.530 135.937  0.00  0.00    +0.000 A 
ATOM      4  C   UNL     1     110.529 129.914 136.164  0.00  0.00    +0.000 A 
ATOM      5  C   UNL     1     111.632 128.800 135.649  0.00  0.00    +0.000 A 
ATOM      6  C   UNL     1     110.826 128.627 135.618  0.00  0.00    +0.000 A 
ATOM      7  C   UNL     1     110.275 129.184 135.876  0.00  0.00    +0.000 A 
ENDROOT
BRANCH   6   9
ATOM      8  O   UNL     1     110.119 127.861 134.642  0.00  0.00    +0.000 OA
ATOM      9  C   UNL     1     110.571 127.897 135.330  0.00  0.00    +0.000 C 
BRANCH   9  11
ATOM     10  O   UNL     1     110.567 127.115 136.526  0.00  0.00    +0.000 OA
ATOM     11  C   UNL     1     110.769 127.204 135.732  0.00  0.00    +0.000 C 
BRANCH  11  12
ATOM     12  C   UNL     1     111.169 126.600 135.338  0.00  0.00    +0.000 C 
BRANCH  12  14
ATOM     13  O   UNL     1     111.978 123.832 136.943  0.00  0.00    +0.000 OA
ATOM     14  C   UNL     1     111.371 125.908 135.739  0.00  0.00    +0.000 A 
ATOM     15  C   UNL     1     112.130 125.818 136.051  0.00  0.00    +0.000 A 
ATOM     16  C   UNL     1     112.332 125.126 136.452  0.00  0.00    +0.000 A 
ATOM     17  C   UNL     1     110.815 125.305 135.828  0.00  0.00    +0.000 A 
ATOM     18  C   UNL     1     111.775 124.524 136.542  0.00  0.00    +0.000 A 
ATOM     19  C   UNL     1     111.018 124.613 136.230  0.00  0.00    +0.000 A 
BRANCH  16  20
ATOM     20  C   UNL     1     113.091 125.037 136.764  0.00  0.00    +0.000 C 
BRANCH  20  21
ATOM     21  C   UNL     1     113.749 125.241 136.310  0.00  0.00    +0.000 C 
ATOM     22  C   UNL     1     114.499 125.252 136.655  0.00  0.00    +0.000 C 
ATOM     23  C   UNL     1     115.158 125.456 136.201  0.00  0.00    +0.000 C 
ATOM     24  C   UNL     1     114.591 125.060 137.452  0.00  0.00    +0.000 C 
ENDBRANCH  20  21
ENDBRANCH  16  20
ENDBRANCH  12  14
ENDBRANCH  11  12
ENDBRANCH   9  11
ENDBRANCH   6   9
BRANCH   2  25
ATOM     25  O   UNL     1     111.589 130.817 136.483  0.00  0.00    +0.000 OA
BRANCH  25  33
ATOM     26  O   UNL     1     111.315 130.689 137.879  0.00  0.00    +0.000 OA
ATOM     27  O   UNL     1     110.200 132.899 137.862  0.00  0.00    +0.000 OA
ATOM     28  O   UNL     1     110.846 132.290 136.471  0.00  0.00    +0.000 OA
ATOM     29  O   UNL     1     110.298 132.035 139.264  0.00  0.00    +0.000 OA
ATOM     30  C   UNL     1     110.572 132.162 137.868  0.00  0.00    +0.000 C 
ATOM     31  C   UNL     1     110.895 131.858 137.172  0.00  0.00    +0.000 C 
ATOM     32  C   UNL     1     110.621 131.731 138.569  0.00  0.00    +0.000 C 
ATOM     33  C   UNL     1     111.266 131.122 137.178  0.00  0.00    +0.000 C 
ATOM     34  C   UNL     1     110.993 130.994 138.574  0.00  0.00    +0.000 C 
BRANCH  34  37
ATOM     35  O   UNL     1     111.713 130.626 139.752  0.00  0.00    +0.000 OA
ATOM     36  O   UNL     1     110.421 130.067 139.499  0.00  0.00    +0.000 OA
ATOM     37  C   UNL     1     111.042 130.562 139.275  0.00  0.00    +0.000 C 
ENDBRANCH  34  37
ENDBRANCH  25  33
ENDBRANCH   2  25
BRANCH   3  38
ATOM     38  C   UNL     1     112.692 129.703 135.968  0.00  0.00    +0.000 C 
BRANCH  38  39
ATOM     39  C   UNL     1     113.219 129.310 135.468  0.00  0.00    +0.000 C 
ATOM     40  C   UNL     1     114.031 129.380 135.587  0.00  0.00    +0.000 C 
ATOM     41  C   UNL     1     114.558 128.988 135.087  0.00  0.00    +0.000 C 
ATOM     42  C   UNL     1     114.319 129.843 136.206  0.00  0.00    +0.000 C 
ENDBRANCH  38  39
ENDBRANCH   3  38
TORSDOF 11
ENDMDL
MODEL 2
REMARK VINA RESULT:      -9.5      1.676      2.886
REMARK  Name = 131837145
REMARK  11 active torsions:
REMARK  status: ('A' for Active; 'I' for Inactive)
REMARK    1  A    between atoms: O_2  and  C_15
REMARK    2  A    between atoms: O_2  and  C_18
REMARK    3  A    between atoms: C_16  and  C_17
REMARK    4  A    between atoms: C_19  and  C_23
REMARK    5  A    between atoms: C_22  and  C_26
REMARK    6  A    between atoms: C_23  and  C_28
REMARK    7  A    between atoms: C_25  and  C_26
REMARK    8  A    between atoms: C_25  and  C_27
REMARK    9  A    between atoms: C_27  and  C_29
REMARK   10  A    between atoms: C_32  and  C_34
REMARK   11  A    between atoms: C_34  and  C_39
REMARK                            x       y       z     vdW  Elec       q    Type
REMARK                         _______ _______ _______ _____ _____    ______ ____
ROOT
ATOM      1  O   UNL     1     111.530 130.601 136.986  0.00  0.00    +0.000 OA
ATOM      2  C   UNL     1     111.794 129.510 138.858  0.00  0.00    +0.000 A 
ATOM      3  C   UNL     1     112.051 128.778 138.578  0.00  0.00    +0.000 A 
ATOM      4  C   UNL     1     111.621 130.118 138.329  0.00  0.00    +0.000 A 
ATOM      5  C   UNL     1     112.134 128.654 137.767  0.00  0.00    +0.000 A 
ATOM      6  C   UNL     1     111.960 129.262 137.236  0.00  0.00    +0.000 A 
ATOM      7  C   UNL     1     111.704 129.993 137.517  0.00  0.00    +0.000 A 
ENDROOT
BRANCH   6   9
ATOM      8  O   UNL     1     112.636 129.529 136.006  0.00  0.00    +0.000 OA
ATOM      9  C   UNL     1     112.043 129.137 136.424  0.00  0.00    +0.000 C 
BRANCH   9  11
ATOM     10  O   UNL     1     110.719 128.673 136.155  0.00  0.00    +0.000 OA
ATOM     11  C   UNL     1     111.533 128.621 136.032  0.00  0.00    +0.000 C 
BRANCH  11  12
ATOM     12  C   UNL     1     111.837 128.053 135.518  0.00  0.00    +0.000 C 
BRANCH  12  14
ATOM     13  O   UNL     1     110.097 125.330 134.847  0.00  0.00    +0.000 OA
ATOM     14  C   UNL     1     111.402 127.372 135.350  0.00  0.00    +0.000 A 
ATOM     15  C   UNL     1     111.564 126.670 135.752  0.00  0.00    +0.000 A 
ATOM     16  C   UNL     1     111.129 125.989 135.584  0.00  0.00    +0.000 A 
ATOM     17  C   UNL     1     110.805 127.394 134.780  0.00  0.00    +0.000 A 
ATOM     18  C   UNL     1     110.532 126.011 135.014  0.00  0.00    +0.000 A 
ATOM     19  C   UNL     1     110.370 126.713 134.613  0.00  0.00    +0.000 A 
BRANCH  16  20
ATOM     20  C   UNL     1     111.291 125.287 135.986  0.00  0.00    +0.000 C 
BRANCH  20  21
ATOM     21  C   UNL     1     112.071 125.034 136.075  0.00  0.00    +0.000 C 
ATOM     22  C   UNL     1     112.250 124.429 136.608  0.00  0.00    +0.000 C 
ATOM     23  C   UNL     1     113.030 124.176 136.697  0.00  0.00    +0.000 C 
ATOM     24  C   UNL     1     111.649 124.079 137.052  0.00  0.00    +0.000 C 
ENDBRANCH  20  21
ENDBRANCH  16  20
ENDBRANCH  12  14
ENDBRANCH  11  12
ENDBRANCH   9  11
ENDBRANCH   6   9
BRANCH   2  25
ATOM     25  O   UNL     1     111.711 129.635 139.670  0.00  0.00    +0.000 OA
BRANCH  25  33
ATOM     26  O   UNL     1     110.292 129.777 139.754  0.00  0.00    +0.000 OA
ATOM     27  O   UNL     1     110.577 131.730 141.248  0.00  0.00    +0.000 OA
ATOM     28  O   UNL     1     111.901 130.936 140.666  0.00  0.00    +0.000 OA
ATOM     29  O   UNL     1     109.064 131.222 140.834  0.00  0.00    +0.000 OA
ATOM     30  C   UNL     1     110.482 131.079 140.750  0.00  0.00    +0.000 C 
ATOM     31  C   UNL     1     111.145 130.683 140.459  0.00  0.00    +0.000 C 
ATOM     32  C   UNL     1     109.725 130.825 140.543  0.00  0.00    +0.000 C 
ATOM     33  C   UNL     1     111.050 130.032 139.961  0.00  0.00    +0.000 C 
ATOM     34  C   UNL     1     109.630 130.175 140.045  0.00  0.00    +0.000 C 
BRANCH  34  37
ATOM     35  O   UNL     1     108.526 129.289 140.242  0.00  0.00    +0.000 OA
ATOM     36  O   UNL     1     108.464 130.295 139.228  0.00  0.00    +0.000 OA
ATOM     37  C   UNL     1     108.874 129.920 139.838  0.00  0.00    +0.000 C 
ENDBRANCH  34  37
ENDBRANCH  25  33
ENDBRANCH   2  25
BRANCH   3  38
ATOM     38  C   UNL     1     112.225 128.171 139.108  0.00  0.00    +0.000 C 
BRANCH  38  39
ATOM     39  C   UNL     1     112.901 127.710 139.001  0.00  0.00    +0.000 C 
ATOM     40  C   UNL     1     112.976 126.989 139.394  0.00  0.00    +0.000 C 
ATOM     41  C   UNL     1     113.652 126.528 139.287  0.00  0.00    +0.000 C 
ATOM     42  C   UNL     1     112.374 126.727 139.893  0.00  0.00    +0.000 C 
ENDBRANCH  38  39
ENDBRANCH   3  38
TORSDOF 11
ENDMDL
MODEL 3
REMARK VINA RESULT:      -9.5      1.905      3.589
REMARK  Name = 131837145
REMARK  11 active torsions:
REMARK  status: ('A' for Active; 'I' for Inactive)
REMARK    1  A    between atoms: O_2  and  C_15
REMARK    2  A    between atoms: O_2  and  C_18
REMARK    3  A    between atoms: C_16  and  C_17
REMARK    4  A    between atoms: C_19  and  C_23
REMARK    5  A    between atoms: C_22  and  C_26
REMARK    6  A    between atoms: C_23  and  C_28
REMARK    7  A    between atoms: C_25  and  C_26
REMARK    8  A    between atoms: C_25  and  C_27
REMARK    9  A    between atoms: C_27  and  C_29
REMARK   10  A    between atoms: C_32  and  C_34
REMARK   11  A    between atoms: C_34  and  C_39
REMARK                            x       y       z     vdW  Elec       q    Type
REMARK                         _______ _______ _______ _____ _____    ______ ____
ROOT
ATOM      1  O   UNL     1     110.365 126.413 134.659  0.00  0.00    +0.000 OA
ATOM      2  C   UNL     1     109.556 127.371 136.446  0.00  0.00    +0.000 A 
ATOM      3  C   UNL     1     109.856 126.880 137.037  0.00  0.00    +0.000 A 
ATOM      4  C   UNL     1     109.725 127.216 135.654  0.00  0.00    +0.000 A 
ATOM      5  C   UNL     1     110.327 126.233 136.835  0.00  0.00    +0.000 A 
ATOM      6  C   UNL     1     110.497 126.077 136.042  0.00  0.00    +0.000 A 
ATOM      7  C   UNL     1     110.196 126.569 135.452  0.00  0.00    +0.000 A 
ENDROOT
BRANCH   6   9
ATOM      8  O   UNL     1     110.636 124.787 135.446  0.00  0.00    +0.000 OA
ATOM      9  C   UNL     1     110.967 125.430 135.840  0.00  0.00    +0.000 C 
BRANCH   9  11
ATOM     10  O   UNL     1     112.269 126.009 135.729  0.00  0.00    +0.000 OA
ATOM     11  C   UNL     1     111.770 125.428 136.034  0.00  0.00    +0.000 C 
BRANCH  11  12
ATOM     12  C   UNL     1     112.071 124.844 136.532  0.00  0.00    +0.000 C 
BRANCH  12  14
ATOM     13  O   UNL     1     115.121 125.135 137.760  0.00  0.00    +0.000 OA
ATOM     14  C   UNL     1     112.834 124.917 136.839  0.00  0.00    +0.000 A 
ATOM     15  C   UNL     1     112.960 125.345 137.533  0.00  0.00    +0.000 A 
ATOM     16  C   UNL     1     113.723 125.417 137.839  0.00  0.00    +0.000 A 
ATOM     17  C   UNL     1     113.470 124.561 136.452  0.00  0.00    +0.000 A 
ATOM     18  C   UNL     1     114.359 125.062 137.452  0.00  0.00    +0.000 A 
ATOM     19  C   UNL     1     114.232 124.634 136.759  0.00  0.00    +0.000 A 
BRANCH  16  20
ATOM     20  C   UNL     1     113.849 125.846 138.533  0.00  0.00    +0.000 C 
BRANCH  20  21
ATOM     21  C   UNL     1     113.527 126.601 138.615  0.00  0.00    +0.000 C 
ATOM     22  C   UNL     1     113.547 126.980 139.349  0.00  0.00    +0.000 C 
ATOM     23  C   UNL     1     113.224 127.735 139.431  0.00  0.00    +0.000 C 
ATOM     24  C   UNL     1     113.888 126.604 139.999  0.00  0.00    +0.000 C 
ENDBRANCH  20  21
ENDBRANCH  16  20
ENDBRANCH  12  14
ENDBRANCH  11  12
ENDBRANCH   9  11
ENDBRANCH   6   9
BRANCH   2  25
ATOM     25  O   UNL     1     109.085 128.018 136.647  0.00  0.00    +0.000 OA
BRANCH  25  33
ATOM     26  O   UNL     1     110.017 129.083 136.447  0.00  0.00    +0.000 OA
ATOM     27  O   UNL     1     108.280 130.377 135.249  0.00  0.00    +0.000 OA
ATOM     28  O   UNL     1     107.927 128.881 135.849  0.00  0.00    +0.000 OA
ATOM     29  O   UNL     1     109.790 131.010 135.448  0.00  0.00    +0.000 OA
ATOM     30  C   UNL     1     108.859 129.946 135.648  0.00  0.00    +0.000 C 
ATOM     31  C   UNL     1     108.682 129.197 135.948  0.00  0.00    +0.000 C 
ATOM     32  C   UNL     1     109.613 130.262 135.748  0.00  0.00    +0.000 C 
ATOM     33  C   UNL     1     109.261 128.766 136.347  0.00  0.00    +0.000 C 
ATOM     34  C   UNL     1     110.192 129.831 136.147  0.00  0.00    +0.000 C 
BRANCH  34  37
ATOM     35  O   UNL     1     111.521 130.036 135.664  0.00  0.00    +0.000 OA
ATOM     36  O   UNL     1     111.130 130.575 136.929  0.00  0.00    +0.000 OA
ATOM     37  C   UNL     1     110.948 130.147 136.247  0.00  0.00    +0.000 C 
ENDBRANCH  34  37
ENDBRANCH  25  33
ENDBRANCH   2  25
BRANCH   3  38
ATOM     38  C   UNL     1     109.687 127.035 137.828  0.00  0.00    +0.000 C 
BRANCH  38  39
ATOM     39  C   UNL     1     109.660 126.417 138.374  0.00  0.00    +0.000 C 
ATOM     40  C   UNL     1     109.672 126.579 139.183  0.00  0.00    +0.000 C 
ATOM     41  C   UNL     1     109.645 125.961 139.728  0.00  0.00    +0.000 C 
ATOM     42  C   UNL     1     109.711 127.360 139.446  0.00  0.00    +0.000 C 
ENDBRANCH  38  39
ENDBRANCH   3  38
TORSDOF 11
ENDMDL
MODEL 4
REMARK VINA RESULT:      -9.2      1.102      1.281
REMARK  Name = 131837145
REMARK  11 active torsions:
REMARK  status: ('A' for Active; 'I' for Inactive)
REMARK    1  A    between atoms: O_2  and  C_15
REMARK    2  A    between atoms: O_2  and  C_18
REMARK    3  A    between atoms: C_16  and  C_17
REMARK    4  A    between atoms: C_19  and  C_23
REMARK    5  A    between atoms: C_22  and  C_26
REMARK    6  A    between atoms: C_23  and  C_28
REMARK    7  A    between atoms: C_25  and  C_26
REMARK    8  A    between atoms: C_25  and  C_27
REMARK    9  A    between atoms: C_27  and  C_29
REMARK   10  A    between atoms: C_32  and  C_34
REMARK   11  A    between atoms: C_34  and  C_39
REMARK                            x       y       z     vdW  Elec       q    Type
REMARK                         _______ _______ _______ _____ _____    ______ ____
ROOT
ATOM      1  O   UNL     1     108.799 128.407 135.789  0.00  0.00    +0.000 OA
ATOM      2  C   UNL     1     110.364 129.691 136.605  0.00  0.00    +0.000 A 
ATOM      3  C   UNL     1     111.037 129.245 136.435  0.00  0.00    +0.000 A 
ATOM      4  C   UNL     1     109.619 129.412 136.391  0.00  0.00    +0.000 A 
ATOM      5  C   UNL     1     110.964 128.519 136.048  0.00  0.00    +0.000 A 
ATOM      6  C   UNL     1     110.217 128.240 135.833  0.00  0.00    +0.000 A 
ATOM      7  C   UNL     1     109.545 128.687 136.004  0.00  0.00    +0.000 A 
ENDROOT
BRANCH   6   9
ATOM      8  O   UNL     1     109.775 127.476 134.710  0.00  0.00    +0.000 OA
ATOM      9  C   UNL     1     110.144 127.515 135.447  0.00  0.00    +0.000 C 
BRANCH   9  11
ATOM     10  O   UNL     1     110.142 126.576 136.524  0.00  0.00    +0.000 OA
ATOM     11  C   UNL     1     110.439 126.829 135.798  0.00  0.00    +0.000 C 
BRANCH  11  12
ATOM     12  C   UNL     1     111.033 126.397 135.422  0.00  0.00    +0.000 C 
BRANCH  12  14
ATOM     13  O   UNL     1     112.211 123.647 136.815  0.00  0.00    +0.000 OA
ATOM     14  C   UNL     1     111.327 125.709 135.769  0.00  0.00    +0.000 A 
ATOM     15  C   UNL     1     112.045 125.728 136.177  0.00  0.00    +0.000 A 
ATOM     16  C   UNL     1     112.338 125.040 136.525  0.00  0.00    +0.000 A 
ATOM     17  C   UNL     1     110.904 125.003 135.710  0.00  0.00    +0.000 A 
ATOM     18  C   UNL     1     111.916 124.334 136.466  0.00  0.00    +0.000 A 
ATOM     19  C   UNL     1     111.200 124.316 136.059  0.00  0.00    +0.000 A 
BRANCH  16  20
ATOM     20  C   UNL     1     113.056 125.059 136.933  0.00  0.00    +0.000 C 
BRANCH  20  21
ATOM     21  C   UNL     1     113.161 125.587 137.559  0.00  0.00    +0.000 C 
ATOM     22  C   UNL     1     113.905 125.674 137.904  0.00  0.00    +0.000 C 
ATOM     23  C   UNL     1     114.010 126.202 138.529  0.00  0.00    +0.000 C 
ATOM     24  C   UNL     1     114.545 125.234 137.624  0.00  0.00    +0.000 C 
ENDBRANCH  20  21
ENDBRANCH  16  20
ENDBRANCH  12  14
ENDBRANCH  11  12
ENDBRANCH   9  11
ENDBRANCH   6   9
BRANCH   2  25
ATOM     25  O   UNL     1     110.438 130.416 136.992  0.00  0.00    +0.000 OA
BRANCH  25  33
ATOM     26  O   UNL     1     109.833 130.116 138.251  0.00  0.00    +0.000 OA
ATOM     27  O   UNL     1     108.519 132.209 138.119  0.00  0.00    +0.000 OA
ATOM     28  O   UNL     1     109.562 131.812 136.904  0.00  0.00    +0.000 OA
ATOM     29  O   UNL     1     108.352 131.211 139.421  0.00  0.00    +0.000 OA
ATOM     30  C   UNL     1     108.957 131.511 138.163  0.00  0.00    +0.000 C 
ATOM     31  C   UNL     1     109.479 131.313 137.555  0.00  0.00    +0.000 C 
ATOM     32  C   UNL     1     108.873 131.013 138.814  0.00  0.00    +0.000 C 
ATOM     33  C   UNL     1     109.916 130.615 137.599  0.00  0.00    +0.000 C 
ATOM     34  C   UNL     1     109.311 130.315 138.858  0.00  0.00    +0.000 C 
BRANCH  34  37
ATOM     35  O   UNL     1     109.793 129.826 140.112  0.00  0.00    +0.000 OA
ATOM     36  O   UNL     1     108.581 129.306 139.559  0.00  0.00    +0.000 OA
ATOM     37  C   UNL     1     109.228 129.816 139.509  0.00  0.00    +0.000 C 
ENDBRANCH  34  37
ENDBRANCH  25  33
ENDBRANCH   2  25
BRANCH   3  38
ATOM     38  C   UNL     1     111.783 129.523 136.649  0.00  0.00    +0.000 C 
BRANCH  38  39
ATOM     39  C   UNL     1     112.446 129.316 136.204  0.00  0.00    +0.000 C 
ATOM     40  C   UNL     1     113.201 129.408 136.520  0.00  0.00    +0.000 C 
ATOM     41  C   UNL     1     113.864 129.201 136.075  0.00  0.00    +0.000 C 
ATOM     42  C   UNL     1     113.295 129.707 137.283  0.00  0.00    +0.000 C 
ENDBRANCH  38  39
ENDBRANCH   3  38
TORSDOF 11
ENDMDL
MODEL 5
REMARK VINA RESULT:      -9.1      2.310      3.811
REMARK  Name = 131837145
REMARK  11 active torsions:
REMARK  status: ('A' for Active; 'I' for Inactive)
REMARK    1  A    between atoms: O_2  and  C_15
REMARK    2  A    between atoms: O_2  and  C_18
REMARK    3  A    between atoms: C_16  and  C_17
REMARK    4  A    between atoms: C_19  and  C_23
REMARK    5  A    between atoms: C_22  and  C_26
REMARK    6  A    between atoms: C_23  and  C_28
REMARK    7  A    between atoms: C_25  and  C_26
REMARK    8  A    between atoms: C_25  and  C_27
REMARK    9  A    between atoms: C_27  and  C_29
REMARK   10  A    between atoms: C_32  and  C_34
REMARK   11  A    between atoms: C_34  and  C_39
REMARK                            x       y       z     vdW  Elec       q    Type
REMARK                         _______ _______ _______ _____ _____    ______ ____
ROOT
ATOM      1  O   UNL     1     113.464 126.805 140.377  0.00  0.00    +0.000 OA
ATOM      2  C   UNL     1     112.646 128.607 139.457  0.00  0.00    +0.000 A 
ATOM      3  C   UNL     1     112.689 128.409 138.657  0.00  0.00    +0.000 A 
ATOM      4  C   UNL     1     112.904 128.074 140.029  0.00  0.00    +0.000 A 
ATOM      5  C   UNL     1     112.991 127.675 138.431  0.00  0.00    +0.000 A 
ATOM      6  C   UNL     1     113.250 127.140 139.004  0.00  0.00    +0.000 A 
ATOM      7  C   UNL     1     113.206 127.340 139.803  0.00  0.00    +0.000 A 
ENDROOT
BRANCH   6   9
ATOM      8  O   UNL     1     114.328 126.204 138.969  0.00  0.00    +0.000 OA
ATOM      9  C   UNL     1     113.552 126.406 138.778  0.00  0.00    +0.000 C 
BRANCH   9  11
ATOM     10  O   UNL     1     112.400 125.563 138.714  0.00  0.00    +0.000 OA
ATOM     11  C   UNL     1     113.076 125.876 138.361  0.00  0.00    +0.000 C 
BRANCH  11  12
ATOM     12  C   UNL     1     113.278 125.659 137.591  0.00  0.00    +0.000 C 
BRANCH  12  14
ATOM     13  O   UNL     1     111.440 123.459 135.958  0.00  0.00    +0.000 OA
ATOM     14  C   UNL     1     112.819 125.109 137.183  0.00  0.00    +0.000 A 
ATOM     15  C   UNL     1     112.201 125.365 136.700  0.00  0.00    +0.000 A 
ATOM     16  C   UNL     1     111.741 124.815 136.292  0.00  0.00    +0.000 A 
ATOM     17  C   UNL     1     112.977 124.303 137.258  0.00  0.00    +0.000 A 
ATOM     18  C   UNL     1     111.900 124.009 136.367  0.00  0.00    +0.000 A 
ATOM     19  C   UNL     1     112.517 123.753 136.849  0.00  0.00    +0.000 A 
BRANCH  16  20
ATOM     20  C   UNL     1     111.123 125.072 135.809  0.00  0.00    +0.000 C 
BRANCH  20  21
ATOM     21  C   UNL     1     111.172 125.803 135.432  0.00  0.00    +0.000 C 
ATOM     22  C   UNL     1     110.526 126.091 135.006  0.00  0.00    +0.000 C 
ATOM     23  C   UNL     1     110.574 126.823 134.628  0.00  0.00    +0.000 C 
ATOM     24  C   UNL     1     109.832 125.647 134.957  0.00  0.00    +0.000 C 
ENDBRANCH  20  21
ENDBRANCH  16  20
ENDBRANCH  12  14
ENDBRANCH  11  12
ENDBRANCH   9  11
ENDBRANCH   6   9
BRANCH   2  25
ATOM     25  O   UNL     1     112.344 129.341 139.683  0.00  0.00    +0.000 OA
BRANCH  25  33
ATOM     26  O   UNL     1     113.525 130.008 140.132  0.00  0.00    +0.000 OA
ATOM     27  O   UNL     1     112.344 130.715 142.189  0.00  0.00    +0.000 OA
ATOM     28  O   UNL     1     111.556 129.813 141.054  0.00  0.00    +0.000 OA
ATOM     29  O   UNL     1     113.918 131.146 141.952  0.00  0.00    +0.000 OA
ATOM     30  C   UNL     1     112.738 130.479 141.503  0.00  0.00    +0.000 C 
ATOM     31  C   UNL     1     112.343 130.028 140.936  0.00  0.00    +0.000 C 
ATOM     32  C   UNL     1     113.525 130.695 141.386  0.00  0.00    +0.000 C 
ATOM     33  C   UNL     1     112.737 129.792 140.251  0.00  0.00    +0.000 C 
ATOM     34  C   UNL     1     113.919 130.459 140.700  0.00  0.00    +0.000 C 
BRANCH  34  37
ATOM     35  O   UNL     1     114.887 131.407 140.248  0.00  0.00    +0.000 OA
ATOM     36  O   UNL     1     115.312 130.157 140.796  0.00  0.00    +0.000 OA
ATOM     37  C   UNL     1     114.706 130.674 140.582  0.00  0.00    +0.000 C 
ENDBRANCH  34  37
ENDBRANCH  25  33
ENDBRANCH   2  25
BRANCH   3  38
ATOM     38  C   UNL     1     112.431 128.942 138.084  0.00  0.00    +0.000 C 
BRANCH  38  39
ATOM     39  C   UNL     1     112.769 128.936 137.331  0.00  0.00    +0.000 C 
ATOM     40  C   UNL     1     112.407 129.343 136.713  0.00  0.00    +0.000 C 
ATOM     41  C   UNL     1     112.745 129.336 135.960  0.00  0.00    +0.000 C 
ATOM     42  C   UNL     1     111.706 129.757 136.846  0.00  0.00    +0.000 C 
ENDBRANCH  38  39
ENDBRANCH   3  38
TORSDOF 11
ENDMDL
MODEL 6
REMARK VINA RESULT:      -9.1      2.586      4.218
REMARK  Name = 131837145
REMARK  11 active torsions:
REMARK  status: ('A' for Active; 'I' for Inactive)
REMARK    1  A    between atoms: O_2  and  C_15
REMARK    2  A    between atoms: O_2  and  C_18
REMARK    3  A    between atoms: C_16  and  C_17
REMARK    4  A    between atoms: C_19  and  C_23
REMARK    5  A    between atoms: C_22  and  C_26
REMARK    6  A    between atoms: C_23  and  C_28
REMARK    7  A    between atoms: C_25  and  C_26
REMARK    8  A    between atoms: C_25  and  C_27
REMARK    9  A    between atoms: C_27  and  C_29
REMARK   10  A    between atoms: C_32  and  C_34
REMARK   11  A    between atoms: C_34  and  C_39
REMARK                            x       y       z     vdW  Elec       q    Type
REMARK                         _______ _______ _______ _____ _____    ______ ____
ROOT
ATOM      1  O   UNL     1     114.050 126.473 140.366  0.00  0.00    +0.000 OA
ATOM      2  C   UNL     1     112.861 128.255 139.946  0.00  0.00    +0.000 A 
ATOM      3  C   UNL     1     112.729 128.168 139.136  0.00  0.00    +0.000 A 
ATOM      4  C   UNL     1     113.301 127.691 140.355  0.00  0.00    +0.000 A 
ATOM      5  C   UNL     1     113.037 127.516 138.736  0.00  0.00    +0.000 A 
ATOM      6  C   UNL     1     113.478 126.950 139.146  0.00  0.00    +0.000 A 
ATOM      7  C   UNL     1     113.609 127.038 139.956  0.00  0.00    +0.000 A 
ENDROOT
BRANCH   6   9
ATOM      8  O   UNL     1     114.599 126.158 138.752  0.00  0.00    +0.000 OA
ATOM      9  C   UNL     1     113.787 126.298 138.746  0.00  0.00    +0.000 C 
BRANCH   9  11
ATOM     10  O   UNL     1     112.643 125.442 138.730  0.00  0.00    +0.000 OA
ATOM     11  C   UNL     1     113.282 125.787 138.340  0.00  0.00    +0.000 C 
BRANCH  11  12
ATOM     12  C   UNL     1     113.417 125.621 137.544  0.00  0.00    +0.000 C 
BRANCH  12  14
ATOM     13  O   UNL     1     111.439 123.527 135.933  0.00  0.00    +0.000 OA
ATOM     14  C   UNL     1     112.923 125.097 137.141  0.00  0.00    +0.000 A 
ATOM     15  C   UNL     1     112.296 125.387 136.689  0.00  0.00    +0.000 A 
ATOM     16  C   UNL     1     111.802 124.863 136.286  0.00  0.00    +0.000 A 
ATOM     17  C   UNL     1     113.055 124.284 137.191  0.00  0.00    +0.000 A 
ATOM     18  C   UNL     1     111.934 124.050 136.336  0.00  0.00    +0.000 A 
ATOM     19  C   UNL     1     112.560 123.761 136.788  0.00  0.00    +0.000 A 
BRANCH  16  20
ATOM     20  C   UNL     1     111.175 125.153 135.834  0.00  0.00    +0.000 C 
BRANCH  20  21
ATOM     21  C   UNL     1     111.209 125.917 135.526  0.00  0.00    +0.000 C 
ATOM     22  C   UNL     1     110.571 126.217 135.096  0.00  0.00    +0.000 C 
ATOM     23  C   UNL     1     110.604 126.981 134.787  0.00  0.00    +0.000 C 
ATOM     24  C   UNL     1     109.900 125.752 134.975  0.00  0.00    +0.000 C 
ENDBRANCH  20  21
ENDBRANCH  16  20
ENDBRANCH  12  14
ENDBRANCH  11  12
ENDBRANCH   9  11
ENDBRANCH   6   9
BRANCH   2  25
ATOM     25  O   UNL     1     112.552 128.907 140.346  0.00  0.00    +0.000 OA
BRANCH  25  33
ATOM     26  O   UNL     1     111.503 128.275 141.082  0.00  0.00    +0.000 OA
ATOM     27  O   UNL     1     112.168 129.533 143.108  0.00  0.00    +0.000 OA
ATOM     28  O   UNL     1     112.995 129.745 141.696  0.00  0.00    +0.000 OA
ATOM     29  O   UNL     1     110.899 128.482 143.169  0.00  0.00    +0.000 OA
ATOM     30  C   UNL     1     111.947 129.113 142.433  0.00  0.00    +0.000 C 
ATOM     31  C   UNL     1     112.361 129.220 141.727  0.00  0.00    +0.000 C 
ATOM     32  C   UNL     1     111.312 128.588 142.464  0.00  0.00    +0.000 C 
ATOM     33  C   UNL     1     112.139 128.801 141.052  0.00  0.00    +0.000 C 
ATOM     34  C   UNL     1     111.090 128.169 141.788  0.00  0.00    +0.000 C 
BRANCH  34  37
ATOM     35  O   UNL     1     109.698 127.899 141.611  0.00  0.00    +0.000 OA
ATOM     36  O   UNL     1     110.576 126.863 142.056  0.00  0.00    +0.000 OA
ATOM     37  C   UNL     1     110.455 127.643 141.818  0.00  0.00    +0.000 C 
ENDBRANCH  34  37
ENDBRANCH  25  33
ENDBRANCH   2  25
BRANCH   3  38
ATOM     38  C   UNL     1     112.289 128.732 138.726  0.00  0.00    +0.000 C 
BRANCH  38  39
ATOM     39  C   UNL     1     112.515 128.961 137.966  0.00  0.00    +0.000 C 
ATOM     40  C   UNL     1     111.986 129.369 137.483  0.00  0.00    +0.000 C 
ATOM     41  C   UNL     1     112.213 129.597 136.723  0.00  0.00    +0.000 C 
ATOM     42  C   UNL     1     111.230 129.548 137.759  0.00  0.00    +0.000 C 
ENDBRANCH  38  39
ENDBRANCH   3  38
TORSDOF 11
ENDMDL
MODEL 7
REMARK VINA RESULT:      -9.1      1.808      3.069
REMARK  Name = 131837145
REMARK  11 active torsions:
REMARK  status: ('A' for Active; 'I' for Inactive)
REMARK    1  A    between atoms: O_2  and  C_15
REMARK    2  A    between atoms: O_2  and  C_18
REMARK    3  A    between atoms: C_16  and  C_17
REMARK    4  A    between atoms: C_19  and  C_23
REMARK    5  A    between atoms: C_22  and  C_26
REMARK    6  A    between atoms: C_23  and  C_28
REMARK    7  A    between atoms: C_25  and  C_26
REMARK    8  A    between atoms: C_25  and  C_27
REMARK    9  A    between atoms: C_27  and  C_29
REMARK   10  A    between atoms: C_32  and  C_34
REMARK   11  A    between atoms: C_34  and  C_39
REMARK                            x       y       z     vdW  Elec       q    Type
REMARK                         _______ _______ _______ _____ _____    ______ ____
ROOT
ATOM      1  O   UNL     1     112.749 127.378 140.158  0.00  0.00    +0.000 OA
ATOM      2  C   UNL     1     112.441 129.003 138.734  0.00  0.00    +0.000 A 
ATOM      3  C   UNL     1     112.704 128.651 138.036  0.00  0.00    +0.000 A 
ATOM      4  C   UNL     1     112.456 128.579 139.441  0.00  0.00    +0.000 A 
ATOM      5  C   UNL     1     112.982 127.874 138.045  0.00  0.00    +0.000 A 
ATOM      6  C   UNL     1     112.997 127.449 138.753  0.00  0.00    +0.000 A 
ATOM      7  C   UNL     1     112.734 127.802 139.450  0.00  0.00    +0.000 A 
ENDROOT
BRANCH   6   9
ATOM      8  O   UNL     1     113.967 126.488 139.170  0.00  0.00    +0.000 OA
ATOM      9  C   UNL     1     113.275 126.673 138.762  0.00  0.00    +0.000 C 
BRANCH   9  11
ATOM     10  O   UNL     1     112.134 125.818 138.655  0.00  0.00    +0.000 OA
ATOM     11  C   UNL     1     112.859 126.081 138.364  0.00  0.00    +0.000 C 
BRANCH  11  12
ATOM     12  C   UNL     1     113.169 125.754 137.673  0.00  0.00    +0.000 C 
BRANCH  12  14
ATOM     13  O   UNL     1     111.447 123.489 136.001  0.00  0.00    +0.000 OA
ATOM     14  C   UNL     1     112.739 125.187 137.256  0.00  0.00    +0.000 A 
ATOM     15  C   UNL     1     112.146 125.423 136.732  0.00  0.00    +0.000 A 
ATOM     16  C   UNL     1     111.716 124.857 136.314  0.00  0.00    +0.000 A 
ATOM     17  C   UNL     1     112.901 124.385 137.361  0.00  0.00    +0.000 A 
ATOM     18  C   UNL     1     111.878 124.055 136.419  0.00  0.00    +0.000 A 
ATOM     19  C   UNL     1     112.470 123.819 136.942  0.00  0.00    +0.000 A 
BRANCH  16  20
ATOM     20  C   UNL     1     111.123 125.093 135.790  0.00  0.00    +0.000 C 
BRANCH  20  21
ATOM     21  C   UNL     1     111.175 125.825 135.413  0.00  0.00    +0.000 C 
ATOM     22  C   UNL     1     110.529 126.117 134.990  0.00  0.00    +0.000 C 
ATOM     23  C   UNL     1     110.580 126.848 134.612  0.00  0.00    +0.000 C 
ATOM     24  C   UNL     1     109.832 125.677 134.945  0.00  0.00    +0.000 C 
ENDBRANCH  20  21
ENDBRANCH  16  20
ENDBRANCH  12  14
ENDBRANCH  11  12
ENDBRANCH   9  11
ENDBRANCH   6   9
BRANCH   2  25
ATOM     25  O   UNL     1     112.163 129.780 138.725  0.00  0.00    +0.000 OA
BRANCH  25  33
ATOM     26  O   UNL     1     110.767 129.573 138.951  0.00  0.00    +0.000 OA
ATOM     27  O   UNL     1     110.780 131.359 140.664  0.00  0.00    +0.000 OA
ATOM     28  O   UNL     1     112.172 130.970 139.867  0.00  0.00    +0.000 OA
ATOM     29  O   UNL     1     109.381 130.557 140.319  0.00  0.00    +0.000 OA
ATOM     30  C   UNL     1     110.776 130.763 140.093  0.00  0.00    +0.000 C 
ATOM     31  C   UNL     1     111.472 130.569 139.695  0.00  0.00    +0.000 C 
ATOM     32  C   UNL     1     110.076 130.363 139.921  0.00  0.00    +0.000 C 
ATOM     33  C   UNL     1     111.468 129.974 139.124  0.00  0.00    +0.000 C 
ATOM     34  C   UNL     1     110.072 129.768 139.349  0.00  0.00    +0.000 C 
BRANCH  34  37
ATOM     35  O   UNL     1     109.133 128.732 139.648  0.00  0.00    +0.000 OA
ATOM     36  O   UNL     1     108.912 129.599 138.533  0.00  0.00    +0.000 OA
ATOM     37  C   UNL     1     109.372 129.367 139.176  0.00  0.00    +0.000 C 
ENDBRANCH  34  37
ENDBRANCH  25  33
ENDBRANCH   2  25
BRANCH   3  38
ATOM     38  C   UNL     1     112.689 129.074 137.329  0.00  0.00    +0.000 C 
BRANCH  38  39
ATOM     39  C   UNL     1     113.252 128.924 136.744  0.00  0.00    +0.000 C 
ATOM     40  C   UNL     1     113.148 129.224 135.984  0.00  0.00    +0.000 C 
ATOM     41  C   UNL     1     113.712 129.074 135.400  0.00  0.00    +0.000 C 
ATOM     42  C   UNL     1     112.481 129.676 135.806  0.00  0.00    +0.000 C 
ENDBRANCH  38  39
ENDBRANCH   3  38
TORSDOF 11
ENDMDL
MODEL 8
REMARK VINA RESULT:      -9.1      1.418      2.106
REMARK  Name = 131837145
REMARK  11 active torsions:
REMARK  status: ('A' for Active; 'I' for Inactive)
REMARK    1  A    between atoms: O_2  and  C_15
REMARK    2  A    between atoms: O_2  and  C_18
REMARK    3  A    between atoms: C_16  and  C_17
REMARK    4  A    between atoms: C_19  and  C_23
REMARK    5  A    between atoms: C_22  and  C_26
REMARK    6  A    between atoms: C_23  and  C_28
REMARK    7  A    between atoms: C_25  and  C_26
REMARK    8  A    between atoms: C_25  and  C_27
REMARK    9  A    between atoms: C_27  and  C_29
REMARK   10  A    between atoms: C_32  and  C_34
REMARK   11  A    between atoms: C_34  and  C_39
REMARK                            x       y       z     vdW  Elec       q    Type
REMARK                         _______ _______ _______ _____ _____    ______ ____
ROOT
ATOM      1  O   UNL     1     108.727 127.465 136.458  0.00  0.00    +0.000 OA
ATOM      2  C   UNL     1     110.212 128.958 137.031  0.00  0.00    +0.000 A 
ATOM      3  C   UNL     1     110.889 128.651 136.673  0.00  0.00    +0.000 A 
ATOM      4  C   UNL     1     109.492 128.564 136.960  0.00  0.00    +0.000 A 
ATOM      5  C   UNL     1     110.845 127.948 136.243  0.00  0.00    +0.000 A 
ATOM      6  C   UNL     1     110.124 127.553 136.171  0.00  0.00    +0.000 A 
ATOM      7  C   UNL     1     109.448 127.861 136.530  0.00  0.00    +0.000 A 
ENDROOT
BRANCH   6   9
ATOM      8  O   UNL     1     109.692 126.836 135.014  0.00  0.00    +0.000 OA
ATOM      9  C   UNL     1     110.080 126.850 135.741  0.00  0.00    +0.000 C 
BRANCH   9  11
ATOM     10  O   UNL     1     110.172 125.854 136.762  0.00  0.00    +0.000 OA
ATOM     11  C   UNL     1     110.424 126.162 136.040  0.00  0.00    +0.000 C 
BRANCH  11  12
ATOM     12  C   UNL     1     111.020 125.782 135.615  0.00  0.00    +0.000 C 
BRANCH  12  14
ATOM     13  O   UNL     1     112.706 123.302 136.993  0.00  0.00    +0.000 OA
ATOM     14  C   UNL     1     111.441 125.161 135.960  0.00  0.00    +0.000 A 
ATOM     15  C   UNL     1     112.168 125.308 136.323  0.00  0.00    +0.000 A 
ATOM     16  C   UNL     1     112.589 124.688 136.667  0.00  0.00    +0.000 A 
ATOM     17  C   UNL     1     111.136 124.395 135.941  0.00  0.00    +0.000 A 
ATOM     18  C   UNL     1     112.284 123.921 136.648  0.00  0.00    +0.000 A 
ATOM     19  C   UNL     1     111.558 123.775 136.286  0.00  0.00    +0.000 A 
BRANCH  16  20
ATOM     20  C   UNL     1     113.316 124.834 137.030  0.00  0.00    +0.000 C 
BRANCH  20  21
ATOM     21  C   UNL     1     113.364 125.376 137.650  0.00  0.00    +0.000 C 
ATOM     22  C   UNL     1     114.102 125.610 137.936  0.00  0.00    +0.000 C 
ATOM     23  C   UNL     1     114.151 126.152 138.557  0.00  0.00    +0.000 C 
ATOM     24  C   UNL     1     114.791 125.303 137.602  0.00  0.00    +0.000 C 
ENDBRANCH  20  21
ENDBRANCH  16  20
ENDBRANCH  12  14
ENDBRANCH  11  12
ENDBRANCH   9  11
ENDBRANCH   6   9
BRANCH   2  25
ATOM     25  O   UNL     1     110.256 129.661 137.461  0.00  0.00    +0.000 OA
BRANCH  25  33
ATOM     26  O   UNL     1     109.416 130.490 136.656  0.00  0.00    +0.000 OA
ATOM     27  O   UNL     1     108.325 131.367 138.697  0.00  0.00    +0.000 OA
ATOM     28  O   UNL     1     109.529 130.245 138.822  0.00  0.00    +0.000 OA
ATOM     29  O   UNL     1     107.849 131.903 137.212  0.00  0.00    +0.000 OA
ATOM     30  C   UNL     1     108.689 131.074 138.016  0.00  0.00    +0.000 C 
ATOM     31  C   UNL     1     109.291 130.514 138.080  0.00  0.00    +0.000 C 
ATOM     32  C   UNL     1     108.450 131.343 137.274  0.00  0.00    +0.000 C 
ATOM     33  C   UNL     1     109.654 130.221 137.399  0.00  0.00    +0.000 C 
ATOM     34  C   UNL     1     108.814 131.050 136.594  0.00  0.00    +0.000 C 
BRANCH  34  37
ATOM     35  O   UNL     1     109.010 131.907 135.467  0.00  0.00    +0.000 OA
ATOM     36  O   UNL     1     107.906 130.999 135.491  0.00  0.00    +0.000 OA
ATOM     37  C   UNL     1     108.576 131.318 135.851  0.00  0.00    +0.000 C 
ENDBRANCH  34  37
ENDBRANCH  25  33
ENDBRANCH   2  25
BRANCH   3  38
ATOM     38  C   UNL     1     111.610 129.046 136.745  0.00  0.00    +0.000 C 
BRANCH  38  39
ATOM     39  C   UNL     1     112.252 128.821 136.278  0.00  0.00    +0.000 C 
ATOM     40  C   UNL     1     113.007 129.103 136.452  0.00  0.00    +0.000 C 
ATOM     41  C   UNL     1     113.649 128.878 135.985  0.00  0.00    +0.000 C 
ATOM     42  C   UNL     1     113.120 129.610 137.092  0.00  0.00    +0.000 C 
ENDBRANCH  38  39
ENDBRANCH   3  38
TORSDOF 11
ENDMDL
MODEL 9
REMARK VINA RESULT:      -8.8      2.427      4.985
REMARK  Name = 131837145
REMARK  11 active torsions:
REMARK  status: ('A' for Active; 'I' for Inactive)
REMARK    1  A    between atoms: O_2  and  C_15
REMARK    2  A    between atoms: O_2  and  C_18
REMARK    3  A    between atoms: C_16  and  C_17
REMARK    4  A    between atoms: C_19  and  C_23
REMARK    5  A    between atoms: C_22  and  C_26
REMARK    6  A    between atoms: C_23  and  C_28
REMARK    7  A    between atoms: C_25  and  C_26
REMARK    8  A    between atoms: C_25  and  C_27
REMARK    9  A    between atoms: C_27  and  C_29
REMARK   10  A    between atoms: C_32  and  C_34
REMARK   11  A    between atoms: C_34  and  C_39
REMARK                            x       y       z     vdW  Elec       q    Type
REMARK                         _______ _______ _______ _____ _____    ______ ____
ROOT
ATOM      1  O   UNL     1     112.169 124.940 137.807  0.00  0.00    +0.000 OA
ATOM      2  C   UNL     1     112.049 126.512 136.297  0.00  0.00    +0.000 A 
ATOM      3  C   UNL     1     112.644 127.022 136.554  0.00  0.00    +0.000 A 
ATOM      4  C   UNL     1     111.891 125.819 136.714  0.00  0.00    +0.000 A 
ATOM      5  C   UNL     1     113.081 126.838 137.230  0.00  0.00    +0.000 A 
ATOM      6  C   UNL     1     112.922 126.144 137.648  0.00  0.00    +0.000 A 
ATOM      7  C   UNL     1     112.327 125.635 137.389  0.00  0.00    +0.000 A 
ENDROOT
BRANCH   6   9
ATOM      8  O   UNL     1     113.985 125.426 138.276  0.00  0.00    +0.000 OA
ATOM      9  C   UNL     1     113.359 125.960 138.323  0.00  0.00    +0.000 C 
BRANCH   9  11
ATOM     10  O   UNL     1     112.380 126.384 139.273  0.00  0.00    +0.000 OA
ATOM     11  C   UNL     1     113.168 126.311 139.045  0.00  0.00    +0.000 C 
BRANCH  11  12
ATOM     12  C   UNL     1     113.768 126.589 139.539  0.00  0.00    +0.000 C 
BRANCH  12  14
ATOM     13  O   UNL     1     113.119 128.936 141.767  0.00  0.00    +0.000 OA
ATOM     14  C   UNL     1     113.605 127.176 140.096  0.00  0.00    +0.000 A 
ATOM     15  C   UNL     1     113.853 127.952 139.962  0.00  0.00    +0.000 A 
ATOM     16  C   UNL     1     113.691 128.538 140.519  0.00  0.00    +0.000 A 
ATOM     17  C   UNL     1     113.196 126.987 140.787  0.00  0.00    +0.000 A 
ATOM     18  C   UNL     1     113.281 128.349 141.210  0.00  0.00    +0.000 A 
ATOM     19  C   UNL     1     113.034 127.574 141.343  0.00  0.00    +0.000 A 
BRANCH  16  20
ATOM     20  C   UNL     1     113.939 129.314 140.385  0.00  0.00    +0.000 C 
BRANCH  20  21
ATOM     21  C   UNL     1     113.867 129.645 139.633  0.00  0.00    +0.000 C 
ATOM     22  C   UNL     1     114.242 130.360 139.460  0.00  0.00    +0.000 C 
ATOM     23  C   UNL     1     114.170 130.691 138.708  0.00  0.00    +0.000 C 
ATOM     24  C   UNL     1     114.690 130.742 140.038  0.00  0.00    +0.000 C 
ENDBRANCH  20  21
ENDBRANCH  16  20
ENDBRANCH  12  14
ENDBRANCH  11  12
ENDBRANCH   9  11
ENDBRANCH   6   9
BRANCH   2  25
ATOM     25  O   UNL     1     111.613 126.696 135.621  0.00  0.00    +0.000 OA
BRANCH  25  33
ATOM     26  O   UNL     1     110.386 127.172 136.178  0.00  0.00    +0.000 OA
ATOM     27  O   UNL     1     109.119 125.679 134.664  0.00  0.00    +0.000 OA
ATOM     28  O   UNL     1     110.769 125.700 134.612  0.00  0.00    +0.000 OA
ATOM     29  O   UNL     1     108.316 126.653 135.724  0.00  0.00    +0.000 OA
ATOM     30  C   UNL     1     109.542 126.177 135.168  0.00  0.00    +0.000 C 
ATOM     31  C   UNL     1     110.366 126.187 135.142  0.00  0.00    +0.000 C 
ATOM     32  C   UNL     1     109.139 126.664 135.698  0.00  0.00    +0.000 C 
ATOM     33  C   UNL     1     110.789 126.685 135.647  0.00  0.00    +0.000 C 
ATOM     34  C   UNL     1     109.562 127.161 136.203  0.00  0.00    +0.000 C 
BRANCH  34  37
ATOM     35  O   UNL     1     108.960 127.365 137.483  0.00  0.00    +0.000 OA
ATOM     36  O   UNL     1     108.958 128.418 136.516  0.00  0.00    +0.000 OA
ATOM     37  C   UNL     1     109.160 127.649 136.734  0.00  0.00    +0.000 C 
ENDBRANCH  34  37
ENDBRANCH  25  33
ENDBRANCH   2  25
BRANCH   3  38
ATOM     38  C   UNL     1     112.803 127.715 136.138  0.00  0.00    +0.000 C 
BRANCH  38  39
ATOM     39  C   UNL     1     113.580 127.980 136.055  0.00  0.00    +0.000 C 
ATOM     40  C   UNL     1     113.733 128.712 135.709  0.00  0.00    +0.000 C 
ATOM     41  C   UNL     1     114.511 128.976 135.626  0.00  0.00    +0.000 C 
ATOM     42  C   UNL     1     113.108 129.181 135.444  0.00  0.00    +0.000 C 
ENDBRANCH  38  39
ENDBRANCH   3  38
TORSDOF 11
ENDMDL
MODEL 10
REMARK VINA RESULT:      -8.8     10.470     12.913
REMARK  Name = 131837145
REMARK  11 active torsions:
REMARK  status: ('A' for Active; 'I' for Inactive)
REMARK    1  A    between atoms: O_2  and  C_15
REMARK    2  A    between atoms: O_2  and  C_18
REMARK    3  A    between atoms: C_16  and  C_17
REMARK    4  A    between atoms: C_19  and  C_23
REMARK    5  A    between atoms: C_22  and  C_26
REMARK    6  A    between atoms: C_23  and  C_28
REMARK    7  A    between atoms: C_25  and  C_26
REMARK    8  A    between atoms: C_25  and  C_27
REMARK    9  A    between atoms: C_27  and  C_29
REMARK   10  A    between atoms: C_32  and  C_34
REMARK   11  A    between atoms: C_34  and  C_39
REMARK                            x       y       z     vdW  Elec       q    Type
REMARK                         _______ _______ _______ _____ _____    ______ ____
ROOT
ATOM      1  O   UNL     1     105.807 124.343 145.988  0.00  0.00    +0.000 OA
ATOM      2  C   UNL     1     104.676 125.705 147.264  0.00  0.00    +0.000 A 
ATOM      3  C   UNL     1     104.862 126.433 146.921  0.00  0.00    +0.000 A 
ATOM      4  C   UNL     1     104.990 125.010 146.953  0.00  0.00    +0.000 A 
ATOM      5  C   UNL     1     105.364 126.463 146.267  0.00  0.00    +0.000 A 
ATOM      6  C   UNL     1     105.679 125.766 145.955  0.00  0.00    +0.000 A 
ATOM      7  C   UNL     1     105.492 125.040 146.299  0.00  0.00    +0.000 A 
ENDROOT
BRANCH   6   9
ATOM      8  O   UNL     1     106.977 125.599 145.383  0.00  0.00    +0.000 OA
ATOM      9  C   UNL     1     106.181 125.796 145.301  0.00  0.00    +0.000 C 
BRANCH   9  11
ATOM     10  O   UNL     1     105.226 125.645 144.250  0.00  0.00    +0.000 OA
ATOM     11  C   UNL     1     105.885 126.025 144.566  0.00  0.00    +0.000 C 
BRANCH  11  12
ATOM     12  C   UNL     1     106.251 126.634 144.146  0.00  0.00    +0.000 C 
BRANCH  12  14
ATOM     13  O   UNL     1     104.895 127.765 141.358  0.00  0.00    +0.000 OA
ATOM     14  C   UNL     1     105.912 126.916 143.449  0.00  0.00    +0.000 A 
ATOM     15  C   UNL     1     105.457 127.605 143.461  0.00  0.00    +0.000 A 
ATOM     16  C   UNL     1     105.119 127.888 142.764  0.00  0.00    +0.000 A 
ATOM     17  C   UNL     1     106.027 126.511 142.740  0.00  0.00    +0.000 A 
ATOM     18  C   UNL     1     105.234 127.482 142.055  0.00  0.00    +0.000 A 
ATOM     19  C   UNL     1     105.688 126.794 142.043  0.00  0.00    +0.000 A 
BRANCH  16  20
ATOM     20  C   UNL     1     104.664 128.577 142.776  0.00  0.00    +0.000 C 
BRANCH  20  21
ATOM     21  C   UNL     1     104.667 129.061 143.444  0.00  0.00    +0.000 C 
ATOM     22  C   UNL     1     104.155 129.707 143.487  0.00  0.00    +0.000 C 
ATOM     23  C   UNL     1     104.158 130.191 144.155  0.00  0.00    +0.000 C 
ATOM     24  C   UNL     1     103.640 129.868 142.863  0.00  0.00    +0.000 C 
ENDBRANCH  20  21
ENDBRANCH  16  20
ENDBRANCH  12  14
ENDBRANCH  11  12
ENDBRANCH   9  11
ENDBRANCH   6   9
BRANCH   2  25
ATOM     25  O   UNL     1     104.174 125.675 147.918  0.00  0.00    +0.000 OA
BRANCH  25  33
ATOM     26  O   UNL     1     103.068 124.988 147.329  0.00  0.00    +0.000 OA
ATOM     27  O   UNL     1     102.862 123.582 149.355  0.00  0.00    +0.000 OA
ATOM     28  O   UNL     1     104.036 124.738 149.269  0.00  0.00    +0.000 OA
ATOM     29  O   UNL     1     101.825 123.364 148.091  0.00  0.00    +0.000 OA
ATOM     30  C   UNL     1     102.930 124.051 148.680  0.00  0.00    +0.000 C 
ATOM     31  C   UNL     1     103.518 124.629 148.637  0.00  0.00    +0.000 C 
ATOM     32  C   UNL     1     102.412 123.942 148.048  0.00  0.00    +0.000 C 
ATOM     33  C   UNL     1     103.587 125.097 147.962  0.00  0.00    +0.000 C 
ATOM     34  C   UNL     1     102.481 124.410 147.373  0.00  0.00    +0.000 C 
BRANCH  34  37
ATOM     35  O   UNL     1     101.232 124.685 146.735  0.00  0.00    +0.000 OA
ATOM     36  O   UNL     1     102.175 123.810 146.112  0.00  0.00    +0.000 OA
ATOM     37  C   UNL     1     101.963 124.301 146.740  0.00  0.00    +0.000 C 
ENDBRANCH  34  37
ENDBRANCH  25  33
ENDBRANCH   2  25
BRANCH   3  38
ATOM     38  C   UNL     1     104.548 127.128 147.232  0.00  0.00    +0.000 C 
BRANCH  38  39
ATOM     39  C   UNL     1     105.002 127.817 147.245  0.00  0.00    +0.000 C 
ATOM     40  C   UNL     1     104.656 128.535 147.456  0.00  0.00    +0.000 C 
ATOM     41  C   UNL     1     105.110 129.225 147.469  0.00  0.00    +0.000 C 
ATOM     42  C   UNL     1     103.856 128.565 147.654  0.00  0.00    +0.000 C 
ENDBRANCH  38  39
ENDBRANCH   3  38
TORSDOF 11
ENDMDL
