MODEL 1
REMARK VINA RESULT:      -8.0      0.000      0.000
REMARK  Name = 44259651
REMARK  5 active torsions:
REMARK  status: ('A' for Active; 'I' for Inactive)
REMARK    1  A    between atoms: O_2  and  C_11
REMARK    2  A    between atoms: O_3  and  C_19
REMARK    3  A    between atoms: O_3  and  C_22
REMARK    4  A    between atoms: C_8  and  C_10
REMARK    5  A    between atoms: C_22  and  C_23
REMARK                            x       y       z     vdW  Elec       q    Type
REMARK                         _______ _______ _______ _____ _____    ______ ____
ROOT
ATOM      1  O   UNL     1     112.749 126.518 136.461  0.00  0.00    +0.000 OA
ATOM      2  O   UNL     1     112.286 123.666 136.468  0.00  0.00    +0.000 OA
ATOM      3  O   UNL     1     111.261 124.585 136.038  0.00  0.00    +0.000 OA
ATOM      4  O   UNL     1     114.865 124.722 137.343  0.00  0.00    +0.000 OA
ATOM      5  C   UNL     1     112.521 125.107 136.465  0.00  0.00    +0.000 A 
ATOM      6  C   UNL     1     111.984 126.641 136.175  0.00  0.00    +0.000 A 
ATOM      7  C   UNL     1     113.017 125.752 136.606  0.00  0.00    +0.000 A 
ATOM      8  C   UNL     1     111.488 125.996 136.034  0.00  0.00    +0.000 A 
ATOM      9  C   UNL     1     111.757 125.229 136.179  0.00  0.00    +0.000 A 
ATOM     10  C   UNL     1     112.789 124.304 136.612  0.00  0.00    +0.000 A 
ATOM     11  C   UNL     1     113.815 125.637 136.904  0.00  0.00    +0.000 A 
ATOM     12  C   UNL     1     114.100 124.842 137.057  0.00  0.00    +0.000 A 
ATOM     13  C   UNL     1     113.583 124.170 136.910  0.00  0.00    +0.000 A 
ENDROOT
BRANCH   6  14
ATOM     14  C   UNL     1     111.716 127.407 136.030  0.00  0.00    +0.000 A 
ATOM     15  C   UNL     1     111.794 127.736 135.277  0.00  0.00    +0.000 A 
ATOM     16  C   UNL     1     111.369 127.844 136.637  0.00  0.00    +0.000 A 
ATOM     17  C   UNL     1     111.179 128.940 135.740  0.00  0.00    +0.000 A 
ATOM     18  C   UNL     1     111.526 128.502 135.132  0.00  0.00    +0.000 A 
ATOM     19  C   UNL     1     111.101 128.611 136.492  0.00  0.00    +0.000 A 
BRANCH  17  20
ATOM     20  O   UNL     1     110.910 129.706 135.594  0.00  0.00    +0.000 OA
BRANCH  20  21
ATOM     21  C   UNL     1     110.099 129.858 135.549  0.00  0.00    +0.000 C 
BRANCH  21  22
ATOM     22  C   UNL     1     109.830 130.559 135.210  0.00  0.00    +0.000 C 
ATOM     23  C   UNL     1     109.045 130.792 135.314  0.00  0.00    +0.000 C 
ATOM     24  C   UNL     1     108.774 131.494 134.974  0.00  0.00    +0.000 C 
ATOM     25  C   UNL     1     108.530 130.323 135.757  0.00  0.00    +0.000 C 
ENDBRANCH  21  22
ENDBRANCH  20  21
ENDBRANCH  17  20
ENDBRANCH   6  14
BRANCH   8  26
ATOM     26  O   UNL     1     110.724 126.118 135.748  0.00  0.00    +0.000 OA
ATOM     27  C   UNL     1     110.332 125.513 135.348  0.00  0.00    +0.000 C 
ENDBRANCH   8  26
TORSDOF 5
ENDMDL
MODEL 2
REMARK VINA RESULT:      -7.9      4.576      6.585
REMARK  Name = 44259651
REMARK  5 active torsions:
REMARK  status: ('A' for Active; 'I' for Inactive)
REMARK    1  A    between atoms: O_2  and  C_11
REMARK    2  A    between atoms: O_3  and  C_19
REMARK    3  A    between atoms: O_3  and  C_22
REMARK    4  A    between atoms: C_8  and  C_10
REMARK    5  A    between atoms: C_22  and  C_23
REMARK                            x       y       z     vdW  Elec       q    Type
REMARK                         _______ _______ _______ _____ _____    ______ ____
ROOT
ATOM      1  O   UNL     1     114.064 129.174 140.236  0.00  0.00    +0.000 OA
ATOM      2  O   UNL     1     113.081 131.125 142.128  0.00  0.00    +0.000 OA
ATOM      3  O   UNL     1     112.298 129.966 141.779  0.00  0.00    +0.000 OA
ATOM      4  O   UNL     1     115.703 131.490 140.892  0.00  0.00    +0.000 OA
ATOM      5  C   UNL     1     113.579 130.140 141.171  0.00  0.00    +0.000 A 
ATOM      6  C   UNL     1     113.371 128.736 140.329  0.00  0.00    +0.000 A 
ATOM      7  C   UNL     1     114.168 129.875 140.657  0.00  0.00    +0.000 A 
ATOM      8  C   UNL     1     112.781 129.000 140.843  0.00  0.00    +0.000 A 
ATOM      9  C   UNL     1     112.886 129.702 141.264  0.00  0.00    +0.000 A 
ATOM     10  C   UNL     1     113.676 130.869 141.616  0.00  0.00    +0.000 A 
ATOM     11  C   UNL     1     114.895 130.323 140.551  0.00  0.00    +0.000 A 
ATOM     12  C   UNL     1     115.009 131.054 140.987  0.00  0.00    +0.000 A 
ATOM     13  C   UNL     1     114.395 131.329 141.523  0.00  0.00    +0.000 A 
ENDROOT
BRANCH   6  14
ATOM     14  C   UNL     1     113.267 128.035 139.908  0.00  0.00    +0.000 A 
ATOM     15  C   UNL     1     113.564 127.325 140.207  0.00  0.00    +0.000 A 
ATOM     16  C   UNL     1     112.865 128.042 139.187  0.00  0.00    +0.000 A 
ATOM     17  C   UNL     1     113.058 126.631 139.065  0.00  0.00    +0.000 A 
ATOM     18  C   UNL     1     113.460 126.624 139.786  0.00  0.00    +0.000 A 
ATOM     19  C   UNL     1     112.761 127.340 138.767  0.00  0.00    +0.000 A 
BRANCH  17  20
ATOM     20  O   UNL     1     112.954 125.929 138.645  0.00  0.00    +0.000 OA
BRANCH  20  21
ATOM     21  C   UNL     1     113.492 125.718 138.055  0.00  0.00    +0.000 C 
BRANCH  21  22
ATOM     22  C   UNL     1     113.285 125.154 137.490  0.00  0.00    +0.000 C 
ATOM     23  C   UNL     1     113.869 124.797 137.031  0.00  0.00    +0.000 C 
ATOM     24  C   UNL     1     113.662 124.233 136.464  0.00  0.00    +0.000 C 
ATOM     25  C   UNL     1     114.661 125.003 137.136  0.00  0.00    +0.000 C 
ENDBRANCH  21  22
ENDBRANCH  20  21
ENDBRANCH  17  20
ENDBRANCH   6  14
BRANCH   8  26
ATOM     26  O   UNL     1     112.089 128.562 140.936  0.00  0.00    +0.000 OA
ATOM     27  C   UNL     1     111.647 128.632 141.629  0.00  0.00    +0.000 C 
ENDBRANCH   8  26
TORSDOF 5
ENDMDL
MODEL 3
REMARK VINA RESULT:      -7.9      4.902      7.021
REMARK  Name = 44259651
REMARK  5 active torsions:
REMARK  status: ('A' for Active; 'I' for Inactive)
REMARK    1  A    between atoms: O_2  and  C_11
REMARK    2  A    between atoms: O_3  and  C_19
REMARK    3  A    between atoms: O_3  and  C_22
REMARK    4  A    between atoms: C_8  and  C_10
REMARK    5  A    between atoms: C_22  and  C_23
REMARK                            x       y       z     vdW  Elec       q    Type
REMARK                         _______ _______ _______ _____ _____    ______ ____
ROOT
ATOM      1  O   UNL     1     112.622 128.810 141.579  0.00  0.00    +0.000 OA
ATOM      2  O   UNL     1     113.185 131.598 142.087  0.00  0.00    +0.000 OA
ATOM      3  O   UNL     1     113.813 130.899 140.993  0.00  0.00    +0.000 OA
ATOM      4  O   UNL     1     111.315 130.156 143.806  0.00  0.00    +0.000 OA
ATOM      5  C   UNL     1     112.900 130.189 141.831  0.00  0.00    +0.000 A 
ATOM      6  C   UNL     1     113.139 128.823 140.936  0.00  0.00    +0.000 A 
ATOM      7  C   UNL     1     112.502 129.492 142.027  0.00  0.00    +0.000 A 
ATOM      8  C   UNL     1     113.536 129.520 140.740  0.00  0.00    +0.000 A 
ATOM      9  C   UNL     1     113.416 130.203 141.189  0.00  0.00    +0.000 A 
ATOM     10  C   UNL     1     112.783 130.907 142.290  0.00  0.00    +0.000 A 
ATOM     11  C   UNL     1     111.961 129.465 142.694  0.00  0.00    +0.000 A 
ATOM     12  C   UNL     1     111.833 130.173 143.164  0.00  0.00    +0.000 A 
ATOM     13  C   UNL     1     112.246 130.898 142.960  0.00  0.00    +0.000 A 
ENDROOT
BRANCH   6  14
ATOM     14  C   UNL     1     113.259 128.141 140.489  0.00  0.00    +0.000 A 
ATOM     15  C   UNL     1     112.727 127.941 139.890  0.00  0.00    +0.000 A 
ATOM     16  C   UNL     1     113.910 127.658 140.640  0.00  0.00    +0.000 A 
ATOM     17  C   UNL     1     113.499 126.776 139.593  0.00  0.00    +0.000 A 
ATOM     18  C   UNL     1     112.847 127.259 139.442  0.00  0.00    +0.000 A 
ATOM     19  C   UNL     1     114.030 126.976 140.191  0.00  0.00    +0.000 A 
BRANCH  17  20
ATOM     20  O   UNL     1     113.618 126.093 139.145  0.00  0.00    +0.000 OA
BRANCH  20  21
ATOM     21  C   UNL     1     113.881 126.154 138.364  0.00  0.00    +0.000 C 
BRANCH  21  22
ATOM     22  C   UNL     1     114.213 125.499 137.990  0.00  0.00    +0.000 C 
ATOM     23  C   UNL     1     114.312 125.498 137.171  0.00  0.00    +0.000 C 
ATOM     24  C   UNL     1     114.644 124.843 136.795  0.00  0.00    +0.000 C 
ATOM     25  C   UNL     1     114.079 126.153 136.726  0.00  0.00    +0.000 C 
ENDBRANCH  21  22
ENDBRANCH  20  21
ENDBRANCH  17  20
ENDBRANCH   6  14
BRANCH   8  26
ATOM     26  O   UNL     1     114.053 129.534 140.098  0.00  0.00    +0.000 OA
ATOM     27  C   UNL     1     114.196 130.241 139.699  0.00  0.00    +0.000 C 
ENDBRANCH   8  26
TORSDOF 5
ENDMDL
MODEL 4
REMARK VINA RESULT:      -7.9      1.539      5.654
REMARK  Name = 44259651
REMARK  5 active torsions:
REMARK  status: ('A' for Active; 'I' for Inactive)
REMARK    1  A    between atoms: O_2  and  C_11
REMARK    2  A    between atoms: O_3  and  C_19
REMARK    3  A    between atoms: O_3  and  C_22
REMARK    4  A    between atoms: C_8  and  C_10
REMARK    5  A    between atoms: C_22  and  C_23
REMARK                            x       y       z     vdW  Elec       q    Type
REMARK                         _______ _______ _______ _____ _____    ______ ____
ROOT
ATOM      1  O   UNL     1     110.393 130.015 136.048  0.00  0.00    +0.000 OA
ATOM      2  O   UNL     1     107.518 130.175 135.800  0.00  0.00    +0.000 OA
ATOM      3  O   UNL     1     108.183 128.904 135.948  0.00  0.00    +0.000 OA
ATOM      4  O   UNL     1     109.120 132.617 135.753  0.00  0.00    +0.000 OA
ATOM      5  C   UNL     1     108.971 130.095 135.925  0.00  0.00    +0.000 A 
ATOM      6  C   UNL     1     110.342 129.193 136.104  0.00  0.00    +0.000 A 
ATOM      7  C   UNL     1     109.709 130.466 135.959  0.00  0.00    +0.000 A 
ATOM      8  C   UNL     1     109.605 128.822 136.071  0.00  0.00    +0.000 A 
ATOM      9  C   UNL     1     108.920 129.274 135.981  0.00  0.00    +0.000 A 
ATOM     10  C   UNL     1     108.250 130.554 135.832  0.00  0.00    +0.000 A 
ATOM     11  C   UNL     1     109.775 131.321 135.902  0.00  0.00    +0.000 A 
ATOM     12  C   UNL     1     109.066 131.796 135.808  0.00  0.00    +0.000 A 
ATOM     13  C   UNL     1     108.298 131.410 135.773  0.00  0.00    +0.000 A 
ENDROOT
BRANCH   6  14
ATOM     14  C   UNL     1     111.026 128.742 136.194  0.00  0.00    +0.000 A 
ATOM     15  C   UNL     1     111.439 128.481 135.529  0.00  0.00    +0.000 A 
ATOM     16  C   UNL     1     111.298 128.551 136.949  0.00  0.00    +0.000 A 
ATOM     17  C   UNL     1     112.396 127.839 136.373  0.00  0.00    +0.000 A 
ATOM     18  C   UNL     1     112.124 128.030 135.618  0.00  0.00    +0.000 A 
ATOM     19  C   UNL     1     111.983 128.100 137.038  0.00  0.00    +0.000 A 
BRANCH  17  20
ATOM     20  O   UNL     1     113.081 127.388 136.462  0.00  0.00    +0.000 OA
BRANCH  20  21
ATOM     21  C   UNL     1     113.025 126.570 136.559  0.00  0.00    +0.000 C 
BRANCH  21  22
ATOM     22  C   UNL     1     113.702 126.128 136.723  0.00  0.00    +0.000 C 
ATOM     23  C   UNL     1     113.662 125.304 136.741  0.00  0.00    +0.000 C 
ATOM     24  C   UNL     1     114.339 124.861 136.905  0.00  0.00    +0.000 C 
ATOM     25  C   UNL     1     112.945 124.922 136.596  0.00  0.00    +0.000 C 
ENDBRANCH  21  22
ENDBRANCH  20  21
ENDBRANCH  17  20
ENDBRANCH   6  14
BRANCH   8  26
ATOM     26  O   UNL     1     109.553 128.001 136.127  0.00  0.00    +0.000 OA
ATOM     27  C   UNL     1     108.878 127.611 135.858  0.00  0.00    +0.000 C 
ENDBRANCH   8  26
TORSDOF 5
ENDMDL
MODEL 5
REMARK VINA RESULT:      -7.8      9.405     11.212
REMARK  Name = 44259651
REMARK  5 active torsions:
REMARK  status: ('A' for Active; 'I' for Inactive)
REMARK    1  A    between atoms: O_2  and  C_11
REMARK    2  A    between atoms: O_3  and  C_19
REMARK    3  A    between atoms: O_3  and  C_22
REMARK    4  A    between atoms: C_8  and  C_10
REMARK    5  A    between atoms: C_22  and  C_23
REMARK                            x       y       z     vdW  Elec       q    Type
REMARK                         _______ _______ _______ _____ _____    ______ ____
ROOT
ATOM      1  O   UNL     1     103.514 130.082 142.256  0.00  0.00    +0.000 OA
ATOM      2  O   UNL     1     104.256 127.690 140.815  0.00  0.00    +0.000 OA
ATOM      3  O   UNL     1     103.314 128.631 140.261  0.00  0.00    +0.000 OA
ATOM      4  O   UNL     1     105.422 128.226 143.438  0.00  0.00    +0.000 OA
ATOM      5  C   UNL     1     103.881 128.898 141.544  0.00  0.00    +0.000 A 
ATOM      6  C   UNL     1     103.013 130.299 141.638  0.00  0.00    +0.000 A 
ATOM      7  C   UNL     1     103.948 129.382 142.210  0.00  0.00    +0.000 A 
ATOM      8  C   UNL     1     102.946 129.815 140.972  0.00  0.00    +0.000 A 
ATOM      9  C   UNL     1     103.381 129.115 140.926  0.00  0.00    +0.000 A 
ATOM     10  C   UNL     1     104.329 128.167 141.484  0.00  0.00    +0.000 A 
ATOM     11  C   UNL     1     104.467 129.168 142.861  0.00  0.00    +0.000 A 
ATOM     12  C   UNL     1     104.922 128.440 142.818  0.00  0.00    +0.000 A 
ATOM     13  C   UNL     1     104.852 127.936 142.125  0.00  0.00    +0.000 A 
ENDROOT
BRANCH   6  14
ATOM     14  C   UNL     1     102.579 130.998 141.684  0.00  0.00    +0.000 A 
ATOM     15  C   UNL     1     102.877 131.692 141.353  0.00  0.00    +0.000 A 
ATOM     16  C   UNL     1     101.845 131.004 142.062  0.00  0.00    +0.000 A 
ATOM     17  C   UNL     1     101.709 132.398 141.777  0.00  0.00    +0.000 A 
ATOM     18  C   UNL     1     102.443 132.392 141.399  0.00  0.00    +0.000 A 
ATOM     19  C   UNL     1     101.411 131.704 142.108  0.00  0.00    +0.000 A 
BRANCH  17  20
ATOM     20  O   UNL     1     101.275 133.098 141.823  0.00  0.00    +0.000 OA
BRANCH  20  21
ATOM     21  C   UNL     1     101.427 133.638 142.430  0.00  0.00    +0.000 C 
BRANCH  21  22
ATOM     22  C   UNL     1     100.998 134.340 142.473  0.00  0.00    +0.000 C 
ATOM     23  C   UNL     1     101.140 134.874 143.086  0.00  0.00    +0.000 C 
ATOM     24  C   UNL     1     100.710 135.577 143.129  0.00  0.00    +0.000 C 
ATOM     25  C   UNL     1     101.711 134.704 143.656  0.00  0.00    +0.000 C 
ENDBRANCH  21  22
ENDBRANCH  20  21
ENDBRANCH  17  20
ENDBRANCH   6  14
BRANCH   8  26
ATOM     26  O   UNL     1     102.445 130.031 140.354  0.00  0.00    +0.000 OA
ATOM     27  C   UNL     1     102.195 129.465 139.809  0.00  0.00    +0.000 C 
ENDBRANCH   8  26
TORSDOF 5
ENDMDL
MODEL 6
REMARK VINA RESULT:      -7.8      2.322      6.204
REMARK  Name = 44259651
REMARK  5 active torsions:
REMARK  status: ('A' for Active; 'I' for Inactive)
REMARK    1  A    between atoms: O_2  and  C_11
REMARK    2  A    between atoms: O_3  and  C_19
REMARK    3  A    between atoms: O_3  and  C_22
REMARK    4  A    between atoms: C_8  and  C_10
REMARK    5  A    between atoms: C_22  and  C_23
REMARK                            x       y       z     vdW  Elec       q    Type
REMARK                         _______ _______ _______ _____ _____    ______ ____
ROOT
ATOM      1  O   UNL     1     111.307 130.556 136.704  0.00  0.00    +0.000 OA
ATOM      2  O   UNL     1     110.557 132.419 138.783  0.00  0.00    +0.000 OA
ATOM      3  O   UNL     1     111.336 131.242 139.082  0.00  0.00    +0.000 OA
ATOM      4  O   UNL     1     109.734 132.910 136.024  0.00  0.00    +0.000 OA
ATOM      5  C   UNL     1     110.936 131.478 137.732  0.00  0.00    +0.000 A 
ATOM      6  C   UNL     1     111.698 130.091 137.263  0.00  0.00    +0.000 A 
ATOM      7  C   UNL     1     110.926 131.249 136.938  0.00  0.00    +0.000 A 
ATOM      8  C   UNL     1     111.707 130.320 138.056  0.00  0.00    +0.000 A 
ATOM      9  C   UNL     1     111.326 131.013 138.290  0.00  0.00    +0.000 A 
ATOM     10  C   UNL     1     110.542 132.198 137.988  0.00  0.00    +0.000 A 
ATOM     11  C   UNL     1     110.522 131.725 136.347  0.00  0.00    +0.000 A 
ATOM     12  C   UNL     1     110.124 132.447 136.584  0.00  0.00    +0.000 A 
ATOM     13  C   UNL     1     110.134 132.686 137.411  0.00  0.00    +0.000 A 
ENDROOT
BRANCH   6  14
ATOM     14  C   UNL     1     112.079 129.398 137.029  0.00  0.00    +0.000 A 
ATOM     15  C   UNL     1     112.872 129.419 136.803  0.00  0.00    +0.000 A 
ATOM     16  C   UNL     1     111.666 128.683 137.021  0.00  0.00    +0.000 A 
ATOM     17  C   UNL     1     112.841 128.011 136.561  0.00  0.00    +0.000 A 
ATOM     18  C   UNL     1     113.253 128.726 136.569  0.00  0.00    +0.000 A 
ATOM     19  C   UNL     1     112.048 127.990 136.787  0.00  0.00    +0.000 A 
BRANCH  17  20
ATOM     20  O   UNL     1     113.222 127.318 136.327  0.00  0.00    +0.000 OA
BRANCH  20  21
ATOM     21  C   UNL     1     113.516 126.797 136.897  0.00  0.00    +0.000 C 
BRANCH  21  22
ATOM     22  C   UNL     1     113.958 126.140 136.665  0.00  0.00    +0.000 C 
ATOM     23  C   UNL     1     114.208 125.592 137.229  0.00  0.00    +0.000 C 
ATOM     24  C   UNL     1     114.650 124.934 136.998  0.00  0.00    +0.000 C 
ATOM     25  C   UNL     1     114.017 125.701 138.024  0.00  0.00    +0.000 C 
ENDBRANCH  21  22
ENDBRANCH  20  21
ENDBRANCH  17  20
ENDBRANCH   6  14
BRANCH   8  26
ATOM     26  O   UNL     1     112.098 129.855 138.614  0.00  0.00    +0.000 OA
ATOM     27  C   UNL     1     112.286 130.170 139.353  0.00  0.00    +0.000 C 
ENDBRANCH   8  26
TORSDOF 5
ENDMDL
MODEL 7
REMARK VINA RESULT:      -7.7      3.378      4.298
REMARK  Name = 44259651
REMARK  5 active torsions:
REMARK  status: ('A' for Active; 'I' for Inactive)
REMARK    1  A    between atoms: O_2  and  C_11
REMARK    2  A    between atoms: O_3  and  C_19
REMARK    3  A    between atoms: O_3  and  C_22
REMARK    4  A    between atoms: C_8  and  C_10
REMARK    5  A    between atoms: C_22  and  C_23
REMARK                            x       y       z     vdW  Elec       q    Type
REMARK                         _______ _______ _______ _____ _____    ______ ____
ROOT
ATOM      1  O   UNL     1     113.355 126.113 138.119  0.00  0.00    +0.000 OA
ATOM      2  O   UNL     1     111.637 123.996 137.162  0.00  0.00    +0.000 OA
ATOM      3  O   UNL     1     111.211 124.882 138.217  0.00  0.00    +0.000 OA
ATOM      4  O   UNL     1     114.285 124.364 135.985  0.00  0.00    +0.000 OA
ATOM      5  C   UNL     1     112.506 125.066 137.645  0.00  0.00    +0.000 A 
ATOM      6  C   UNL     1     112.774 126.340 138.660  0.00  0.00    +0.000 A 
ATOM      7  C   UNL     1     113.222 125.477 137.613  0.00  0.00    +0.000 A 
ATOM      8  C   UNL     1     112.059 125.929 138.692  0.00  0.00    +0.000 A 
ATOM      9  C   UNL     1     111.926 125.292 138.185  0.00  0.00    +0.000 A 
ATOM     10  C   UNL     1     112.355 124.401 137.122  0.00  0.00    +0.000 A 
ATOM     11  C   UNL     1     113.836 125.250 137.054  0.00  0.00    +0.000 A 
ATOM     12  C   UNL     1     113.702 124.588 136.524  0.00  0.00    +0.000 A 
ATOM     13  C   UNL     1     112.957 124.160 136.558  0.00  0.00    +0.000 A 
ENDROOT
BRANCH   6  14
ATOM     14  C   UNL     1     112.908 126.976 139.166  0.00  0.00    +0.000 A 
ATOM     15  C   UNL     1     113.263 126.853 139.901  0.00  0.00    +0.000 A 
ATOM     16  C   UNL     1     112.686 127.738 138.939  0.00  0.00    +0.000 A 
ATOM     17  C   UNL     1     113.174 128.250 140.180  0.00  0.00    +0.000 A 
ATOM     18  C   UNL     1     113.397 127.489 140.407  0.00  0.00    +0.000 A 
ATOM     19  C   UNL     1     112.819 128.375 139.447  0.00  0.00    +0.000 A 
BRANCH  17  20
ATOM     20  O   UNL     1     113.308 128.887 140.688  0.00  0.00    +0.000 OA
BRANCH  20  21
ATOM     21  C   UNL     1     113.924 129.416 140.533  0.00  0.00    +0.000 C 
BRANCH  21  22
ATOM     22  C   UNL     1     114.002 130.101 140.985  0.00  0.00    +0.000 C 
ATOM     23  C   UNL     1     114.649 130.599 140.870  0.00  0.00    +0.000 C 
ATOM     24  C   UNL     1     114.728 131.285 141.323  0.00  0.00    +0.000 C 
ATOM     25  C   UNL     1     115.218 130.412 140.303  0.00  0.00    +0.000 C 
ENDBRANCH  21  22
ENDBRANCH  20  21
ENDBRANCH  17  20
ENDBRANCH   6  14
BRANCH   8  26
ATOM     26  O   UNL     1     111.478 126.156 139.232  0.00  0.00    +0.000 OA
ATOM     27  C   UNL     1     110.692 125.935 139.109  0.00  0.00    +0.000 C 
ENDBRANCH   8  26
TORSDOF 5
ENDMDL
MODEL 8
REMARK VINA RESULT:      -7.5      2.566      5.440
REMARK  Name = 44259651
REMARK  5 active torsions:
REMARK  status: ('A' for Active; 'I' for Inactive)
REMARK    1  A    between atoms: O_2  and  C_11
REMARK    2  A    between atoms: O_3  and  C_19
REMARK    3  A    between atoms: O_3  and  C_22
REMARK    4  A    between atoms: C_8  and  C_10
REMARK    5  A    between atoms: C_22  and  C_23
REMARK                            x       y       z     vdW  Elec       q    Type
REMARK                         _______ _______ _______ _____ _____    ______ ____
ROOT
ATOM      1  O   UNL     1     113.783 128.960 136.064  0.00  0.00    +0.000 OA
ATOM      2  O   UNL     1     113.898 131.805 136.555  0.00  0.00    +0.000 OA
ATOM      3  O   UNL     1     112.957 130.966 137.255  0.00  0.00    +0.000 OA
ATOM      4  O   UNL     1     115.710 130.591 134.612  0.00  0.00    +0.000 OA
ATOM      5  C   UNL     1     113.841 130.367 136.306  0.00  0.00    +0.000 A 
ATOM      6  C   UNL     1     113.174 128.890 136.616  0.00  0.00    +0.000 A 
ATOM      7  C   UNL     1     114.116 129.698 135.908  0.00  0.00    +0.000 A 
ATOM      8  C   UNL     1     112.898 129.559 137.014  0.00  0.00    +0.000 A 
ATOM      9  C   UNL     1     113.232 130.298 136.858  0.00  0.00    +0.000 A 
ATOM     10  C   UNL     1     114.180 131.142 136.153  0.00  0.00    +0.000 A 
ATOM     11  C   UNL     1     114.750 129.758 135.331  0.00  0.00    +0.000 A 
ATOM     12  C   UNL     1     115.101 130.524 135.165  0.00  0.00    +0.000 A 
ATOM     13  C   UNL     1     114.814 131.221 135.579  0.00  0.00    +0.000 A 
ENDROOT
BRANCH   6  14
ATOM     14  C   UNL     1     112.840 128.152 136.771  0.00  0.00    +0.000 A 
ATOM     15  C   UNL     1     113.113 127.700 137.406  0.00  0.00    +0.000 A 
ATOM     16  C   UNL     1     112.233 127.865 136.293  0.00  0.00    +0.000 A 
ATOM     17  C   UNL     1     112.173 126.675 137.082  0.00  0.00    +0.000 A 
ATOM     18  C   UNL     1     112.780 126.962 137.561  0.00  0.00    +0.000 A 
ATOM     19  C   UNL     1     111.900 127.126 136.448  0.00  0.00    +0.000 A 
BRANCH  17  20
ATOM     20  O   UNL     1     111.839 125.937 137.238  0.00  0.00    +0.000 OA
BRANCH  20  21
ATOM     21  C   UNL     1     112.237 125.249 137.013  0.00  0.00    +0.000 C 
BRANCH  21  22
ATOM     22  C   UNL     1     111.896 124.511 137.152  0.00  0.00    +0.000 C 
ATOM     23  C   UNL     1     112.317 123.823 136.977  0.00  0.00    +0.000 C 
ATOM     24  C   UNL     1     111.975 123.084 137.116  0.00  0.00    +0.000 C 
ATOM     25  C   UNL     1     113.078 123.872 136.664  0.00  0.00    +0.000 C 
ENDBRANCH  21  22
ENDBRANCH  20  21
ENDBRANCH  17  20
ENDBRANCH   6  14
BRANCH   8  26
ATOM     26  O   UNL     1     112.290 129.489 137.566  0.00  0.00    +0.000 OA
ATOM     27  C   UNL     1     111.928 130.166 137.868  0.00  0.00    +0.000 C 
ENDBRANCH   8  26
TORSDOF 5
ENDMDL
MODEL 9
REMARK VINA RESULT:      -7.4      2.617      3.600
REMARK  Name = 44259651
REMARK  5 active torsions:
REMARK  status: ('A' for Active; 'I' for Inactive)
REMARK    1  A    between atoms: O_2  and  C_11
REMARK    2  A    between atoms: O_3  and  C_19
REMARK    3  A    between atoms: O_3  and  C_22
REMARK    4  A    between atoms: C_8  and  C_10
REMARK    5  A    between atoms: C_22  and  C_23
REMARK                            x       y       z     vdW  Elec       q    Type
REMARK                         _______ _______ _______ _____ _____    ______ ____
ROOT
ATOM      1  O   UNL     1     112.434 126.323 137.291  0.00  0.00    +0.000 OA
ATOM      2  O   UNL     1     110.687 125.087 135.350  0.00  0.00    +0.000 OA
ATOM      3  O   UNL     1     110.731 126.520 135.506  0.00  0.00    +0.000 OA
ATOM      4  O   UNL     1     112.400 123.423 137.031  0.00  0.00    +0.000 OA
ATOM      5  C   UNL     1     111.570 125.711 136.331  0.00  0.00    +0.000 A 
ATOM      6  C   UNL     1     112.162 127.068 137.061  0.00  0.00    +0.000 A 
ATOM      7  C   UNL     1     112.139 125.645 136.926  0.00  0.00    +0.000 A 
ATOM      8  C   UNL     1     111.594 127.133 136.465  0.00  0.00    +0.000 A 
ATOM      9  C   UNL     1     111.298 126.454 136.101  0.00  0.00    +0.000 A 
ATOM     10  C   UNL     1     111.255 125.011 135.943  0.00  0.00    +0.000 A 
ATOM     11  C   UNL     1     112.430 124.875 137.175  0.00  0.00    +0.000 A 
ATOM     12  C   UNL     1     112.126 124.166 136.799  0.00  0.00    +0.000 A 
ATOM     13  C   UNL     1     111.534 124.234 136.179  0.00  0.00    +0.000 A 
ENDROOT
BRANCH   6  14
ATOM     14  C   UNL     1     112.458 127.746 137.425  0.00  0.00    +0.000 A 
ATOM     15  C   UNL     1     113.135 128.112 137.129  0.00  0.00    +0.000 A 
ATOM     16  C   UNL     1     112.076 128.058 138.086  0.00  0.00    +0.000 A 
ATOM     17  C   UNL     1     113.049 129.103 138.154  0.00  0.00    +0.000 A 
ATOM     18  C   UNL     1     113.430 128.790 137.493  0.00  0.00    +0.000 A 
ATOM     19  C   UNL     1     112.372 128.737 138.450  0.00  0.00    +0.000 A 
BRANCH  17  20
ATOM     20  O   UNL     1     113.345 129.781 138.518  0.00  0.00    +0.000 OA
BRANCH  20  21
ATOM     21  C   UNL     1     113.777 129.718 139.219  0.00  0.00    +0.000 C 
BRANCH  21  22
ATOM     22  C   UNL     1     114.170 130.377 139.522  0.00  0.00    +0.000 C 
ATOM     23  C   UNL     1     114.572 130.323 140.240  0.00  0.00    +0.000 C 
ATOM     24  C   UNL     1     114.966 130.982 140.543  0.00  0.00    +0.000 C 
ATOM     25  C   UNL     1     114.580 129.611 140.657  0.00  0.00    +0.000 C 
ENDBRANCH  21  22
ENDBRANCH  20  21
ENDBRANCH  17  20
ENDBRANCH   6  14
BRANCH   8  26
ATOM     26  O   UNL     1     111.322 127.877 136.235  0.00  0.00    +0.000 OA
ATOM     27  C   UNL     1     110.990 127.981 135.487  0.00  0.00    +0.000 C 
ENDBRANCH   8  26
TORSDOF 5
ENDMDL
