MODEL 1
REMARK VINA RESULT:      -9.3      0.000      0.000
REMARK  Name = 44259953
REMARK  7 active torsions:
REMARK  status: ('A' for Active; 'I' for Inactive)
REMARK    1  A    between atoms: O_2  and  C_14
REMARK    2  A    between atoms: O_2  and  C_21
REMARK    3  A    between atoms: O_3  and  C_15
REMARK    4  A    between atoms: O_3  and  C_22
REMARK    5  A    between atoms: O_4  and  C_17
REMARK    6  A    between atoms: O_4  and  C_19
REMARK    7  A    between atoms: C_30  and  C_32
REMARK                            x       y       z     vdW  Elec       q    Type
REMARK                         _______ _______ _______ _____ _____    ______ ____
ROOT
ATOM      1  O   UNL     1     112.272 126.575 136.049  0.00  0.00    +0.000 OA
ATOM      2  O   UNL     1     110.715 128.573 134.612  0.00  0.00    +0.000 OA
ATOM      3  O   UNL     1     109.761 125.822 134.831  0.00  0.00    +0.000 OA
ATOM      4  O   UNL     1     111.901 124.457 136.424  0.00  0.00    +0.000 OA
ATOM      5  O   UNL     1     110.560 124.859 135.551  0.00  0.00    +0.000 OA
ATOM      6  C   UNL     1     111.509 127.585 135.336  0.00  0.00    +0.000 A 
ATOM      7  C   UNL     1     111.600 126.776 135.612  0.00  0.00    +0.000 A 
ATOM      8  C   UNL     1     110.812 127.800 134.881  0.00  0.00    +0.000 A 
ATOM      9  C   UNL     1     111.030 126.204 135.446  0.00  0.00    +0.000 A 
ATOM     10  C   UNL     1     110.327 126.400 134.993  0.00  0.00    +0.000 A 
ATOM     11  C   UNL     1     110.218 127.203 134.708  0.00  0.00    +0.000 A 
ATOM     12  C   UNL     1     111.130 125.431 135.717  0.00  0.00    +0.000 A 
ATOM     13  C   UNL     1     112.371 125.802 136.319  0.00  0.00    +0.000 A 
ATOM     14  C   UNL     1     111.801 125.230 136.153  0.00  0.00    +0.000 A 
ENDROOT
BRANCH  13  16
ATOM     15  O   UNL     1     115.054 125.000 138.066  0.00  0.00    +0.000 OA
ATOM     16  C   UNL     1     113.042 125.602 136.756  0.00  0.00    +0.000 A 
ATOM     17  C   UNL     1     113.027 125.649 137.579  0.00  0.00    +0.000 A 
ATOM     18  C   UNL     1     113.728 125.354 136.369  0.00  0.00    +0.000 A 
ATOM     19  C   UNL     1     113.699 125.448 138.016  0.00  0.00    +0.000 A 
ATOM     20  C   UNL     1     114.398 125.154 136.805  0.00  0.00    +0.000 A 
ATOM     21  C   UNL     1     114.384 125.201 137.629  0.00  0.00    +0.000 A 
ENDBRANCH  13  16
BRANCH   6  22
ATOM     22  O   UNL     1     112.083 128.150 135.507  0.00  0.00    +0.000 OA
BRANCH  22  28
ATOM     23  O   UNL     1     111.235 128.784 136.465  0.00  0.00    +0.000 OA
ATOM     24  O   UNL     1     111.696 130.176 138.082  0.00  0.00    +0.000 OA
ATOM     25  C   UNL     1     112.545 129.542 137.123  0.00  0.00    +0.000 C 
ATOM     26  C   UNL     1     112.642 129.036 136.480  0.00  0.00    +0.000 C 
ATOM     27  C   UNL     1     111.794 129.670 137.438  0.00  0.00    +0.000 C 
ATOM     28  C   UNL     1     111.987 128.657 136.150  0.00  0.00    +0.000 C 
ATOM     29  C   UNL     1     111.139 129.291 137.109  0.00  0.00    +0.000 C 
BRANCH  25  30
ATOM     30  O   UNL     1     113.200 129.921 137.453  0.00  0.00    +0.000 OA
BRANCH  30  32
ATOM     31  O   UNL     1     113.452 128.989 138.506  0.00  0.00    +0.000 OA
ATOM     32  C   UNL     1     113.417 129.768 138.233  0.00  0.00    +0.000 C 
ATOM     33  C   UNL     1     113.598 130.391 138.742  0.00  0.00    +0.000 C 
ENDBRANCH  30  32
ENDBRANCH  25  30
BRANCH  26  34
ATOM     34  O   UNL     1     113.394 128.908 136.164  0.00  0.00    +0.000 OA
BRANCH  34  36
ATOM     35  O   UNL     1     113.285 130.091 135.370  0.00  0.00    +0.000 OA
ATOM     36  C   UNL     1     113.667 129.382 135.547  0.00  0.00    +0.000 C 
ATOM     37  C   UNL     1     114.323 129.146 135.105  0.00  0.00    +0.000 C 
ENDBRANCH  34  36
ENDBRANCH  26  34
ENDBRANCH  22  28
ENDBRANCH   6  22
TORSDOF 7
ENDMDL
MODEL 2
REMARK VINA RESULT:      -9.2      0.852      1.163
REMARK  Name = 44259953
REMARK  7 active torsions:
REMARK  status: ('A' for Active; 'I' for Inactive)
REMARK    1  A    between atoms: O_2  and  C_14
REMARK    2  A    between atoms: O_2  and  C_21
REMARK    3  A    between atoms: O_3  and  C_15
REMARK    4  A    between atoms: O_3  and  C_22
REMARK    5  A    between atoms: O_4  and  C_17
REMARK    6  A    between atoms: O_4  and  C_19
REMARK    7  A    between atoms: C_30  and  C_32
REMARK                            x       y       z     vdW  Elec       q    Type
REMARK                         _______ _______ _______ _____ _____    ______ ____
ROOT
ATOM      1  O   UNL     1     112.084 126.547 136.137  0.00  0.00    +0.000 OA
ATOM      2  O   UNL     1     110.295 128.327 134.683  0.00  0.00    +0.000 OA
ATOM      3  O   UNL     1     109.784 125.453 134.772  0.00  0.00    +0.000 OA
ATOM      4  O   UNL     1     112.039 124.384 136.430  0.00  0.00    +0.000 OA
ATOM      5  O   UNL     1     110.692 124.602 135.502  0.00  0.00    +0.000 OA
ATOM      6  C   UNL     1     111.203 127.449 135.417  0.00  0.00    +0.000 A 
ATOM      7  C   UNL     1     111.410 126.655 135.673  0.00  0.00    +0.000 A 
ATOM      8  C   UNL     1     110.503 127.568 134.934  0.00  0.00    +0.000 A 
ATOM      9  C   UNL     1     110.946 126.007 135.461  0.00  0.00    +0.000 A 
ATOM     10  C   UNL     1     110.242 126.107 134.979  0.00  0.00    +0.000 A 
ATOM     11  C   UNL     1     110.019 126.892 134.713  0.00  0.00    +0.000 A 
ATOM     12  C   UNL     1     111.156 125.250 135.714  0.00  0.00    +0.000 A 
ATOM     13  C   UNL     1     112.293 125.790 136.389  0.00  0.00    +0.000 A 
ATOM     14  C   UNL     1     111.829 125.141 136.177  0.00  0.00    +0.000 A 
ENDROOT
BRANCH  13  16
ATOM     15  O   UNL     1     114.987 125.357 138.244  0.00  0.00    +0.000 OA
ATOM     16  C   UNL     1     112.967 125.682 136.853  0.00  0.00    +0.000 A 
ATOM     17  C   UNL     1     112.912 125.722 137.675  0.00  0.00    +0.000 A 
ATOM     18  C   UNL     1     113.695 125.533 136.494  0.00  0.00    +0.000 A 
ATOM     19  C   UNL     1     113.586 125.613 138.139  0.00  0.00    +0.000 A 
ATOM     20  C   UNL     1     114.368 125.425 136.958  0.00  0.00    +0.000 A 
ATOM     21  C   UNL     1     114.314 125.465 137.781  0.00  0.00    +0.000 A 
ENDBRANCH  13  16
BRANCH   6  22
ATOM     22  O   UNL     1     111.672 128.092 135.632  0.00  0.00    +0.000 OA
BRANCH  22  28
ATOM     23  O   UNL     1     110.840 128.365 136.761  0.00  0.00    +0.000 OA
ATOM     24  O   UNL     1     110.667 130.146 138.011  0.00  0.00    +0.000 OA
ATOM     25  C   UNL     1     111.500 129.873 136.882  0.00  0.00    +0.000 C 
ATOM     26  C   UNL     1     111.751 129.359 136.288  0.00  0.00    +0.000 C 
ATOM     27  C   UNL     1     110.919 129.633 137.416  0.00  0.00    +0.000 C 
ATOM     28  C   UNL     1     111.421 128.605 136.227  0.00  0.00    +0.000 C 
ATOM     29  C   UNL     1     110.589 128.879 137.356  0.00  0.00    +0.000 C 
BRANCH  25  30
ATOM     30  O   UNL     1     111.830 130.627 136.943  0.00  0.00    +0.000 OA
BRANCH  30  32
ATOM     31  O   UNL     1     110.814 131.338 136.231  0.00  0.00    +0.000 OA
ATOM     32  C   UNL     1     111.353 131.294 136.856  0.00  0.00    +0.000 C 
ATOM     33  C   UNL     1     111.414 131.919 137.392  0.00  0.00    +0.000 C 
ENDBRANCH  30  32
ENDBRANCH  25  30
BRANCH  26  34
ATOM     34  O   UNL     1     112.332 129.599 135.753  0.00  0.00    +0.000 OA
BRANCH  34  36
ATOM     35  O   UNL     1     113.365 129.236 136.672  0.00  0.00    +0.000 OA
ATOM     36  C   UNL     1     113.126 129.437 135.908  0.00  0.00    +0.000 C 
ATOM     37  C   UNL     1     113.682 129.475 135.299  0.00  0.00    +0.000 C 
ENDBRANCH  34  36
ENDBRANCH  26  34
ENDBRANCH  22  28
ENDBRANCH   6  22
TORSDOF 7
ENDMDL
MODEL 3
REMARK VINA RESULT:      -9.1      1.737      2.838
REMARK  Name = 44259953
REMARK  7 active torsions:
REMARK  status: ('A' for Active; 'I' for Inactive)
REMARK    1  A    between atoms: O_2  and  C_14
REMARK    2  A    between atoms: O_2  and  C_21
REMARK    3  A    between atoms: O_3  and  C_15
REMARK    4  A    between atoms: O_3  and  C_22
REMARK    5  A    between atoms: O_4  and  C_17
REMARK    6  A    between atoms: O_4  and  C_19
REMARK    7  A    between atoms: C_30  and  C_32
REMARK                            x       y       z     vdW  Elec       q    Type
REMARK                         _______ _______ _______ _____ _____    ______ ____
ROOT
ATOM      1  O   UNL     1     110.327 128.134 136.026  0.00  0.00    +0.000 OA
ATOM      2  O   UNL     1     110.605 131.023 136.262  0.00  0.00    +0.000 OA
ATOM      3  O   UNL     1     107.986 129.814 135.803  0.00  0.00    +0.000 OA
ATOM      4  O   UNL     1     108.573 126.878 135.688  0.00  0.00    +0.000 OA
ATOM      5  O   UNL     1     107.887 128.379 135.691  0.00  0.00    +0.000 OA
ATOM      6  C   UNL     1     110.484 129.572 136.146  0.00  0.00    +0.000 A 
ATOM      7  C   UNL     1     109.983 128.885 136.027  0.00  0.00    +0.000 A 
ATOM      8  C   UNL     1     110.133 130.356 136.149  0.00  0.00    +0.000 A 
ATOM      9  C   UNL     1     109.170 128.966 135.916  0.00  0.00    +0.000 A 
ATOM     10  C   UNL     1     108.800 129.742 135.915  0.00  0.00    +0.000 A 
ATOM     11  C   UNL     1     109.285 130.441 136.032  0.00  0.00    +0.000 A 
ATOM     12  C   UNL     1     108.700 128.297 135.803  0.00  0.00    +0.000 A 
ATOM     13  C   UNL     1     109.856 127.466 135.913  0.00  0.00    +0.000 A 
ATOM     14  C   UNL     1     109.043 127.548 135.801  0.00  0.00    +0.000 A 
ENDROOT
BRANCH  13  16
ATOM     15  O   UNL     1     111.230 124.465 135.906  0.00  0.00    +0.000 OA
ATOM     16  C   UNL     1     110.200 126.715 135.911  0.00  0.00    +0.000 A 
ATOM     17  C   UNL     1     110.441 126.374 135.200  0.00  0.00    +0.000 A 
ATOM     18  C   UNL     1     110.302 126.307 136.621  0.00  0.00    +0.000 A 
ATOM     19  C   UNL     1     110.784 125.623 135.198  0.00  0.00    +0.000 A 
ATOM     20  C   UNL     1     110.645 125.557 136.619  0.00  0.00    +0.000 A 
ATOM     21  C   UNL     1     110.887 125.215 135.908  0.00  0.00    +0.000 A 
ENDBRANCH  13  16
BRANCH   6  22
ATOM     22  O   UNL     1     111.296 129.482 136.257  0.00  0.00    +0.000 OA
BRANCH  22  28
ATOM     23  O   UNL     1     111.136 129.515 137.675  0.00  0.00    +0.000 OA
ATOM     24  O   UNL     1     112.597 129.795 139.272  0.00  0.00    +0.000 OA
ATOM     25  C   UNL     1     112.758 129.762 137.853  0.00  0.00    +0.000 C 
ATOM     26  C   UNL     1     112.432 129.684 137.099  0.00  0.00    +0.000 C 
ATOM     27  C   UNL     1     112.273 129.717 138.518  0.00  0.00    +0.000 C 
ATOM     28  C   UNL     1     111.622 129.560 137.010  0.00  0.00    +0.000 C 
ATOM     29  C   UNL     1     111.462 129.593 138.430  0.00  0.00    +0.000 C 
BRANCH  25  30
ATOM     30  O   UNL     1     113.569 129.886 137.942  0.00  0.00    +0.000 OA
BRANCH  30  32
ATOM     31  O   UNL     1     113.611 131.313 137.996  0.00  0.00    +0.000 OA
ATOM     32  C   UNL     1     113.845 130.579 138.293  0.00  0.00    +0.000 C 
ATOM     33  C   UNL     1     114.355 130.540 138.940  0.00  0.00    +0.000 C 
ENDBRANCH  30  32
ENDBRANCH  25  30
BRANCH  26  34
ATOM     34  O   UNL     1     112.918 129.729 136.433  0.00  0.00    +0.000 OA
BRANCH  34  36
ATOM     35  O   UNL     1     113.289 128.356 136.574  0.00  0.00    +0.000 OA
ATOM     36  C   UNL     1     113.248 129.042 136.117  0.00  0.00    +0.000 C 
ATOM     37  C   UNL     1     113.539 129.041 135.345  0.00  0.00    +0.000 C 
ENDBRANCH  34  36
ENDBRANCH  26  34
ENDBRANCH  22  28
ENDBRANCH   6  22
TORSDOF 7
ENDMDL
MODEL 4
REMARK VINA RESULT:      -9.1      1.277      3.558
REMARK  Name = 44259953
REMARK  7 active torsions:
REMARK  status: ('A' for Active; 'I' for Inactive)
REMARK    1  A    between atoms: O_2  and  C_14
REMARK    2  A    between atoms: O_2  and  C_21
REMARK    3  A    between atoms: O_3  and  C_15
REMARK    4  A    between atoms: O_3  and  C_22
REMARK    5  A    between atoms: O_4  and  C_17
REMARK    6  A    between atoms: O_4  and  C_19
REMARK    7  A    between atoms: C_30  and  C_32
REMARK                            x       y       z     vdW  Elec       q    Type
REMARK                         _______ _______ _______ _____ _____    ______ ____
ROOT
ATOM      1  O   UNL     1     112.183 127.465 135.999  0.00  0.00    +0.000 OA
ATOM      2  O   UNL     1     111.236 124.733 136.339  0.00  0.00    +0.000 OA
ATOM      3  O   UNL     1     109.703 126.652 134.759  0.00  0.00    +0.000 OA
ATOM      4  O   UNL     1     111.336 129.159 134.913  0.00  0.00    +0.000 OA
ATOM      5  O   UNL     1     110.203 127.997 134.612  0.00  0.00    +0.000 OA
ATOM      6  C   UNL     1     111.726 126.099 136.179  0.00  0.00    +0.000 A 
ATOM      7  C   UNL     1     111.616 126.884 135.848  0.00  0.00    +0.000 A 
ATOM      8  C   UNL     1     111.140 125.490 136.026  0.00  0.00    +0.000 A 
ATOM      9  C   UNL     1     110.956 127.062 135.386  0.00  0.00    +0.000 A 
ATOM     10  C   UNL     1     110.360 126.466 135.222  0.00  0.00    +0.000 A 
ATOM     11  C   UNL     1     110.452 125.675 135.544  0.00  0.00    +0.000 A 
ATOM     12  C   UNL     1     110.863 127.820 135.074  0.00  0.00    +0.000 A 
ATOM     13  C   UNL     1     112.089 128.223 135.687  0.00  0.00    +0.000 A 
ATOM     14  C   UNL     1     111.429 128.400 135.225  0.00  0.00    +0.000 A 
ENDROOT
BRANCH  13  16
ATOM     15  O   UNL     1     114.355 130.546 136.289  0.00  0.00    +0.000 OA
ATOM     16  C   UNL     1     112.656 128.804 135.838  0.00  0.00    +0.000 A 
ATOM     17  C   UNL     1     113.334 128.849 135.370  0.00  0.00    +0.000 A 
ATOM     18  C   UNL     1     112.544 129.340 136.455  0.00  0.00    +0.000 A 
ATOM     19  C   UNL     1     113.901 129.430 135.521  0.00  0.00    +0.000 A 
ATOM     20  C   UNL     1     113.110 129.920 136.605  0.00  0.00    +0.000 A 
ATOM     21  C   UNL     1     113.789 129.966 136.139  0.00  0.00    +0.000 A 
ENDBRANCH  13  16
BRANCH   6  22
ATOM     22  O   UNL     1     112.388 125.930 136.640  0.00  0.00    +0.000 OA
BRANCH  22  28
ATOM     23  O   UNL     1     111.614 125.974 137.839  0.00  0.00    +0.000 OA
ATOM     24  O   UNL     1     112.221 126.178 139.926  0.00  0.00    +0.000 OA
ATOM     25  C   UNL     1     112.996 126.134 138.726  0.00  0.00    +0.000 C 
ATOM     26  C   UNL     1     113.037 126.072 137.905  0.00  0.00    +0.000 C 
ATOM     27  C   UNL     1     112.263 126.116 139.104  0.00  0.00    +0.000 C 
ATOM     28  C   UNL     1     112.347 125.992 137.461  0.00  0.00    +0.000 C 
ATOM     29  C   UNL     1     111.572 126.036 138.661  0.00  0.00    +0.000 C 
BRANCH  25  30
ATOM     30  O   UNL     1     113.687 126.215 139.170  0.00  0.00    +0.000 OA
BRANCH  30  32
ATOM     31  O   UNL     1     113.666 127.640 139.274  0.00  0.00    +0.000 OA
ATOM     32  C   UNL     1     113.819 126.900 139.608  0.00  0.00    +0.000 C 
ATOM     33  C   UNL     1     114.103 126.848 140.381  0.00  0.00    +0.000 C 
ENDBRANCH  30  32
ENDBRANCH  25  30
BRANCH  26  34
ATOM     34  O   UNL     1     113.771 126.091 137.526  0.00  0.00    +0.000 OA
BRANCH  34  36
ATOM     35  O   UNL     1     113.967 124.693 137.755  0.00  0.00    +0.000 OA
ATOM     36  C   UNL     1     114.160 125.385 137.349  0.00  0.00    +0.000 C 
ATOM     37  C   UNL     1     114.744 125.371 136.765  0.00  0.00    +0.000 C 
ENDBRANCH  34  36
ENDBRANCH  26  34
ENDBRANCH  22  28
ENDBRANCH   6  22
TORSDOF 7
ENDMDL
MODEL 5
REMARK VINA RESULT:      -8.8      1.671      3.555
REMARK  Name = 44259953
REMARK  7 active torsions:
REMARK  status: ('A' for Active; 'I' for Inactive)
REMARK    1  A    between atoms: O_2  and  C_14
REMARK    2  A    between atoms: O_2  and  C_21
REMARK    3  A    between atoms: O_3  and  C_15
REMARK    4  A    between atoms: O_3  and  C_22
REMARK    5  A    between atoms: O_4  and  C_17
REMARK    6  A    between atoms: O_4  and  C_19
REMARK    7  A    between atoms: C_30  and  C_32
REMARK                            x       y       z     vdW  Elec       q    Type
REMARK                         _______ _______ _______ _____ _____    ______ ____
ROOT
ATOM      1  O   UNL     1     111.765 126.210 136.814  0.00  0.00    +0.000 OA
ATOM      2  O   UNL     1     114.325 125.800 138.140  0.00  0.00    +0.000 OA
ATOM      3  O   UNL     1     113.067 123.636 136.635  0.00  0.00    +0.000 OA
ATOM      4  O   UNL     1     110.530 124.865 135.618  0.00  0.00    +0.000 OA
ATOM      5  O   UNL     1     111.797 123.876 135.991  0.00  0.00    +0.000 OA
ATOM      6  C   UNL     1     113.041 126.023 137.482  0.00  0.00    +0.000 A 
ATOM      7  C   UNL     1     112.399 125.715 137.001  0.00  0.00    +0.000 A 
ATOM      8  C   UNL     1     113.703 125.513 137.679  0.00  0.00    +0.000 A 
ATOM      9  C   UNL     1     112.410 124.937 136.726  0.00  0.00    +0.000 A 
ATOM     10  C   UNL     1     113.064 124.413 136.913  0.00  0.00    +0.000 A 
ATOM     11  C   UNL     1     113.715 124.702 137.393  0.00  0.00    +0.000 A 
ATOM     12  C   UNL     1     111.787 124.654 136.265  0.00  0.00    +0.000 A 
ATOM     13  C   UNL     1     111.143 125.926 136.353  0.00  0.00    +0.000 A 
ATOM     14  C   UNL     1     111.153 125.148 136.079  0.00  0.00    +0.000 A 
ENDROOT
BRANCH  13  16
ATOM     15  O   UNL     1     108.608 127.904 135.608  0.00  0.00    +0.000 OA
ATOM     16  C   UNL     1     110.508 126.421 136.167  0.00  0.00    +0.000 A 
ATOM     17  C   UNL     1     109.843 126.438 136.653  0.00  0.00    +0.000 A 
ATOM     18  C   UNL     1     110.541 126.898 135.494  0.00  0.00    +0.000 A 
ATOM     19  C   UNL     1     109.208 126.933 136.467  0.00  0.00    +0.000 A 
ATOM     20  C   UNL     1     109.908 127.392 135.309  0.00  0.00    +0.000 A 
ATOM     21  C   UNL     1     109.241 127.410 135.794  0.00  0.00    +0.000 A 
ENDBRANCH  13  16
BRANCH   6  22
ATOM     22  O   UNL     1     113.022 126.802 137.752  0.00  0.00    +0.000 OA
BRANCH  22  28
ATOM     23  O   UNL     1     112.474 126.383 139.002  0.00  0.00    +0.000 OA
ATOM     24  O   UNL     1     112.272 127.440 140.901  0.00  0.00    +0.000 OA
ATOM     25  C   UNL     1     112.821 127.860 139.650  0.00  0.00    +0.000 C 
ATOM     26  C   UNL     1     113.008 127.700 138.863  0.00  0.00    +0.000 C 
ATOM     27  C   UNL     1     112.460 127.281 140.113  0.00  0.00    +0.000 C 
ATOM     28  C   UNL     1     112.835 126.962 138.539  0.00  0.00    +0.000 C 
ATOM     29  C   UNL     1     112.287 126.542 139.790  0.00  0.00    +0.000 C 
BRANCH  25  30
ATOM     30  O   UNL     1     112.994 128.599 139.974  0.00  0.00    +0.000 OA
BRANCH  30  32
ATOM     31  O   UNL     1     114.245 128.285 140.589  0.00  0.00    +0.000 OA
ATOM     32  C   UNL     1     113.509 128.658 140.616  0.00  0.00    +0.000 C 
ATOM     33  C   UNL     1     113.289 129.090 141.283  0.00  0.00    +0.000 C 
ENDBRANCH  30  32
ENDBRANCH  25  30
BRANCH  26  34
ATOM     34  O   UNL     1     113.369 128.280 138.398  0.00  0.00    +0.000 OA
BRANCH  34  36
ATOM     35  O   UNL     1     112.105 128.891 138.129  0.00  0.00    +0.000 OA
ATOM     36  C   UNL     1     112.906 128.798 137.954  0.00  0.00    +0.000 C 
ATOM     37  C   UNL     1     113.245 129.225 137.334  0.00  0.00    +0.000 C 
ENDBRANCH  34  36
ENDBRANCH  26  34
ENDBRANCH  22  28
ENDBRANCH   6  22
TORSDOF 7
ENDMDL
MODEL 6
REMARK VINA RESULT:      -8.7      1.493      4.975
REMARK  Name = 44259953
REMARK  7 active torsions:
REMARK  status: ('A' for Active; 'I' for Inactive)
REMARK    1  A    between atoms: O_2  and  C_14
REMARK    2  A    between atoms: O_2  and  C_21
REMARK    3  A    between atoms: O_3  and  C_15
REMARK    4  A    between atoms: O_3  and  C_22
REMARK    5  A    between atoms: O_4  and  C_17
REMARK    6  A    between atoms: O_4  and  C_19
REMARK    7  A    between atoms: C_30  and  C_32
REMARK                            x       y       z     vdW  Elec       q    Type
REMARK                         _______ _______ _______ _____ _____    ______ ____
ROOT
ATOM      1  O   UNL     1     111.427 128.857 136.178  0.00  0.00    +0.000 OA
ATOM      2  O   UNL     1     113.857 127.255 136.086  0.00  0.00    +0.000 OA
ATOM      3  O   UNL     1     113.996 130.145 136.482  0.00  0.00    +0.000 OA
ATOM      4  O   UNL     1     111.125 131.002 136.451  0.00  0.00    +0.000 OA
ATOM      5  O   UNL     1     112.771 130.907 136.522  0.00  0.00    +0.000 OA
ATOM      6  C   UNL     1     112.629 128.043 136.129  0.00  0.00    +0.000 A 
ATOM      7  C   UNL     1     112.251 128.810 136.213  0.00  0.00    +0.000 A 
ATOM      8  C   UNL     1     113.485 127.987 136.165  0.00  0.00    +0.000 A 
ATOM      9  C   UNL     1     112.699 129.493 136.328  0.00  0.00    +0.000 A 
ATOM     10  C   UNL     1     113.556 129.457 136.367  0.00  0.00    +0.000 A 
ATOM     11  C   UNL     1     113.952 128.699 136.285  0.00  0.00    +0.000 A 
ATOM     12  C   UNL     1     112.323 130.224 136.407  0.00  0.00    +0.000 A 
ATOM     13  C   UNL     1     111.053 129.588 136.257  0.00  0.00    +0.000 A 
ATOM     14  C   UNL     1     111.501 130.271 136.372  0.00  0.00    +0.000 A 
ENDROOT
BRANCH  13  16
ATOM     15  O   UNL     1     107.761 129.777 136.116  0.00  0.00    +0.000 OA
ATOM     16  C   UNL     1     110.229 129.635 136.222  0.00  0.00    +0.000 A 
ATOM     17  C   UNL     1     109.785 129.605 136.916  0.00  0.00    +0.000 A 
ATOM     18  C   UNL     1     109.852 129.713 135.492  0.00  0.00    +0.000 A 
ATOM     19  C   UNL     1     108.961 129.653 136.880  0.00  0.00    +0.000 A 
ATOM     20  C   UNL     1     109.029 129.760 135.457  0.00  0.00    +0.000 A 
ATOM     21  C   UNL     1     108.584 129.730 136.151  0.00  0.00    +0.000 A 
ENDBRANCH  13  16
BRANCH   6  22
ATOM     22  O   UNL     1     112.174 127.365 136.015  0.00  0.00    +0.000 OA
BRANCH  22  28
ATOM     23  O   UNL     1     112.325 127.001 137.387  0.00  0.00    +0.000 OA
ATOM     24  O   UNL     1     111.914 125.124 138.422  0.00  0.00    +0.000 OA
ATOM     25  C   UNL     1     111.762 125.488 137.048  0.00  0.00    +0.000 C 
ATOM     26  C   UNL     1     111.827 126.048 136.447  0.00  0.00    +0.000 C 
ATOM     27  C   UNL     1     111.979 125.684 137.820  0.00  0.00    +0.000 C 
ATOM     28  C   UNL     1     112.109 126.805 136.616  0.00  0.00    +0.000 C 
ATOM     29  C   UNL     1     112.260 126.440 137.990  0.00  0.00    +0.000 C 
BRANCH  25  30
ATOM     30  O   UNL     1     111.480 124.731 136.880  0.00  0.00    +0.000 OA
BRANCH  30  32
ATOM     31  O   UNL     1     112.740 124.102 136.634  0.00  0.00    +0.000 OA
ATOM     32  C   UNL     1     111.979 124.078 136.955  0.00  0.00    +0.000 C 
ATOM     33  C   UNL     1     111.718 123.402 137.349  0.00  0.00    +0.000 C 
ENDBRANCH  30  32
ENDBRANCH  25  30
BRANCH  26  34
ATOM     34  O   UNL     1     111.610 125.852 135.675  0.00  0.00    +0.000 OA
BRANCH  34  36
ATOM     35  O   UNL     1     110.230 126.080 135.971  0.00  0.00    +0.000 OA
ATOM     36  C   UNL     1     110.836 125.981 135.419  0.00  0.00    +0.000 C 
ATOM     37  C   UNL     1     110.668 126.011 134.612  0.00  0.00    +0.000 C 
ENDBRANCH  34  36
ENDBRANCH  26  34
ENDBRANCH  22  28
ENDBRANCH   6  22
TORSDOF 7
ENDMDL
MODEL 7
REMARK VINA RESULT:      -8.7     11.704     12.863
REMARK  Name = 44259953
REMARK  7 active torsions:
REMARK  status: ('A' for Active; 'I' for Inactive)
REMARK    1  A    between atoms: O_2  and  C_14
REMARK    2  A    between atoms: O_2  and  C_21
REMARK    3  A    between atoms: O_3  and  C_15
REMARK    4  A    between atoms: O_3  and  C_22
REMARK    5  A    between atoms: O_4  and  C_17
REMARK    6  A    between atoms: O_4  and  C_19
REMARK    7  A    between atoms: C_30  and  C_32
REMARK                            x       y       z     vdW  Elec       q    Type
REMARK                         _______ _______ _______ _____ _____    ______ ____
ROOT
ATOM      1  O   UNL     1     105.169 124.877 147.230  0.00  0.00    +0.000 OA
ATOM      2  O   UNL     1     107.976 125.535 146.821  0.00  0.00    +0.000 OA
ATOM      3  O   UNL     1     107.013 124.693 149.447  0.00  0.00    +0.000 OA
ATOM      4  O   UNL     1     104.087 124.221 149.009  0.00  0.00    +0.000 OA
ATOM      5  O   UNL     1     105.615 124.375 149.612  0.00  0.00    +0.000 OA
ATOM      6  C   UNL     1     106.565 125.209 147.008  0.00  0.00    +0.000 A 
ATOM      7  C   UNL     1     105.933 124.954 147.532  0.00  0.00    +0.000 A 
ATOM      8  C   UNL     1     107.363 125.291 147.316  0.00  0.00    +0.000 A 
ATOM      9  C   UNL     1     106.082 124.786 148.326  0.00  0.00    +0.000 A 
ATOM     10  C   UNL     1     106.873 124.862 148.652  0.00  0.00    +0.000 A 
ATOM     11  C   UNL     1     107.518 125.116 148.144  0.00  0.00    +0.000 A 
ATOM     12  C   UNL     1     105.466 124.542 148.818  0.00  0.00    +0.000 A 
ATOM     13  C   UNL     1     104.554 124.633 147.723  0.00  0.00    +0.000 A 
ATOM     14  C   UNL     1     104.703 124.466 148.517  0.00  0.00    +0.000 A 
ENDROOT
BRANCH  13  16
ATOM     15  O   UNL     1     101.498 124.327 146.516  0.00  0.00    +0.000 OA
ATOM     16  C   UNL     1     103.789 124.556 147.421  0.00  0.00    +0.000 A 
ATOM     17  C   UNL     1     103.236 125.155 147.545  0.00  0.00    +0.000 A 
ATOM     18  C   UNL     1     103.579 123.881 146.995  0.00  0.00    +0.000 A 
ATOM     19  C   UNL     1     102.471 125.078 147.243  0.00  0.00    +0.000 A 
ATOM     20  C   UNL     1     102.816 123.805 146.694  0.00  0.00    +0.000 A 
ATOM     21  C   UNL     1     102.261 124.403 146.818  0.00  0.00    +0.000 A 
ENDBRANCH  13  16
BRANCH   6  22
ATOM     22  O   UNL     1     106.408 125.374 146.216  0.00  0.00    +0.000 OA
BRANCH  22  28
ATOM     23  O   UNL     1     106.264 126.765 146.507  0.00  0.00    +0.000 OA
ATOM     24  O   UNL     1     106.211 128.504 145.189  0.00  0.00    +0.000 OA
ATOM     25  C   UNL     1     106.355 127.112 144.897  0.00  0.00    +0.000 C 
ATOM     26  C   UNL     1     106.404 126.330 145.154  0.00  0.00    +0.000 C 
ATOM     27  C   UNL     1     106.260 127.721 145.445  0.00  0.00    +0.000 C 
ATOM     28  C   UNL     1     106.358 126.156 145.959  0.00  0.00    +0.000 C 
ATOM     29  C   UNL     1     106.215 127.548 146.250  0.00  0.00    +0.000 C 
BRANCH  25  30
ATOM     30  O   UNL     1     106.400 127.287 144.092  0.00  0.00    +0.000 OA
BRANCH  30  32
ATOM     31  O   UNL     1     107.789 127.591 143.950  0.00  0.00    +0.000 OA
ATOM     32  C   UNL     1     106.997 127.780 143.808  0.00  0.00    +0.000 C 
ATOM     33  C   UNL     1     106.804 128.460 143.384  0.00  0.00    +0.000 C 
ENDBRANCH  30  32
ENDBRANCH  25  30
BRANCH  26  34
ATOM     34  O   UNL     1     106.498 125.721 144.605  0.00  0.00    +0.000 OA
BRANCH  34  36
ATOM     35  O   UNL     1     105.093 125.709 144.344  0.00  0.00    +0.000 OA
ATOM     36  C   UNL     1     105.835 125.353 144.280  0.00  0.00    +0.000 C 
ATOM     37  C   UNL     1     105.913 124.630 143.891  0.00  0.00    +0.000 C 
ENDBRANCH  34  36
ENDBRANCH  26  34
ENDBRANCH  22  28
ENDBRANCH   6  22
TORSDOF 7
ENDMDL
MODEL 8
REMARK VINA RESULT:      -8.7      0.818      1.605
REMARK  Name = 44259953
REMARK  7 active torsions:
REMARK  status: ('A' for Active; 'I' for Inactive)
REMARK    1  A    between atoms: O_2  and  C_14
REMARK    2  A    between atoms: O_2  and  C_21
REMARK    3  A    between atoms: O_3  and  C_15
REMARK    4  A    between atoms: O_3  and  C_22
REMARK    5  A    between atoms: O_4  and  C_17
REMARK    6  A    between atoms: O_4  and  C_19
REMARK    7  A    between atoms: C_30  and  C_32
REMARK                            x       y       z     vdW  Elec       q    Type
REMARK                         _______ _______ _______ _____ _____    ______ ____
ROOT
ATOM      1  O   UNL     1     111.891 126.566 136.456  0.00  0.00    +0.000 OA
ATOM      2  O   UNL     1     109.848 128.388 135.461  0.00  0.00    +0.000 OA
ATOM      3  O   UNL     1     109.702 125.530 134.878  0.00  0.00    +0.000 OA
ATOM      4  O   UNL     1     112.126 124.407 136.236  0.00  0.00    +0.000 OA
ATOM      5  O   UNL     1     110.733 124.657 135.387  0.00  0.00    +0.000 OA
ATOM      6  C   UNL     1     110.881 127.489 135.968  0.00  0.00    +0.000 A 
ATOM      7  C   UNL     1     111.194 126.691 136.031  0.00  0.00    +0.000 A 
ATOM      8  C   UNL     1     110.156 127.625 135.528  0.00  0.00    +0.000 A 
ATOM      9  C   UNL     1     110.808 126.055 135.675  0.00  0.00    +0.000 A 
ATOM     10  C   UNL     1     110.082 126.172 135.231  0.00  0.00    +0.000 A 
ATOM     11  C   UNL     1     109.754 126.962 135.157  0.00  0.00    +0.000 A 
ATOM     12  C   UNL     1     111.119 125.293 135.744  0.00  0.00    +0.000 A 
ATOM     13  C   UNL     1     112.201 125.804 136.524  0.00  0.00    +0.000 A 
ATOM     14  C   UNL     1     111.815 125.168 136.167  0.00  0.00    +0.000 A 
ENDROOT
BRANCH  13  16
ATOM     15  O   UNL     1     114.986 125.305 138.221  0.00  0.00    +0.000 OA
ATOM     16  C   UNL     1     112.898 125.679 136.948  0.00  0.00    +0.000 A 
ATOM     17  C   UNL     1     112.876 125.637 137.772  0.00  0.00    +0.000 A 
ATOM     18  C   UNL     1     113.615 125.596 136.549  0.00  0.00    +0.000 A 
ATOM     19  C   UNL     1     113.573 125.512 138.196  0.00  0.00    +0.000 A 
ATOM     20  C   UNL     1     114.310 125.472 136.973  0.00  0.00    +0.000 A 
ATOM     21  C   UNL     1     114.290 125.429 137.797  0.00  0.00    +0.000 A 
ENDBRANCH  13  16
BRANCH   6  22
ATOM     22  O   UNL     1     111.273 128.119 136.327  0.00  0.00    +0.000 OA
BRANCH  22  28
ATOM     23  O   UNL     1     111.814 128.540 135.075  0.00  0.00    +0.000 OA
ATOM     24  O   UNL     1     113.461 129.896 134.612  0.00  0.00    +0.000 OA
ATOM     25  C   UNL     1     112.920 129.475 135.866  0.00  0.00    +0.000 C 
ATOM     26  C   UNL     1     112.373 129.031 136.294  0.00  0.00    +0.000 C 
ATOM     27  C   UNL     1     112.914 129.452 135.042  0.00  0.00    +0.000 C 
ATOM     28  C   UNL     1     111.820 128.563 135.899  0.00  0.00    +0.000 C 
ATOM     29  C   UNL     1     112.362 128.985 134.645  0.00  0.00    +0.000 C 
BRANCH  25  30
ATOM     30  O   UNL     1     113.473 129.942 136.261  0.00  0.00    +0.000 OA
BRANCH  30  32
ATOM     31  O   UNL     1     114.589 129.050 136.280  0.00  0.00    +0.000 OA
ATOM     32  C   UNL     1     114.280 129.806 136.157  0.00  0.00    +0.000 C 
ATOM     33  C   UNL     1     114.777 130.423 135.929  0.00  0.00    +0.000 C 
ENDBRANCH  30  32
ENDBRANCH  25  30
BRANCH  26  34
ATOM     34  O   UNL     1     112.378 129.053 137.119  0.00  0.00    +0.000 OA
BRANCH  34  36
ATOM     35  O   UNL     1     111.602 130.253 137.117  0.00  0.00    +0.000 OA
ATOM     36  C   UNL     1     111.909 129.601 137.519  0.00  0.00    +0.000 C 
ATOM     37  C   UNL     1     111.746 129.498 138.322  0.00  0.00    +0.000 C 
ENDBRANCH  34  36
ENDBRANCH  26  34
ENDBRANCH  22  28
ENDBRANCH   6  22
TORSDOF 7
ENDMDL
MODEL 9
REMARK VINA RESULT:      -8.7      1.541      4.184
REMARK  Name = 44259953
REMARK  7 active torsions:
REMARK  status: ('A' for Active; 'I' for Inactive)
REMARK    1  A    between atoms: O_2  and  C_14
REMARK    2  A    between atoms: O_2  and  C_21
REMARK    3  A    between atoms: O_3  and  C_15
REMARK    4  A    between atoms: O_3  and  C_22
REMARK    5  A    between atoms: O_4  and  C_17
REMARK    6  A    between atoms: O_4  and  C_19
REMARK    7  A    between atoms: C_30  and  C_32
REMARK                            x       y       z     vdW  Elec       q    Type
REMARK                         _______ _______ _______ _____ _____    ______ ____
ROOT
ATOM      1  O   UNL     1     111.141 128.217 136.295  0.00  0.00    +0.000 OA
ATOM      2  O   UNL     1     108.910 126.578 137.198  0.00  0.00    +0.000 OA
ATOM      3  O   UNL     1     108.470 128.806 135.363  0.00  0.00    +0.000 OA
ATOM      4  O   UNL     1     111.215 129.936 134.952  0.00  0.00    +0.000 OA
ATOM      5  O   UNL     1     109.600 129.597 134.937  0.00  0.00    +0.000 OA
ATOM      6  C   UNL     1     110.041 127.389 136.756  0.00  0.00    +0.000 A 
ATOM      7  C   UNL     1     110.333 128.048 136.288  0.00  0.00    +0.000 A 
ATOM      8  C   UNL     1     109.201 127.208 136.752  0.00  0.00    +0.000 A 
ATOM      9  C   UNL     1     109.820 128.508 135.835  0.00  0.00    +0.000 A 
ATOM     10  C   UNL     1     108.977 128.341 135.818  0.00  0.00    +0.000 A 
ATOM     11  C   UNL     1     108.666 127.687 136.280  0.00  0.00    +0.000 A 
ATOM     12  C   UNL     1     110.114 129.137 135.390  0.00  0.00    +0.000 A 
ATOM     13  C   UNL     1     111.434 128.847 135.850  0.00  0.00    +0.000 A 
ATOM     14  C   UNL     1     110.920 129.307 135.397  0.00  0.00    +0.000 A 
ENDROOT
BRANCH  13  16
ATOM     15  O   UNL     1     114.664 129.526 135.882  0.00  0.00    +0.000 OA
ATOM     16  C   UNL     1     112.242 129.017 135.858  0.00  0.00    +0.000 A 
ATOM     17  C   UNL     1     112.558 129.491 136.455  0.00  0.00    +0.000 A 
ATOM     18  C   UNL     1     112.734 128.712 135.269  0.00  0.00    +0.000 A 
ATOM     19  C   UNL     1     113.366 129.660 136.463  0.00  0.00    +0.000 A 
ATOM     20  C   UNL     1     113.540 128.882 135.277  0.00  0.00    +0.000 A 
ATOM     21  C   UNL     1     113.857 129.356 135.874  0.00  0.00    +0.000 A 
ENDBRANCH  13  16
BRANCH   6  22
ATOM     22  O   UNL     1     110.561 126.935 137.205  0.00  0.00    +0.000 OA
BRANCH  22  28
ATOM     23  O   UNL     1     110.488 125.866 136.261  0.00  0.00    +0.000 OA
ATOM     24  O   UNL     1     111.743 124.100 136.001  0.00  0.00    +0.000 OA
ATOM     25  C   UNL     1     111.817 125.169 136.946  0.00  0.00    +0.000 C 
ATOM     26  C   UNL     1     111.521 125.877 137.247  0.00  0.00    +0.000 C 
ATOM     27  C   UNL     1     111.448 124.809 136.303  0.00  0.00    +0.000 C 
ATOM     28  C   UNL     1     110.857 126.226 136.905  0.00  0.00    +0.000 C 
ATOM     29  C   UNL     1     110.783 125.157 135.960  0.00  0.00    +0.000 C 
BRANCH  25  30
ATOM     30  O   UNL     1     112.482 124.820 137.289  0.00  0.00    +0.000 OA
BRANCH  30  32
ATOM     31  O   UNL     1     113.457 125.385 136.410  0.00  0.00    +0.000 OA
ATOM     32  C   UNL     1     113.179 124.747 136.855  0.00  0.00    +0.000 C 
ATOM     33  C   UNL     1     113.600 124.037 136.866  0.00  0.00    +0.000 C 
ENDBRANCH  30  32
ENDBRANCH  25  30
BRANCH  26  34
ATOM     34  O   UNL     1     111.890 126.238 137.891  0.00  0.00    +0.000 OA
BRANCH  34  36
ATOM     35  O   UNL     1     111.182 125.393 138.800  0.00  0.00    +0.000 OA
ATOM     36  C   UNL     1     111.645 126.061 138.659  0.00  0.00    +0.000 C 
ATOM     37  C   UNL     1     111.862 126.553 139.285  0.00  0.00    +0.000 C 
ENDBRANCH  34  36
ENDBRANCH  26  34
ENDBRANCH  22  28
ENDBRANCH   6  22
TORSDOF 7
ENDMDL
MODEL 10
REMARK VINA RESULT:      -8.6      2.200      4.651
REMARK  Name = 44259953
REMARK  7 active torsions:
REMARK  status: ('A' for Active; 'I' for Inactive)
REMARK    1  A    between atoms: O_2  and  C_14
REMARK    2  A    between atoms: O_2  and  C_21
REMARK    3  A    between atoms: O_3  and  C_15
REMARK    4  A    between atoms: O_3  and  C_22
REMARK    5  A    between atoms: O_4  and  C_17
REMARK    6  A    between atoms: O_4  and  C_19
REMARK    7  A    between atoms: C_30  and  C_32
REMARK                            x       y       z     vdW  Elec       q    Type
REMARK                         _______ _______ _______ _____ _____    ______ ____
ROOT
ATOM      1  O   UNL     1     110.045 130.006 136.913  0.00  0.00    +0.000 OA
ATOM      2  O   UNL     1     110.727 127.261 136.219  0.00  0.00    +0.000 OA
ATOM      3  O   UNL     1     108.067 128.322 135.647  0.00  0.00    +0.000 OA
ATOM      4  O   UNL     1     108.199 131.141 136.652  0.00  0.00    +0.000 OA
ATOM      5  O   UNL     1     107.765 129.687 136.005  0.00  0.00    +0.000 OA
ATOM      6  C   UNL     1     110.402 128.639 136.574  0.00  0.00    +0.000 A 
ATOM      7  C   UNL     1     109.827 129.278 136.590  0.00  0.00    +0.000 A 
ATOM      8  C   UNL     1     110.182 127.880 136.239  0.00  0.00    +0.000 A 
ATOM      9  C   UNL     1     109.067 129.172 136.287  0.00  0.00    +0.000 A 
ATOM     10  C   UNL     1     108.829 128.419 135.947  0.00  0.00    +0.000 A 
ATOM     11  C   UNL     1     109.390 127.769 135.923  0.00  0.00    +0.000 A 
ATOM     12  C   UNL     1     108.525 129.793 136.308  0.00  0.00    +0.000 A 
ATOM     13  C   UNL     1     109.502 130.626 136.934  0.00  0.00    +0.000 A 
ATOM     14  C   UNL     1     108.742 130.520 136.631  0.00  0.00    +0.000 A 
ENDROOT
BRANCH  13  16
ATOM     15  O   UNL     1     110.371 133.534 138.229  0.00  0.00    +0.000 OA
ATOM     16  C   UNL     1     109.719 131.354 137.258  0.00  0.00    +0.000 A 
ATOM     17  C   UNL     1     109.648 131.481 138.070  0.00  0.00    +0.000 A 
ATOM     18  C   UNL     1     110.008 131.953 136.769  0.00  0.00    +0.000 A 
ATOM     19  C   UNL     1     109.865 132.209 138.393  0.00  0.00    +0.000 A 
ATOM     20  C   UNL     1     110.225 132.679 137.093  0.00  0.00    +0.000 A 
ATOM     21  C   UNL     1     110.154 132.808 137.905  0.00  0.00    +0.000 A 
ENDBRANCH  13  16
BRANCH   6  22
ATOM     22  O   UNL     1     111.159 128.754 136.879  0.00  0.00    +0.000 OA
BRANCH  22  28
ATOM     23  O   UNL     1     111.703 128.845 135.562  0.00  0.00    +0.000 OA
ATOM     24  O   UNL     1     113.649 129.545 134.863  0.00  0.00    +0.000 OA
ATOM     25  C   UNL     1     113.106 129.454 136.182  0.00  0.00    +0.000 C 
ATOM     26  C   UNL     1     112.483 129.257 136.685  0.00  0.00    +0.000 C 
ATOM     27  C   UNL     1     113.027 129.348 135.368  0.00  0.00    +0.000 C 
ATOM     28  C   UNL     1     111.782 128.952 136.376  0.00  0.00    +0.000 C 
ATOM     29  C   UNL     1     112.326 129.043 135.057  0.00  0.00    +0.000 C 
BRANCH  25  30
ATOM     30  O   UNL     1     113.807 129.759 136.492  0.00  0.00    +0.000 OA
BRANCH  30  32
ATOM     31  O   UNL     1     113.538 131.162 136.435  0.00  0.00    +0.000 OA
ATOM     32  C   UNL     1     114.046 130.525 136.299  0.00  0.00    +0.000 C 
ATOM     33  C   UNL     1     114.791 130.655 135.970  0.00  0.00    +0.000 C 
ENDBRANCH  30  32
ENDBRANCH  25  30
BRANCH  26  34
ATOM     34  O   UNL     1     112.561 129.363 137.500  0.00  0.00    +0.000 OA
BRANCH  34  36
ATOM     35  O   UNL     1     113.246 128.115 137.628  0.00  0.00    +0.000 OA
ATOM     36  C   UNL     1     112.839 128.746 137.971  0.00  0.00    +0.000 C 
ATOM     37  C   UNL     1     112.710 128.758 138.787  0.00  0.00    +0.000 C 
ENDBRANCH  34  36
ENDBRANCH  26  34
ENDBRANCH  22  28
ENDBRANCH   6  22
TORSDOF 7
ENDMDL
