MODEL 1
REMARK VINA RESULT:      -9.7      0.000      0.000
REMARK  Name = 101686456
REMARK  4 active torsions:
REMARK  status: ('A' for Active; 'I' for Inactive)
REMARK    1  A    between atoms: O_2  and  C_14
REMARK    2  A    between atoms: O_2  and  C_16
REMARK    3  A    between atoms: C_13  and  C_15
REMARK    4  A    between atoms: C_23  and  C_25
REMARK                            x       y       z     vdW  Elec       q    Type
REMARK                         _______ _______ _______ _____ _____    ______ ____
ROOT
ATOM      1  O   UNL     1     112.092 125.372 136.069  0.00  0.00    +0.000 OA
ATOM      2  O   UNL     1     109.572 125.409 134.612  0.00  0.00    +0.000 OA
ATOM      3  O   UNL     1     111.441 127.427 137.285  0.00  0.00    +0.000 OA
ATOM      4  C   UNL     1     110.391 126.792 136.172  0.00  0.00    +0.000 A 
ATOM      5  C   UNL     1     111.147 126.413 136.322  0.00  0.00    +0.000 A 
ATOM      6  C   UNL     1     109.854 126.455 135.592  0.00  0.00    +0.000 A 
ATOM      7  C   UNL     1     111.364 125.728 135.917  0.00  0.00    +0.000 A 
ATOM      8  C   UNL     1     111.657 126.742 136.880  0.00  0.00    +0.000 A 
ATOM      9  C   UNL     1     110.081 125.741 135.170  0.00  0.00    +0.000 A 
ATOM     10  C   UNL     1     110.841 125.375 135.333  0.00  0.00    +0.000 A 
ATOM     11  C   UNL     1     112.604 125.701 136.627  0.00  0.00    +0.000 A 
ATOM     12  C   UNL     1     112.387 126.386 137.032  0.00  0.00    +0.000 A 
ENDROOT
BRANCH  11  13
ATOM     13  C   UNL     1     113.332 125.345 136.779  0.00  0.00    +0.000 A 
ATOM     14  C   UNL     1     114.026 125.685 136.490  0.00  0.00    +0.000 A 
ATOM     15  C   UNL     1     113.367 124.650 137.222  0.00  0.00    +0.000 A 
ATOM     16  C   UNL     1     114.755 125.330 136.642  0.00  0.00    +0.000 A 
ATOM     17  C   UNL     1     114.096 124.294 137.375  0.00  0.00    +0.000 A 
ATOM     18  C   UNL     1     114.790 124.634 137.085  0.00  0.00    +0.000 A 
ENDBRANCH  11  13
BRANCH   4  19
ATOM     19  O   UNL     1     110.181 127.477 136.581  0.00  0.00    +0.000 OA
BRANCH  19  28
ATOM     20  O   UNL     1     110.318 128.504 135.597  0.00  0.00    +0.000 OA
ATOM     21  O   UNL     1     108.030 129.297 136.106  0.00  0.00    +0.000 OA
ATOM     22  O   UNL     1     108.929 130.059 134.952  0.00  0.00    +0.000 OA
ATOM     23  O   UNL     1     108.656 128.006 136.921  0.00  0.00    +0.000 OA
ATOM     24  C   UNL     1     108.793 129.033 135.937  0.00  0.00    +0.000 C 
ATOM     25  C   UNL     1     109.242 129.413 135.360  0.00  0.00    +0.000 C 
ATOM     26  C   UNL     1     109.105 128.387 136.344  0.00  0.00    +0.000 C 
ATOM     27  C   UNL     1     110.005 129.149 135.190  0.00  0.00    +0.000 C 
ATOM     28  C   UNL     1     109.868 128.122 136.175  0.00  0.00    +0.000 C 
BRANCH  27  30
ATOM     29  O   UNL     1     111.255 129.679 134.746  0.00  0.00    +0.000 OA
ATOM     30  C   UNL     1     110.455 129.530 134.612  0.00  0.00    +0.000 C 
ENDBRANCH  27  30
ENDBRANCH  19  28
ENDBRANCH   4  19
TORSDOF 4
ENDMDL
MODEL 2
REMARK VINA RESULT:      -9.4     12.326     13.823
REMARK  Name = 101686456
REMARK  4 active torsions:
REMARK  status: ('A' for Active; 'I' for Inactive)
REMARK    1  A    between atoms: O_2  and  C_14
REMARK    2  A    between atoms: O_2  and  C_16
REMARK    3  A    between atoms: C_13  and  C_15
REMARK    4  A    between atoms: C_23  and  C_25
REMARK                            x       y       z     vdW  Elec       q    Type
REMARK                         _______ _______ _______ _____ _____    ______ ____
ROOT
ATOM      1  O   UNL     1     103.049 124.655 146.877  0.00  0.00    +0.000 OA
ATOM      2  O   UNL     1     104.356 126.936 148.126  0.00  0.00    +0.000 OA
ATOM      3  O   UNL     1     105.250 123.704 146.266  0.00  0.00    +0.000 OA
ATOM      4  C   UNL     1     105.203 125.144 147.084  0.00  0.00    +0.000 A 
ATOM      5  C   UNL     1     104.475 124.737 146.877  0.00  0.00    +0.000 A 
ATOM      6  C   UNL     1     105.166 125.890 147.507  0.00  0.00    +0.000 A 
ATOM      7  C   UNL     1     103.741 125.054 147.080  0.00  0.00    +0.000 A 
ATOM      8  C   UNL     1     104.517 124.021 146.470  0.00  0.00    +0.000 A 
ATOM      9  C   UNL     1     104.401 126.220 147.719  0.00  0.00    +0.000 A 
ATOM     10  C   UNL     1     103.684 125.799 147.504  0.00  0.00    +0.000 A 
ATOM     11  C   UNL     1     103.090 123.938 146.469  0.00  0.00    +0.000 A 
ATOM     12  C   UNL     1     103.824 123.621 146.266  0.00  0.00    +0.000 A 
ENDROOT
BRANCH  11  13
ATOM     13  C   UNL     1     102.398 123.539 146.266  0.00  0.00    +0.000 A 
ATOM     14  C   UNL     1     101.876 123.290 146.855  0.00  0.00    +0.000 A 
ATOM     15  C   UNL     1     102.226 123.388 145.472  0.00  0.00    +0.000 A 
ATOM     16  C   UNL     1     101.184 122.890 146.651  0.00  0.00    +0.000 A 
ATOM     17  C   UNL     1     101.534 122.989 145.269  0.00  0.00    +0.000 A 
ATOM     18  C   UNL     1     101.013 122.739 145.858  0.00  0.00    +0.000 A 
ENDBRANCH  11  13
BRANCH   4  19
ATOM     19  O   UNL     1     105.933 124.820 146.876  0.00  0.00    +0.000 OA
BRANCH  19  28
ATOM     20  O   UNL     1     106.414 124.517 148.187  0.00  0.00    +0.000 OA
ATOM     21  O   UNL     1     108.663 125.330 147.549  0.00  0.00    +0.000 OA
ATOM     22  O   UNL     1     108.395 124.756 149.073  0.00  0.00    +0.000 OA
ATOM     23  O   UNL     1     107.432 125.362 146.451  0.00  0.00    +0.000 OA
ATOM     24  C   UNL     1     107.913 125.059 147.762  0.00  0.00    +0.000 C 
ATOM     25  C   UNL     1     107.780 124.772 148.523  0.00  0.00    +0.000 C 
ATOM     26  C   UNL     1     107.298 125.075 147.212  0.00  0.00    +0.000 C 
ATOM     27  C   UNL     1     107.030 124.501 148.736  0.00  0.00    +0.000 C 
ATOM     28  C   UNL     1     106.548 124.804 147.425  0.00  0.00    +0.000 C 
BRANCH  27  30
ATOM     29  O   UNL     1     106.713 123.418 149.612  0.00  0.00    +0.000 OA
ATOM     30  C   UNL     1     106.895 124.214 149.498  0.00  0.00    +0.000 C 
ENDBRANCH  27  30
ENDBRANCH  19  28
ENDBRANCH   4  19
TORSDOF 4
ENDMDL
MODEL 3
REMARK VINA RESULT:      -9.3      1.420      2.463
REMARK  Name = 101686456
REMARK  4 active torsions:
REMARK  status: ('A' for Active; 'I' for Inactive)
REMARK    1  A    between atoms: O_2  and  C_14
REMARK    2  A    between atoms: O_2  and  C_16
REMARK    3  A    between atoms: C_13  and  C_15
REMARK    4  A    between atoms: C_23  and  C_25
REMARK                            x       y       z     vdW  Elec       q    Type
REMARK                         _______ _______ _______ _____ _____    ______ ____
ROOT
ATOM      1  O   UNL     1     113.515 127.461 136.613  0.00  0.00    +0.000 OA
ATOM      2  O   UNL     1     113.005 130.286 136.124  0.00  0.00    +0.000 OA
ATOM      3  O   UNL     1     111.191 126.911 135.964  0.00  0.00    +0.000 OA
ATOM      4  C   UNL     1     111.675 128.495 135.927  0.00  0.00    +0.000 A 
ATOM      5  C   UNL     1     112.223 127.878 136.167  0.00  0.00    +0.000 A 
ATOM      6  C   UNL     1     111.937 129.312 135.911  0.00  0.00    +0.000 A 
ATOM      7  C   UNL     1     112.998 128.061 136.383  0.00  0.00    +0.000 A 
ATOM      8  C   UNL     1     111.965 127.095 136.180  0.00  0.00    +0.000 A 
ATOM      9  C   UNL     1     112.745 129.503 136.136  0.00  0.00    +0.000 A 
ATOM     10  C   UNL     1     113.279 128.873 136.374  0.00  0.00    +0.000 A 
ATOM     11  C   UNL     1     113.258 126.677 136.626  0.00  0.00    +0.000 A 
ATOM     12  C   UNL     1     112.483 126.494 136.410  0.00  0.00    +0.000 A 
ENDROOT
BRANCH  11  13
ATOM     13  C   UNL     1     113.775 126.077 136.855  0.00  0.00    +0.000 A 
ATOM     14  C   UNL     1     113.829 125.860 137.649  0.00  0.00    +0.000 A 
ATOM     15  C   UNL     1     114.238 125.693 136.290  0.00  0.00    +0.000 A 
ATOM     16  C   UNL     1     114.346 125.259 137.878  0.00  0.00    +0.000 A 
ATOM     17  C   UNL     1     114.755 125.093 136.519  0.00  0.00    +0.000 A 
ATOM     18  C   UNL     1     114.810 124.876 137.313  0.00  0.00    +0.000 A 
ENDBRANCH  11  13
BRANCH   4  19
ATOM     19  O   UNL     1     110.902 128.302 135.712  0.00  0.00    +0.000 OA
BRANCH  19  28
ATOM     20  O   UNL     1     110.178 128.841 136.820  0.00  0.00    +0.000 OA
ATOM     21  O   UNL     1     108.560 129.875 135.258  0.00  0.00    +0.000 OA
ATOM     22  O   UNL     1     108.375 130.069 136.886  0.00  0.00    +0.000 OA
ATOM     23  O   UNL     1     109.824 128.992 134.671  0.00  0.00    +0.000 OA
ATOM     24  C   UNL     1     109.099 129.531 135.779  0.00  0.00    +0.000 C 
ATOM     25  C   UNL     1     109.007 129.628 136.592  0.00  0.00    +0.000 C 
ATOM     26  C   UNL     1     109.731 129.089 135.484  0.00  0.00    +0.000 C 
ATOM     27  C   UNL     1     109.546 129.283 137.112  0.00  0.00    +0.000 C 
ATOM     28  C   UNL     1     110.270 128.744 136.005  0.00  0.00    +0.000 C 
BRANCH  27  30
ATOM     29  O   UNL     1     109.483 128.724 138.426  0.00  0.00    +0.000 OA
ATOM     30  C   UNL     1     109.453 129.380 137.927  0.00  0.00    +0.000 C 
ENDBRANCH  27  30
ENDBRANCH  19  28
ENDBRANCH   4  19
TORSDOF 4
ENDMDL
MODEL 4
REMARK VINA RESULT:      -9.3      7.073      8.453
REMARK  Name = 101686456
REMARK  4 active torsions:
REMARK  status: ('A' for Active; 'I' for Inactive)
REMARK    1  A    between atoms: O_2  and  C_14
REMARK    2  A    between atoms: O_2  and  C_16
REMARK    3  A    between atoms: C_13  and  C_15
REMARK    4  A    between atoms: C_23  and  C_25
REMARK                            x       y       z     vdW  Elec       q    Type
REMARK                         _______ _______ _______ _____ _____    ______ ____
ROOT
ATOM      1  O   UNL     1     104.184 123.383 139.320  0.00  0.00    +0.000 OA
ATOM      2  O   UNL     1     104.774 123.087 142.156  0.00  0.00    +0.000 OA
ATOM      3  O   UNL     1     105.949 125.105 139.115  0.00  0.00    +0.000 OA
ATOM      4  C   UNL     1     105.682 124.410 140.594  0.00  0.00    +0.000 A 
ATOM      5  C   UNL     1     105.215 124.175 139.912  0.00  0.00    +0.000 A 
ATOM      6  C   UNL     1     105.535 124.043 141.356  0.00  0.00    +0.000 A 
ATOM      7  C   UNL     1     104.626 123.601 139.981  0.00  0.00    +0.000 A 
ATOM      8  C   UNL     1     105.361 124.532 139.183  0.00  0.00    +0.000 A 
ATOM      9  C   UNL     1     104.922 123.445 141.428  0.00  0.00    +0.000 A 
ATOM     10  C   UNL     1     104.465 123.222 140.735  0.00  0.00    +0.000 A 
ATOM     11  C   UNL     1     104.329 123.739 138.590  0.00  0.00    +0.000 A 
ATOM     12  C   UNL     1     104.918 124.313 138.521  0.00  0.00    +0.000 A 
ENDROOT
BRANCH  11  13
ATOM     13  C   UNL     1     103.887 123.522 137.929  0.00  0.00    +0.000 A 
ATOM     14  C   UNL     1     104.262 123.198 137.270  0.00  0.00    +0.000 A 
ATOM     15  C   UNL     1     103.068 123.627 137.927  0.00  0.00    +0.000 A 
ATOM     16  C   UNL     1     103.820 122.980 136.608  0.00  0.00    +0.000 A 
ATOM     17  C   UNL     1     102.626 123.410 137.266  0.00  0.00    +0.000 A 
ATOM     18  C   UNL     1     103.001 123.086 136.606  0.00  0.00    +0.000 A 
ENDBRANCH  11  13
BRANCH   4  19
ATOM     19  O   UNL     1     106.269 124.985 140.517  0.00  0.00    +0.000 OA
BRANCH  19  28
ATOM     20  O   UNL     1     105.707 126.117 141.185  0.00  0.00    +0.000 OA
ATOM     21  O   UNL     1     107.770 126.345 142.533  0.00  0.00    +0.000 OA
ATOM     22  O   UNL     1     106.520 127.400 142.752  0.00  0.00    +0.000 OA
ATOM     23  O   UNL     1     107.644 125.137 141.415  0.00  0.00    +0.000 OA
ATOM     24  C   UNL     1     107.082 126.269 142.084  0.00  0.00    +0.000 C 
ATOM     25  C   UNL     1     106.458 126.796 142.194  0.00  0.00    +0.000 C 
ATOM     26  C   UNL     1     107.020 125.665 141.525  0.00  0.00    +0.000 C 
ATOM     27  C   UNL     1     105.770 126.720 141.744  0.00  0.00    +0.000 C 
ATOM     28  C   UNL     1     106.332 125.589 141.076  0.00  0.00    +0.000 C 
BRANCH  27  30
ATOM     29  O   UNL     1     104.736 127.542 141.201  0.00  0.00    +0.000 OA
ATOM     30  C   UNL     1     105.145 127.248 141.854  0.00  0.00    +0.000 C 
ENDBRANCH  27  30
ENDBRANCH  19  28
ENDBRANCH   4  19
TORSDOF 4
ENDMDL
MODEL 5
REMARK VINA RESULT:      -9.2      2.386      3.152
REMARK  Name = 101686456
REMARK  4 active torsions:
REMARK  status: ('A' for Active; 'I' for Inactive)
REMARK    1  A    between atoms: O_2  and  C_14
REMARK    2  A    between atoms: O_2  and  C_16
REMARK    3  A    between atoms: C_13  and  C_15
REMARK    4  A    between atoms: C_23  and  C_25
REMARK                            x       y       z     vdW  Elec       q    Type
REMARK                         _______ _______ _______ _____ _____    ______ ____
ROOT
ATOM      1  O   UNL     1     113.875 127.200 136.295  0.00  0.00    +0.000 OA
ATOM      2  O   UNL     1     114.311 129.776 135.009  0.00  0.00    +0.000 OA
ATOM      3  O   UNL     1     112.439 128.275 138.000  0.00  0.00    +0.000 OA
ATOM      4  C   UNL     1     113.113 129.218 136.817  0.00  0.00    +0.000 A 
ATOM      5  C   UNL     1     113.261 128.371 136.836  0.00  0.00    +0.000 A 
ATOM      6  C   UNL     1     113.467 129.697 136.199  0.00  0.00    +0.000 A 
ATOM      7  C   UNL     1     113.740 128.014 136.267  0.00  0.00    +0.000 A 
ATOM      8  C   UNL     1     112.917 127.917 137.432  0.00  0.00    +0.000 A 
ATOM      9  C   UNL     1     113.966 129.323 135.606  0.00  0.00    +0.000 A 
ATOM     10  C   UNL     1     114.103 128.476 135.641  0.00  0.00    +0.000 A 
ATOM     11  C   UNL     1     113.532 126.745 136.891  0.00  0.00    +0.000 A 
ATOM     12  C   UNL     1     113.053 127.103 137.460  0.00  0.00    +0.000 A 
ENDROOT
BRANCH  11  13
ATOM     13  C   UNL     1     113.667 125.932 136.920  0.00  0.00    +0.000 A 
ATOM     14  C   UNL     1     113.136 125.412 136.561  0.00  0.00    +0.000 A 
ATOM     15  C   UNL     1     114.334 125.638 137.307  0.00  0.00    +0.000 A 
ATOM     16  C   UNL     1     113.271 124.599 136.589  0.00  0.00    +0.000 A 
ATOM     17  C   UNL     1     114.470 124.824 137.335  0.00  0.00    +0.000 A 
ATOM     18  C   UNL     1     113.938 124.305 136.976  0.00  0.00    +0.000 A 
ENDBRANCH  11  13
BRANCH   4  19
ATOM     19  O   UNL     1     112.633 129.568 137.389  0.00  0.00    +0.000 OA
BRANCH  19  28
ATOM     20  O   UNL     1     111.496 129.916 136.596  0.00  0.00    +0.000 OA
ATOM     21  O   UNL     1     111.455 132.160 137.640  0.00  0.00    +0.000 OA
ATOM     22  O   UNL     1     110.332 131.760 136.499  0.00  0.00    +0.000 OA
ATOM     23  O   UNL     1     112.605 131.063 138.085  0.00  0.00    +0.000 OA
ATOM     24  C   UNL     1     111.469 131.412 137.292  0.00  0.00    +0.000 C 
ATOM     25  C   UNL     1     110.908 131.212 136.722  0.00  0.00    +0.000 C 
ATOM     26  C   UNL     1     112.044 130.864 137.515  0.00  0.00    +0.000 C 
ATOM     27  C   UNL     1     110.921 130.465 136.374  0.00  0.00    +0.000 C 
ATOM     28  C   UNL     1     112.058 130.116 137.167  0.00  0.00    +0.000 C 
BRANCH  27  30
ATOM     29  O   UNL     1     110.023 129.512 135.803  0.00  0.00    +0.000 OA
ATOM     30  C   UNL     1     110.360 130.265 135.803  0.00  0.00    +0.000 C 
ENDBRANCH  27  30
ENDBRANCH  19  28
ENDBRANCH   4  19
TORSDOF 4
ENDMDL
MODEL 6
REMARK VINA RESULT:      -9.1      3.889      5.097
REMARK  Name = 101686456
REMARK  4 active torsions:
REMARK  status: ('A' for Active; 'I' for Inactive)
REMARK    1  A    between atoms: O_2  and  C_14
REMARK    2  A    between atoms: O_2  and  C_16
REMARK    3  A    between atoms: C_13  and  C_15
REMARK    4  A    between atoms: C_23  and  C_25
REMARK                            x       y       z     vdW  Elec       q    Type
REMARK                         _______ _______ _______ _____ _____    ______ ____
ROOT
ATOM      1  O   UNL     1     113.149 127.057 137.861  0.00  0.00    +0.000 OA
ATOM      2  O   UNL     1     112.106 129.775 137.844  0.00  0.00    +0.000 OA
ATOM      3  O   UNL     1     113.526 127.198 140.302  0.00  0.00    +0.000 OA
ATOM      4  C   UNL     1     112.886 128.509 139.518  0.00  0.00    +0.000 A 
ATOM      5  C   UNL     1     113.082 127.795 139.083  0.00  0.00    +0.000 A 
ATOM      6  C   UNL     1     112.554 129.183 139.101  0.00  0.00    +0.000 A 
ATOM      7  C   UNL     1     112.957 127.748 138.268  0.00  0.00    +0.000 A 
ATOM      8  C   UNL     1     113.400 127.152 139.489  0.00  0.00    +0.000 A 
ATOM      9  C   UNL     1     112.424 129.133 138.252  0.00  0.00    +0.000 A 
ATOM     10  C   UNL     1     112.626 128.411 137.834  0.00  0.00    +0.000 A 
ATOM     11  C   UNL     1     113.467 126.413 138.266  0.00  0.00    +0.000 A 
ATOM     12  C   UNL     1     113.593 126.460 139.081  0.00  0.00    +0.000 A 
ENDROOT
BRANCH  11  13
ATOM     13  C   UNL     1     113.660 125.723 137.859  0.00  0.00    +0.000 A 
ATOM     14  C   UNL     1     113.062 125.232 137.573  0.00  0.00    +0.000 A 
ATOM     15  C   UNL     1     114.451 125.522 137.737  0.00  0.00    +0.000 A 
ATOM     16  C   UNL     1     113.254 124.541 137.165  0.00  0.00    +0.000 A 
ATOM     17  C   UNL     1     114.644 124.831 137.330  0.00  0.00    +0.000 A 
ATOM     18  C   UNL     1     114.046 124.341 137.043  0.00  0.00    +0.000 A 
ENDBRANCH  11  13
BRANCH   4  19
ATOM     19  O   UNL     1     113.015 128.547 140.332  0.00  0.00    +0.000 OA
BRANCH  19  28
ATOM     20  O   UNL     1     114.005 129.574 140.418  0.00  0.00    +0.000 OA
ATOM     21  O   UNL     1     112.703 130.680 142.209  0.00  0.00    +0.000 OA
ATOM     22  O   UNL     1     114.128 131.337 141.698  0.00  0.00    +0.000 OA
ATOM     23  O   UNL     1     112.147 129.285 141.526  0.00  0.00    +0.000 OA
ATOM     24  C   UNL     1     113.137 130.311 141.612  0.00  0.00    +0.000 C 
ATOM     25  C   UNL     1     113.849 130.640 141.357  0.00  0.00    +0.000 C 
ATOM     26  C   UNL     1     112.858 129.613 141.271  0.00  0.00    +0.000 C 
ATOM     27  C   UNL     1     114.283 130.271 140.760  0.00  0.00    +0.000 C 
ATOM     28  C   UNL     1     113.292 129.245 140.674  0.00  0.00    +0.000 C 
BRANCH  27  30
ATOM     29  O   UNL     1     115.661 130.121 140.414  0.00  0.00    +0.000 OA
ATOM     30  C   UNL     1     114.996 130.600 140.504  0.00  0.00    +0.000 C 
ENDBRANCH  27  30
ENDBRANCH  19  28
ENDBRANCH   4  19
TORSDOF 4
ENDMDL
MODEL 7
REMARK VINA RESULT:      -9.1      3.187      4.455
REMARK  Name = 101686456
REMARK  4 active torsions:
REMARK  status: ('A' for Active; 'I' for Inactive)
REMARK    1  A    between atoms: O_2  and  C_14
REMARK    2  A    between atoms: O_2  and  C_16
REMARK    3  A    between atoms: C_13  and  C_15
REMARK    4  A    between atoms: C_23  and  C_25
REMARK                            x       y       z     vdW  Elec       q    Type
REMARK                         _______ _______ _______ _____ _____    ______ ____
ROOT
ATOM      1  O   UNL     1     113.630 126.429 138.811  0.00  0.00    +0.000 OA
ATOM      2  O   UNL     1     113.188 127.778 141.353  0.00  0.00    +0.000 OA
ATOM      3  O   UNL     1     111.341 125.493 138.889  0.00  0.00    +0.000 OA
ATOM      4  C   UNL     1     111.848 126.463 140.132  0.00  0.00    +0.000 A 
ATOM      5  C   UNL     1     112.372 126.290 139.474  0.00  0.00    +0.000 A 
ATOM      6  C   UNL     1     112.121 126.968 140.771  0.00  0.00    +0.000 A 
ATOM      7  C   UNL     1     113.136 126.602 139.448  0.00  0.00    +0.000 A 
ATOM      8  C   UNL     1     112.104 125.805 138.863  0.00  0.00    +0.000 A 
ATOM      9  C   UNL     1     112.917 127.293 140.744  0.00  0.00    +0.000 A 
ATOM     10  C   UNL     1     113.427 127.108 140.078  0.00  0.00    +0.000 A 
ATOM     11  C   UNL     1     113.363 125.944 138.200  0.00  0.00    +0.000 A 
ATOM     12  C   UNL     1     112.599 125.632 138.226  0.00  0.00    +0.000 A 
ENDROOT
BRANCH  11  13
ATOM     13  C   UNL     1     113.857 125.770 137.563  0.00  0.00    +0.000 A 
ATOM     14  C   UNL     1     114.339 125.101 137.585  0.00  0.00    +0.000 A 
ATOM     15  C   UNL     1     113.871 126.267 136.904  0.00  0.00    +0.000 A 
ATOM     16  C   UNL     1     114.834 124.928 136.948  0.00  0.00    +0.000 A 
ATOM     17  C   UNL     1     114.366 126.094 136.267  0.00  0.00    +0.000 A 
ATOM     18  C   UNL     1     114.847 125.424 136.289  0.00  0.00    +0.000 A 
ENDBRANCH  11  13
BRANCH   4  19
ATOM     19  O   UNL     1     111.086 126.147 140.149  0.00  0.00    +0.000 OA
BRANCH  19  28
ATOM     20  O   UNL     1     110.288 127.321 139.988  0.00  0.00    +0.000 OA
ATOM     21  O   UNL     1     108.865 126.615 141.886  0.00  0.00    +0.000 OA
ATOM     22  O   UNL     1     108.541 128.025 141.091  0.00  0.00    +0.000 OA
ATOM     23  O   UNL     1     110.137 125.677 141.415  0.00  0.00    +0.000 OA
ATOM     24  C   UNL     1     109.339 126.851 141.253  0.00  0.00    +0.000 C 
ATOM     25  C   UNL     1     109.177 127.555 140.856  0.00  0.00    +0.000 C 
ATOM     26  C   UNL     1     109.975 126.381 141.018  0.00  0.00    +0.000 C 
ATOM     27  C   UNL     1     109.651 127.790 140.223  0.00  0.00    +0.000 C 
ATOM     28  C   UNL     1     110.450 126.616 140.385  0.00  0.00    +0.000 C 
BRANCH  27  30
ATOM     29  O   UNL     1     109.430 128.500 139.003  0.00  0.00    +0.000 OA
ATOM     30  C   UNL     1     109.489 128.495 139.826  0.00  0.00    +0.000 C 
ENDBRANCH  27  30
ENDBRANCH  19  28
ENDBRANCH   4  19
TORSDOF 4
ENDMDL
MODEL 8
REMARK VINA RESULT:      -8.9      9.476     10.336
REMARK  Name = 101686456
REMARK  4 active torsions:
REMARK  status: ('A' for Active; 'I' for Inactive)
REMARK    1  A    between atoms: O_2  and  C_14
REMARK    2  A    between atoms: O_2  and  C_16
REMARK    3  A    between atoms: C_13  and  C_15
REMARK    4  A    between atoms: C_23  and  C_25
REMARK                            x       y       z     vdW  Elec       q    Type
REMARK                         _______ _______ _______ _____ _____    ______ ____
ROOT
ATOM      1  O   UNL     1     106.521 124.814 146.489  0.00  0.00    +0.000 OA
ATOM      2  O   UNL     1     105.171 124.239 143.974  0.00  0.00    +0.000 OA
ATOM      3  O   UNL     1     106.781 127.184 145.828  0.00  0.00    +0.000 OA
ATOM      4  C   UNL     1     106.025 126.144 144.784  0.00  0.00    +0.000 A 
ATOM      5  C   UNL     1     106.321 125.863 145.540  0.00  0.00    +0.000 A 
ATOM      6  C   UNL     1     105.635 125.596 144.250  0.00  0.00    +0.000 A 
ATOM      7  C   UNL     1     106.234 125.072 145.760  0.00  0.00    +0.000 A 
ATOM      8  C   UNL     1     106.695 126.394 146.048  0.00  0.00    +0.000 A 
ATOM      9  C   UNL     1     105.544 124.772 144.480  0.00  0.00    +0.000 A 
ATOM     10  C   UNL     1     105.846 124.509 145.240  0.00  0.00    +0.000 A 
ATOM     11  C   UNL     1     106.896 125.344 146.997  0.00  0.00    +0.000 A 
ATOM     12  C   UNL     1     106.983 126.135 146.777  0.00  0.00    +0.000 A 
ENDROOT
BRANCH  11  13
ATOM     13  C   UNL     1     107.183 125.086 147.726  0.00  0.00    +0.000 A 
ATOM     14  C   UNL     1     107.995 124.988 147.838  0.00  0.00    +0.000 A 
ATOM     15  C   UNL     1     106.659 124.925 148.343  0.00  0.00    +0.000 A 
ATOM     16  C   UNL     1     108.282 124.729 148.567  0.00  0.00    +0.000 A 
ATOM     17  C   UNL     1     106.947 124.666 149.071  0.00  0.00    +0.000 A 
ATOM     18  C   UNL     1     107.758 124.568 149.184  0.00  0.00    +0.000 A 
ENDBRANCH  11  13
BRANCH   4  19
ATOM     19  O   UNL     1     106.116 126.936 144.571  0.00  0.00    +0.000 OA
BRANCH  19  28
ATOM     20  O   UNL     1     106.930 126.877 143.398  0.00  0.00    +0.000 OA
ATOM     21  O   UNL     1     105.285 128.274 142.187  0.00  0.00    +0.000 OA
ATOM     22  O   UNL     1     106.647 127.750 141.418  0.00  0.00    +0.000 OA
ATOM     23  O   UNL     1     105.019 127.867 143.764  0.00  0.00    +0.000 OA
ATOM     24  C   UNL     1     105.833 127.808 142.591  0.00  0.00    +0.000 C 
ATOM     25  C   UNL     1     106.514 127.546 142.206  0.00  0.00    +0.000 C 
ATOM     26  C   UNL     1     105.700 127.605 143.379  0.00  0.00    +0.000 C 
ATOM     27  C   UNL     1     107.062 127.081 142.610  0.00  0.00    +0.000 C 
ATOM     28  C   UNL     1     106.248 127.140 143.783  0.00  0.00    +0.000 C 
BRANCH  27  30
ATOM     29  O   UNL     1     108.481 126.915 142.582  0.00  0.00    +0.000 OA
ATOM     30  C   UNL     1     107.744 126.818 142.225  0.00  0.00    +0.000 C 
ENDBRANCH  27  30
ENDBRANCH  19  28
ENDBRANCH   4  19
TORSDOF 4
ENDMDL
MODEL 9
REMARK VINA RESULT:      -8.8      2.674      4.412
REMARK  Name = 101686456
REMARK  4 active torsions:
REMARK  status: ('A' for Active; 'I' for Inactive)
REMARK    1  A    between atoms: O_2  and  C_14
REMARK    2  A    between atoms: O_2  and  C_16
REMARK    3  A    between atoms: C_13  and  C_15
REMARK    4  A    between atoms: C_23  and  C_25
REMARK                            x       y       z     vdW  Elec       q    Type
REMARK                         _______ _______ _______ _____ _____    ______ ____
ROOT
ATOM      1  O   UNL     1     113.092 129.126 135.367  0.00  0.00    +0.000 OA
ATOM      2  O   UNL     1     110.443 127.932 135.184  0.00  0.00    +0.000 OA
ATOM      3  O   UNL     1     113.950 127.094 136.489  0.00  0.00    +0.000 OA
ATOM      4  C   UNL     1     112.356 127.144 136.041  0.00  0.00    +0.000 A 
ATOM      5  C   UNL     1     112.873 127.813 135.885  0.00  0.00    +0.000 A 
ATOM      6  C   UNL     1     111.531 127.181 135.804  0.00  0.00    +0.000 A 
ATOM      7  C   UNL     1     112.587 128.490 135.511  0.00  0.00    +0.000 A 
ATOM      8  C   UNL     1     113.664 127.770 136.115  0.00  0.00    +0.000 A 
ATOM      9  C   UNL     1     111.233 127.888 135.414  0.00  0.00    +0.000 A 
ATOM     10  C   UNL     1     111.765 128.546 135.267  0.00  0.00    +0.000 A 
ATOM     11  C   UNL     1     113.884 129.084 135.597  0.00  0.00    +0.000 A 
ATOM     12  C   UNL     1     114.170 128.407 135.971  0.00  0.00    +0.000 A 
ENDROOT
BRANCH  11  13
ATOM     13  C   UNL     1     114.389 129.720 135.453  0.00  0.00    +0.000 A 
ATOM     14  C   UNL     1     114.453 130.330 136.004  0.00  0.00    +0.000 A 
ATOM     15  C   UNL     1     114.831 129.746 134.756  0.00  0.00    +0.000 A 
ATOM     16  C   UNL     1     114.958 130.966 135.860  0.00  0.00    +0.000 A 
ATOM     17  C   UNL     1     115.337 130.381 134.612  0.00  0.00    +0.000 A 
ATOM     18  C   UNL     1     115.401 130.991 135.164  0.00  0.00    +0.000 A 
ENDBRANCH  11  13
BRANCH   4  19
ATOM     19  O   UNL     1     112.650 126.470 136.415  0.00  0.00    +0.000 OA
BRANCH  19  28
ATOM     20  O   UNL     1     111.954 126.537 137.661  0.00  0.00    +0.000 OA
ATOM     21  O   UNL     1     111.405 124.130 137.484  0.00  0.00    +0.000 OA
ATOM     22  O   UNL     1     110.891 124.999 138.789  0.00  0.00    +0.000 OA
ATOM     23  O   UNL     1     112.285 124.866 136.297  0.00  0.00    +0.000 OA
ATOM     24  C   UNL     1     111.588 124.932 137.543  0.00  0.00    +0.000 C 
ATOM     25  C   UNL     1     111.331 125.367 138.195  0.00  0.00    +0.000 C 
ATOM     26  C   UNL     1     112.028 125.300 136.949  0.00  0.00    +0.000 C 
ATOM     27  C   UNL     1     111.514 126.169 138.254  0.00  0.00    +0.000 C 
ATOM     28  C   UNL     1     112.211 126.102 137.008  0.00  0.00    +0.000 C 
BRANCH  27  30
ATOM     29  O   UNL     1     111.772 127.129 139.281  0.00  0.00    +0.000 OA
ATOM     30  C   UNL     1     111.257 126.604 138.907  0.00  0.00    +0.000 C 
ENDBRANCH  27  30
ENDBRANCH  19  28
ENDBRANCH   4  19
TORSDOF 4
ENDMDL
