MODEL 1
REMARK VINA RESULT:      -9.6      0.000      0.000
REMARK  Name = 
REMARK  6 active torsions:
REMARK  status: ('A' for Active; 'I' for Inactive)
REMARK    1  A    between atoms: C_6  and  O_8
REMARK    2  A    between atoms: O_8  and  C_9
REMARK    3  A    between atoms: C_16  and  C_32
REMARK    4  A    between atoms: C_17  and  O_20
REMARK    5  A    between atoms: O_20  and  C_21
REMARK    6  A    between atoms: C_25  and  C_27
REMARK                            x       y       z     vdW  Elec       q    Type
REMARK                         _______ _______ _______ _____ _____    ______ ____
ROOT
ATOM      1  C   UNL     1     102.656 130.270 141.725  0.00  0.00    +0.000 A 
ATOM      2  C   UNL     1     102.808 129.682 140.926  0.00  0.00    +0.000 A 
ATOM      3  C   UNL     1     103.487 128.953 140.955  0.00  0.00    +0.000 A 
ATOM      4  C   UNL     1     104.011 128.819 141.791  0.00  0.00    +0.000 A 
ATOM      5  C   UNL     1     103.859 129.407 142.590  0.00  0.00    +0.000 A 
ATOM      6  C   UNL     1     103.182 130.129 142.552  0.00  0.00    +0.000 A 
ATOM      7  O   UNL     1     104.401 129.255 143.428  0.00  0.00    +0.000 OA
ATOM      8  C   UNL     1     105.078 128.533 143.466  0.00  0.00    +0.000 A 
ATOM      9  C   UNL     1     105.230 127.945 142.666  0.00  0.00    +0.000 A 
ATOM     10  C   UNL     1     104.706 128.079 141.831  0.00  0.00    +0.000 A 
ATOM     11  O   UNL     1     104.856 127.498 141.041  0.00  0.00    +0.000 OA
ATOM     12  O   UNL     1     103.637 128.372 140.165  0.00  0.00    +0.000 OA
ENDROOT
BRANCH   8  13
ATOM     13  C   UNL     1     105.612 128.387 144.299  0.00  0.00    +0.000 A 
ATOM     14  C   UNL     1     106.345 129.030 144.539  0.00  0.00    +0.000 A 
ATOM     15  C   UNL     1     106.877 128.889 145.363  0.00  0.00    +0.000 A 
ATOM     16  C   UNL     1     106.690 128.102 145.966  0.00  0.00    +0.000 A 
ATOM     17  C   UNL     1     105.958 127.459 145.725  0.00  0.00    +0.000 A 
ATOM     18  C   UNL     1     105.421 127.611 144.884  0.00  0.00    +0.000 A 
ATOM     19  O   UNL     1     107.222 127.962 146.789  0.00  0.00    +0.000 OA
ENDBRANCH   8  13
BRANCH   1  20
ATOM     20  O   UNL     1     101.963 131.003 141.677  0.00  0.00    +0.000 OA
BRANCH  20  26
ATOM     21  C   UNL     1     104.158 133.252 140.229  0.00  0.00    +0.000 C 
ATOM     22  C   UNL     1     103.338 133.069 140.756  0.00  0.00    +0.000 C 
ATOM     23  C   UNL     1     102.775 133.828 141.098  0.00  0.00    +0.000 C 
ATOM     24  C   UNL     1     101.945 133.643 141.631  0.00  0.00    +0.000 C 
ATOM     25  C   UNL     1     101.678 132.698 141.821  0.00  0.00    +0.000 C 
ATOM     26  C   UNL     1     102.232 131.936 141.485  0.00  0.00    +0.000 C 
ATOM     27  O   UNL     1     103.062 132.121 140.952  0.00  0.00    +0.000 OA
ATOM     28  O   UNL     1     100.848 132.513 142.355  0.00  0.00    +0.000 OA
ATOM     29  O   UNL     1     101.391 134.405 141.967  0.00  0.00    +0.000 OA
ATOM     30  O   UNL     1     103.051 134.776 140.902  0.00  0.00    +0.000 OA
ENDBRANCH  20  26
ENDBRANCH   1  20
BRANCH   9  31
ATOM     31  O   UNL     1     105.917 127.211 142.701  0.00  0.00    +0.000 OA
BRANCH  31  32
ATOM     32  C   UNL     1     106.780 127.311 142.223  0.00  0.00    +0.000 C 
ATOM     33  C   UNL     1     107.373 126.523 142.074  0.00  0.00    +0.000 C 
ATOM     34  C   UNL     1     108.236 126.623 141.595  0.00  0.00    +0.000 C 
ATOM     35  C   UNL     1     108.518 127.512 141.260  0.00  0.00    +0.000 C 
ATOM     36  C   UNL     1     107.933 128.312 141.402  0.00  0.00    +0.000 C 
ATOM     37  O   UNL     1     107.070 128.212 141.880  0.00  0.00    +0.000 OA
ATOM     38  O   UNL     1     109.391 127.613 140.776  0.00  0.00    +0.000 OA
ATOM     39  O   UNL     1     108.823 125.814 141.454  0.00  0.00    +0.000 OA
ATOM     40  O   UNL     1     107.085 125.613 142.417  0.00  0.00    +0.000 OA
BRANCH  36  41
ATOM     41  C   UNL     1     108.216 129.200 141.067  0.00  0.00    +0.000 C 
ATOM     42  O   UNL     1     107.532 129.850 140.726  0.00  0.00    +0.000 OA
ENDBRANCH  36  41
ENDBRANCH  31  32
ENDBRANCH   9  31
TORSDOF 6
ENDMDL
MODEL 2
REMARK VINA RESULT:      -9.5      2.949      6.828
REMARK  Name = 
REMARK  6 active torsions:
REMARK  status: ('A' for Active; 'I' for Inactive)
REMARK    1  A    between atoms: C_6  and  O_8
REMARK    2  A    between atoms: O_8  and  C_9
REMARK    3  A    between atoms: C_16  and  C_32
REMARK    4  A    between atoms: C_17  and  O_20
REMARK    5  A    between atoms: O_20  and  C_21
REMARK    6  A    between atoms: C_25  and  C_27
REMARK                            x       y       z     vdW  Elec       q    Type
REMARK                         _______ _______ _______ _____ _____    ______ ____
ROOT
ATOM      1  C   UNL     1     105.708 125.161 146.051  0.00  0.00    +0.000 A 
ATOM      2  C   UNL     1     106.526 125.574 146.460  0.00  0.00    +0.000 A 
ATOM      3  C   UNL     1     106.868 126.451 146.135  0.00  0.00    +0.000 A 
ATOM      4  C   UNL     1     106.384 126.910 145.396  0.00  0.00    +0.000 A 
ATOM      5  C   UNL     1     105.565 126.497 144.987  0.00  0.00    +0.000 A 
ATOM      6  C   UNL     1     105.232 125.624 145.317  0.00  0.00    +0.000 A 
ATOM      7  O   UNL     1     105.088 126.978 144.238  0.00  0.00    +0.000 OA
ATOM      8  C   UNL     1     105.421 127.850 143.908  0.00  0.00    +0.000 A 
ATOM      9  C   UNL     1     106.240 128.263 144.317  0.00  0.00    +0.000 A 
ATOM     10  C   UNL     1     106.724 127.804 145.056  0.00  0.00    +0.000 A 
ATOM     11  O   UNL     1     107.533 128.213 145.460  0.00  0.00    +0.000 OA
ATOM     12  O   UNL     1     107.677 126.859 146.539  0.00  0.00    +0.000 OA
ENDROOT
BRANCH   8  13
ATOM     13  C   UNL     1     104.945 128.323 143.166  0.00  0.00    +0.000 A 
ATOM     14  C   UNL     1     104.988 127.956 142.233  0.00  0.00    +0.000 A 
ATOM     15  C   UNL     1     104.519 128.420 141.495  0.00  0.00    +0.000 A 
ATOM     16  C   UNL     1     103.993 129.264 141.672  0.00  0.00    +0.000 A 
ATOM     17  C   UNL     1     103.950 129.631 142.605  0.00  0.00    +0.000 A 
ATOM     18  C   UNL     1     104.432 129.150 143.350  0.00  0.00    +0.000 A 
ATOM     19  O   UNL     1     103.524 129.728 140.934  0.00  0.00    +0.000 OA
ENDBRANCH   8  13
BRANCH   1  20
ATOM     20  O   UNL     1     105.376 124.271 146.396  0.00  0.00    +0.000 OA
BRANCH  20  26
ATOM     21  C   UNL     1     103.067 125.342 148.738  0.00  0.00    +0.000 C 
ATOM     22  C   UNL     1     103.320 124.735 147.995  0.00  0.00    +0.000 C 
ATOM     23  C   UNL     1     102.673 124.041 147.664  0.00  0.00    +0.000 C 
ATOM     24  C   UNL     1     102.929 123.427 146.913  0.00  0.00    +0.000 C 
ATOM     25  C   UNL     1     103.832 123.508 146.492  0.00  0.00    +0.000 C 
ATOM     26  C   UNL     1     104.484 124.195 146.815  0.00  0.00    +0.000 C 
ATOM     27  O   UNL     1     104.227 124.809 147.567  0.00  0.00    +0.000 OA
ATOM     28  O   UNL     1     104.089 122.894 145.741  0.00  0.00    +0.000 OA
ATOM     29  O   UNL     1     102.278 122.739 146.590  0.00  0.00    +0.000 OA
ATOM     30  O   UNL     1     101.765 123.967 148.093  0.00  0.00    +0.000 OA
ENDBRANCH  20  26
ENDBRANCH   1  20
BRANCH   9  31
ATOM     31  O   UNL     1     106.581 129.149 143.984  0.00  0.00    +0.000 OA
BRANCH  31  32
ATOM     32  C   UNL     1     107.404 129.193 143.432  0.00  0.00    +0.000 C 
ATOM     33  C   UNL     1     107.877 130.058 143.293  0.00  0.00    +0.000 C 
ATOM     34  C   UNL     1     108.700 130.101 142.741  0.00  0.00    +0.000 C 
ATOM     35  C   UNL     1     109.061 129.280 142.321  0.00  0.00    +0.000 C 
ATOM     36  C   UNL     1     108.596 128.403 142.452  0.00  0.00    +0.000 C 
ATOM     37  O   UNL     1     107.773 128.360 143.004  0.00  0.00    +0.000 OA
ATOM     38  O   UNL     1     109.893 129.323 141.763  0.00  0.00    +0.000 OA
ATOM     39  O   UNL     1     109.166 130.988 142.611  0.00  0.00    +0.000 OA
ATOM     40  O   UNL     1     107.509 130.901 143.722  0.00  0.00    +0.000 OA
BRANCH  36  41
ATOM     41  C   UNL     1     108.957 127.581 142.032  0.00  0.00    +0.000 C 
ATOM     42  O   UNL     1     108.471 126.710 142.133  0.00  0.00    +0.000 OA
ENDBRANCH  36  41
ENDBRANCH  31  32
ENDBRANCH   9  31
TORSDOF 6
ENDMDL
MODEL 3
REMARK VINA RESULT:      -9.3      5.535      8.309
REMARK  Name = 
REMARK  6 active torsions:
REMARK  status: ('A' for Active; 'I' for Inactive)
REMARK    1  A    between atoms: C_6  and  O_8
REMARK    2  A    between atoms: O_8  and  C_9
REMARK    3  A    between atoms: C_16  and  C_32
REMARK    4  A    between atoms: C_17  and  O_20
REMARK    5  A    between atoms: O_20  and  C_21
REMARK    6  A    between atoms: C_25  and  C_27
REMARK                            x       y       z     vdW  Elec       q    Type
REMARK                         _______ _______ _______ _____ _____    ______ ____
ROOT
ATOM      1  C   UNL     1     108.518 125.933 141.030  0.00  0.00    +0.000 A 
ATOM      2  C   UNL     1     108.441 126.933 140.993  0.00  0.00    +0.000 A 
ATOM      3  C   UNL     1     109.013 127.463 140.373  0.00  0.00    +0.000 A 
ATOM      4  C   UNL     1     109.662 126.983 139.791  0.00  0.00    +0.000 A 
ATOM      5  C   UNL     1     109.739 125.982 139.829  0.00  0.00    +0.000 A 
ATOM      6  C   UNL     1     109.167 125.463 140.448  0.00  0.00    +0.000 A 
ATOM      7  O   UNL     1     110.405 125.514 139.230  0.00  0.00    +0.000 OA
ATOM      8  C   UNL     1     110.977 126.033 138.611  0.00  0.00    +0.000 A 
ATOM      9  C   UNL     1     110.900 127.033 138.574  0.00  0.00    +0.000 A 
ATOM     10  C   UNL     1     110.250 127.513 139.156  0.00  0.00    +0.000 A 
ATOM     11  O   UNL     1     110.174 128.502 139.119  0.00  0.00    +0.000 OA
ATOM     12  O   UNL     1     108.936 128.451 140.337  0.00  0.00    +0.000 OA
ENDROOT
BRANCH   8  13
ATOM     13  C   UNL     1     111.635 125.563 138.020  0.00  0.00    +0.000 A 
ATOM     14  C   UNL     1     111.307 125.035 137.232  0.00  0.00    +0.000 A 
ATOM     15  C   UNL     1     111.953 124.569 136.644  0.00  0.00    +0.000 A 
ATOM     16  C   UNL     1     112.944 124.620 136.830  0.00  0.00    +0.000 A 
ATOM     17  C   UNL     1     113.272 125.148 137.618  0.00  0.00    +0.000 A 
ATOM     18  C   UNL     1     112.605 125.619 138.211  0.00  0.00    +0.000 A 
ATOM     19  O   UNL     1     113.590 124.153 136.242  0.00  0.00    +0.000 OA
ENDBRANCH   8  13
BRANCH   1  20
ATOM     20  O   UNL     1     107.929 125.413 141.665  0.00  0.00    +0.000 OA
BRANCH  20  26
ATOM     21  C   UNL     1     105.692 124.735 139.114  0.00  0.00    +0.000 C 
ATOM     22  C   UNL     1     105.933 124.709 140.076  0.00  0.00    +0.000 C 
ATOM     23  C   UNL     1     105.298 124.314 140.747  0.00  0.00    +0.000 C 
ATOM     24  C   UNL     1     105.542 124.288 141.721  0.00  0.00    +0.000 C 
ATOM     25  C   UNL     1     106.421 124.656 142.022  0.00  0.00    +0.000 C 
ATOM     26  C   UNL     1     107.060 125.050 141.361  0.00  0.00    +0.000 C 
ATOM     27  O   UNL     1     106.816 125.077 140.388  0.00  0.00    +0.000 OA
ATOM     28  O   UNL     1     106.665 124.629 142.996  0.00  0.00    +0.000 OA
ATOM     29  O   UNL     1     104.902 123.893 142.382  0.00  0.00    +0.000 OA
ATOM     30  O   UNL     1     104.415 123.946 140.436  0.00  0.00    +0.000 OA
ENDBRANCH  20  26
ENDBRANCH   1  20
BRANCH   9  31
ATOM     31  O   UNL     1     111.480 127.563 137.946  0.00  0.00    +0.000 OA
BRANCH  31  32
ATOM     32  C   UNL     1     111.086 127.996 137.145  0.00  0.00    +0.000 C 
ATOM     33  C   UNL     1     111.606 128.662 136.619  0.00  0.00    +0.000 C 
ATOM     34  C   UNL     1     111.211 129.095 135.819  0.00  0.00    +0.000 C 
ATOM     35  C   UNL     1     110.291 128.866 135.533  0.00  0.00    +0.000 C 
ATOM     36  C   UNL     1     109.755 128.198 136.052  0.00  0.00    +0.000 C 
ATOM     37  O   UNL     1     110.150 127.766 136.853  0.00  0.00    +0.000 OA
ATOM     38  O   UNL     1     109.891 129.304 134.724  0.00  0.00    +0.000 OA
ATOM     39  O   UNL     1     111.755 129.768 135.298  0.00  0.00    +0.000 OA
ATOM     40  O   UNL     1     112.550 128.898 136.910  0.00  0.00    +0.000 OA
BRANCH  36  41
ATOM     41  C   UNL     1     108.835 127.969 135.767  0.00  0.00    +0.000 C 
ATOM     42  O   UNL     1     108.367 127.177 136.165  0.00  0.00    +0.000 OA
ENDBRANCH  36  41
ENDBRANCH  31  32
ENDBRANCH   9  31
TORSDOF 6
ENDMDL
MODEL 4
REMARK VINA RESULT:      -9.2      6.292      8.840
REMARK  Name = 
REMARK  6 active torsions:
REMARK  status: ('A' for Active; 'I' for Inactive)
REMARK    1  A    between atoms: C_6  and  O_8
REMARK    2  A    between atoms: O_8  and  C_9
REMARK    3  A    between atoms: C_16  and  C_32
REMARK    4  A    between atoms: C_17  and  O_20
REMARK    5  A    between atoms: O_20  and  C_21
REMARK    6  A    between atoms: C_25  and  C_27
REMARK                            x       y       z     vdW  Elec       q    Type
REMARK                         _______ _______ _______ _____ _____    ______ ____
ROOT
ATOM      1  C   UNL     1     112.399 128.980 141.683  0.00  0.00    +0.000 A 
ATOM      2  C   UNL     1     112.209 128.024 141.923  0.00  0.00    +0.000 A 
ATOM      3  C   UNL     1     111.913 127.376 141.227  0.00  0.00    +0.000 A 
ATOM      4  C   UNL     1     111.808 127.695 140.289  0.00  0.00    +0.000 A 
ATOM      5  C   UNL     1     111.998 128.651 140.050  0.00  0.00    +0.000 A 
ATOM      6  C   UNL     1     112.292 129.288 140.748  0.00  0.00    +0.000 A 
ATOM      7  O   UNL     1     111.885 128.955 139.093  0.00  0.00    +0.000 OA
ATOM      8  C   UNL     1     111.591 128.318 138.394  0.00  0.00    +0.000 A 
ATOM      9  C   UNL     1     111.401 127.361 138.633  0.00  0.00    +0.000 A 
ATOM     10  C   UNL     1     111.506 127.043 139.571  0.00  0.00    +0.000 A 
ATOM     11  O   UNL     1     111.319 126.098 139.807  0.00  0.00    +0.000 OA
ATOM     12  O   UNL     1     111.726 126.431 141.463  0.00  0.00    +0.000 OA
ENDROOT
BRANCH   8  13
ATOM     13  C   UNL     1     111.481 128.623 137.448  0.00  0.00    +0.000 A 
ATOM     14  C   UNL     1     112.293 128.791 136.882  0.00  0.00    +0.000 A 
ATOM     15  C   UNL     1     112.191 129.094 135.944  0.00  0.00    +0.000 A 
ATOM     16  C   UNL     1     111.273 129.236 135.550  0.00  0.00    +0.000 A 
ATOM     17  C   UNL     1     110.461 129.069 136.116  0.00  0.00    +0.000 A 
ATOM     18  C   UNL     1     110.576 128.761 137.070  0.00  0.00    +0.000 A 
ATOM     19  O   UNL     1     111.170 129.539 134.613  0.00  0.00    +0.000 OA
ENDBRANCH   8  13
BRANCH   1  20
ATOM     20  O   UNL     1     112.698 129.621 142.404  0.00  0.00    +0.000 OA
BRANCH  20  26
ATOM     21  C   UNL     1     109.741 130.153 144.120  0.00  0.00    +0.000 C 
ATOM     22  C   UNL     1     110.562 130.508 143.690  0.00  0.00    +0.000 C 
ATOM     23  C   UNL     1     110.742 131.497 143.681  0.00  0.00    +0.000 C 
ATOM     24  C   UNL     1     111.573 131.856 143.247  0.00  0.00    +0.000 C 
ATOM     25  C   UNL     1     112.223 131.226 142.822  0.00  0.00    +0.000 C 
ATOM     26  C   UNL     1     112.052 130.240 142.826  0.00  0.00    +0.000 C 
ATOM     27  O   UNL     1     111.221 129.881 143.260  0.00  0.00    +0.000 OA
ATOM     28  O   UNL     1     113.053 131.585 142.387  0.00  0.00    +0.000 OA
ATOM     29  O   UNL     1     111.744 132.842 143.242  0.00  0.00    +0.000 OA
ATOM     30  O   UNL     1     110.083 132.124 144.111  0.00  0.00    +0.000 OA
ENDBRANCH  20  26
ENDBRANCH   1  20
BRANCH   9  31
ATOM     31  O   UNL     1     111.102 126.711 137.926  0.00  0.00    +0.000 OA
BRANCH  31  32
ATOM     32  C   UNL     1     111.720 126.006 137.602  0.00  0.00    +0.000 C 
ATOM     33  C   UNL     1     111.384 125.256 137.039  0.00  0.00    +0.000 C 
ATOM     34  C   UNL     1     112.001 124.551 136.715  0.00  0.00    +0.000 C 
ATOM     35  C   UNL     1     112.963 124.586 136.949  0.00  0.00    +0.000 C 
ATOM     36  C   UNL     1     113.316 125.334 137.513  0.00  0.00    +0.000 C 
ATOM     37  O   UNL     1     112.698 126.040 137.838  0.00  0.00    +0.000 OA
ATOM     38  O   UNL     1     113.588 123.873 136.621  0.00  0.00    +0.000 OA
ATOM     39  O   UNL     1     111.642 123.798 136.146  0.00  0.00    +0.000 OA
ATOM     40  O   UNL     1     110.398 125.218 136.799  0.00  0.00    +0.000 OA
BRANCH  36  41
ATOM     41  C   UNL     1     114.278 125.370 137.747  0.00  0.00    +0.000 C 
ATOM     42  O   UNL     1     114.572 125.811 138.599  0.00  0.00    +0.000 OA
ENDBRANCH  36  41
ENDBRANCH  31  32
ENDBRANCH   9  31
TORSDOF 6
ENDMDL
MODEL 5
REMARK VINA RESULT:      -9.2      6.508      8.888
REMARK  Name = 
REMARK  6 active torsions:
REMARK  status: ('A' for Active; 'I' for Inactive)
REMARK    1  A    between atoms: C_6  and  O_8
REMARK    2  A    between atoms: O_8  and  C_9
REMARK    3  A    between atoms: C_16  and  C_32
REMARK    4  A    between atoms: C_17  and  O_20
REMARK    5  A    between atoms: O_20  and  C_21
REMARK    6  A    between atoms: C_25  and  C_27
REMARK                            x       y       z     vdW  Elec       q    Type
REMARK                         _______ _______ _______ _____ _____    ______ ____
ROOT
ATOM      1  C   UNL     1     111.758 127.514 141.774  0.00  0.00    +0.000 A 
ATOM      2  C   UNL     1     110.812 127.207 141.639  0.00  0.00    +0.000 A 
ATOM      3  C   UNL     1     110.545 126.737 140.803  0.00  0.00    +0.000 A 
ATOM      4  C   UNL     1     111.235 126.575 140.103  0.00  0.00    +0.000 A 
ATOM      5  C   UNL     1     112.182 126.882 140.238  0.00  0.00    +0.000 A 
ATOM      6  C   UNL     1     112.437 127.349 141.073  0.00  0.00    +0.000 A 
ATOM      7  O   UNL     1     112.867 126.709 139.516  0.00  0.00    +0.000 OA
ATOM      8  C   UNL     1     112.611 126.241 138.682  0.00  0.00    +0.000 A 
ATOM      9  C   UNL     1     111.665 125.935 138.547  0.00  0.00    +0.000 A 
ATOM     10  C   UNL     1     110.975 126.096 139.247  0.00  0.00    +0.000 A 
ATOM     11  O   UNL     1     110.040 125.793 139.113  0.00  0.00    +0.000 OA
ATOM     12  O   UNL     1     109.610 126.434 140.670  0.00  0.00    +0.000 OA
ENDROOT
BRANCH   8  13
ATOM     13  C   UNL     1     113.294 126.072 137.970  0.00  0.00    +0.000 A 
ATOM     14  C   UNL     1     113.715 125.164 137.890  0.00  0.00    +0.000 A 
ATOM     15  C   UNL     1     114.391 124.991 137.187  0.00  0.00    +0.000 A 
ATOM     16  C   UNL     1     114.663 125.722 136.547  0.00  0.00    +0.000 A 
ATOM     17  C   UNL     1     114.241 126.630 136.626  0.00  0.00    +0.000 A 
ATOM     18  C   UNL     1     113.553 126.796 137.346  0.00  0.00    +0.000 A 
ATOM     19  O   UNL     1     115.338 125.549 135.844  0.00  0.00    +0.000 OA
ENDBRANCH   8  13
BRANCH   1  20
ATOM     20  O   UNL     1     112.008 127.990 142.629  0.00  0.00    +0.000 OA
BRANCH  20  26
ATOM     21  C   UNL     1     111.094 131.109 141.443  0.00  0.00    +0.000 C 
ATOM     22  C   UNL     1     111.237 130.485 142.201  0.00  0.00    +0.000 C 
ATOM     23  C   UNL     1     111.068 130.787 143.144  0.00  0.00    +0.000 C 
ATOM     24  C   UNL     1     111.214 130.156 143.912  0.00  0.00    +0.000 C 
ATOM     25  C   UNL     1     111.527 129.224 143.735  0.00  0.00    +0.000 C 
ATOM     26  C   UNL     1     111.698 128.914 142.799  0.00  0.00    +0.000 C 
ATOM     27  O   UNL     1     111.553 129.545 142.031  0.00  0.00    +0.000 OA
ATOM     28  O   UNL     1     111.672 128.593 144.502  0.00  0.00    +0.000 OA
ATOM     29  O   UNL     1     111.043 130.466 144.848  0.00  0.00    +0.000 OA
ATOM     30  O   UNL     1     110.753 131.728 143.314  0.00  0.00    +0.000 OA
ENDBRANCH  20  26
ENDBRANCH   1  20
BRANCH   9  31
ATOM     31  O   UNL     1     111.402 125.459 137.700  0.00  0.00    +0.000 OA
BRANCH  31  32
ATOM     32  C   UNL     1     110.879 125.933 137.002  0.00  0.00    +0.000 C 
ATOM     33  C   UNL     1     110.622 125.470 136.159  0.00  0.00    +0.000 C 
ATOM     34  C   UNL     1     110.099 125.944 135.461  0.00  0.00    +0.000 C 
ATOM     35  C   UNL     1     109.828 126.887 135.598  0.00  0.00    +0.000 C 
ATOM     36  C   UNL     1     110.079 127.365 136.441  0.00  0.00    +0.000 C 
ATOM     37  O   UNL     1     110.602 126.891 137.139  0.00  0.00    +0.000 OA
ATOM     38  O   UNL     1     109.299 127.366 134.893  0.00  0.00    +0.000 OA
ATOM     39  O   UNL     1     109.848 125.458 134.612  0.00  0.00    +0.000 OA
ATOM     40  O   UNL     1     110.900 124.504 136.017  0.00  0.00    +0.000 OA
BRANCH  36  41
ATOM     41  C   UNL     1     109.808 128.308 136.578  0.00  0.00    +0.000 C 
ATOM     42  O   UNL     1     110.233 128.853 137.304  0.00  0.00    +0.000 OA
ENDBRANCH  36  41
ENDBRANCH  31  32
ENDBRANCH   9  31
TORSDOF 6
ENDMDL
MODEL 6
REMARK VINA RESULT:      -9.2      4.449      7.839
REMARK  Name = 
REMARK  6 active torsions:
REMARK  status: ('A' for Active; 'I' for Inactive)
REMARK    1  A    between atoms: C_6  and  O_8
REMARK    2  A    between atoms: O_8  and  C_9
REMARK    3  A    between atoms: C_16  and  C_32
REMARK    4  A    between atoms: C_17  and  O_20
REMARK    5  A    between atoms: O_20  and  C_21
REMARK    6  A    between atoms: C_25  and  C_27
REMARK                            x       y       z     vdW  Elec       q    Type
REMARK                         _______ _______ _______ _____ _____    ______ ____
ROOT
ATOM      1  C   UNL     1     109.060 128.072 140.892  0.00  0.00    +0.000 A 
ATOM      2  C   UNL     1     109.396 127.197 141.252  0.00  0.00    +0.000 A 
ATOM      3  C   UNL     1     110.254 126.810 140.925  0.00  0.00    +0.000 A 
ATOM      4  C   UNL     1     110.772 127.307 140.235  0.00  0.00    +0.000 A 
ATOM      5  C   UNL     1     110.435 128.182 139.875  0.00  0.00    +0.000 A 
ATOM      6  C   UNL     1     109.582 128.559 140.206  0.00  0.00    +0.000 A 
ATOM      7  O   UNL     1     110.976 128.671 139.175  0.00  0.00    +0.000 OA
ATOM      8  C   UNL     1     111.829 128.294 138.844  0.00  0.00    +0.000 A 
ATOM      9  C   UNL     1     112.165 127.419 139.204  0.00  0.00    +0.000 A 
ATOM     10  C   UNL     1     111.647 126.922 139.894  0.00  0.00    +0.000 A 
ATOM     11  O   UNL     1     111.980 126.057 140.249  0.00  0.00    +0.000 OA
ATOM     12  O   UNL     1     110.586 125.945 141.280  0.00  0.00    +0.000 OA
ENDROOT
BRANCH   8  13
ATOM     13  C   UNL     1     112.360 128.783 138.151  0.00  0.00    +0.000 A 
ATOM     14  C   UNL     1     112.058 128.772 137.194  0.00  0.00    +0.000 A 
ATOM     15  C   UNL     1     112.580 129.254 136.504  0.00  0.00    +0.000 A 
ATOM     16  C   UNL     1     113.418 129.758 136.754  0.00  0.00    +0.000 A 
ATOM     17  C   UNL     1     113.720 129.768 137.711  0.00  0.00    +0.000 A 
ATOM     18  C   UNL     1     113.181 129.274 138.407  0.00  0.00    +0.000 A 
ATOM     19  O   UNL     1     113.939 130.240 136.064  0.00  0.00    +0.000 OA
ENDBRANCH   8  13
BRANCH   1  20
ATOM     20  O   UNL     1     108.188 128.447 141.237  0.00  0.00    +0.000 OA
BRANCH  20  26
ATOM     21  C   UNL     1     109.315 130.019 144.105  0.00  0.00    +0.000 C 
ATOM     22  C   UNL     1     108.751 130.020 143.290  0.00  0.00    +0.000 C 
ATOM     23  C   UNL     1     108.170 130.812 143.075  0.00  0.00    +0.000 C 
ATOM     24  C   UNL     1     107.599 130.813 142.250  0.00  0.00    +0.000 C 
ATOM     25  C   UNL     1     107.608 130.021 141.639  0.00  0.00    +0.000 C 
ATOM     26  C   UNL     1     108.183 129.228 141.844  0.00  0.00    +0.000 C 
ATOM     27  O   UNL     1     108.754 129.227 142.670  0.00  0.00    +0.000 OA
ATOM     28  O   UNL     1     107.037 130.022 140.814  0.00  0.00    +0.000 OA
ATOM     29  O   UNL     1     107.025 131.606 142.045  0.00  0.00    +0.000 OA
ATOM     30  O   UNL     1     108.167 131.605 143.695  0.00  0.00    +0.000 OA
ENDBRANCH  20  26
ENDBRANCH   1  20
BRANCH   9  31
ATOM     31  O   UNL     1     113.032 127.033 138.870  0.00  0.00    +0.000 OA
BRANCH  31  32
ATOM     32  C   UNL     1     113.030 126.243 138.271  0.00  0.00    +0.000 C 
ATOM     33  C   UNL     1     113.860 125.712 138.126  0.00  0.00    +0.000 C 
ATOM     34  C   UNL     1     113.858 124.921 137.527  0.00  0.00    +0.000 C 
ATOM     35  C   UNL     1     113.024 124.651 137.064  0.00  0.00    +0.000 C 
ATOM     36  C   UNL     1     112.182 125.175 137.200  0.00  0.00    +0.000 C 
ATOM     37  O   UNL     1     112.185 125.966 137.799  0.00  0.00    +0.000 OA
ATOM     38  O   UNL     1     113.022 123.852 136.458  0.00  0.00    +0.000 OA
ATOM     39  O   UNL     1     114.710 124.396 137.393  0.00  0.00    +0.000 OA
ATOM     40  O   UNL     1     114.715 125.988 138.599  0.00  0.00    +0.000 OA
BRANCH  36  41
ATOM     41  C   UNL     1     111.349 124.905 136.737  0.00  0.00    +0.000 C 
ATOM     42  O   UNL     1     110.548 125.509 136.750  0.00  0.00    +0.000 OA
ENDBRANCH  36  41
ENDBRANCH  31  32
ENDBRANCH   9  31
TORSDOF 6
ENDMDL
MODEL 7
REMARK VINA RESULT:      -9.2      4.651      8.396
REMARK  Name = 
REMARK  6 active torsions:
REMARK  status: ('A' for Active; 'I' for Inactive)
REMARK    1  A    between atoms: C_6  and  O_8
REMARK    2  A    between atoms: O_8  and  C_9
REMARK    3  A    between atoms: C_16  and  C_32
REMARK    4  A    between atoms: C_17  and  O_20
REMARK    5  A    between atoms: O_20  and  C_21
REMARK    6  A    between atoms: C_25  and  C_27
REMARK                            x       y       z     vdW  Elec       q    Type
REMARK                         _______ _______ _______ _____ _____    ______ ____
ROOT
ATOM      1  C   UNL     1     109.522 127.346 141.120  0.00  0.00    +0.000 A 
ATOM      2  C   UNL     1     109.175 128.121 140.584  0.00  0.00    +0.000 A 
ATOM      3  C   UNL     1     109.584 128.354 139.707  0.00  0.00    +0.000 A 
ATOM      4  C   UNL     1     110.344 127.805 139.371  0.00  0.00    +0.000 A 
ATOM      5  C   UNL     1     110.691 127.031 139.907  0.00  0.00    +0.000 A 
ATOM      6  C   UNL     1     110.278 126.806 140.778  0.00  0.00    +0.000 A 
ATOM      7  O   UNL     1     111.463 126.486 139.550  0.00  0.00    +0.000 OA
ATOM      8  C   UNL     1     111.877 126.711 138.678  0.00  0.00    +0.000 A 
ATOM      9  C   UNL     1     111.530 127.486 138.142  0.00  0.00    +0.000 A 
ATOM     10  C   UNL     1     110.770 128.034 138.478  0.00  0.00    +0.000 A 
ATOM     11  O   UNL     1     110.427 128.800 137.948  0.00  0.00    +0.000 OA
ATOM     12  O   UNL     1     109.241 129.119 139.177  0.00  0.00    +0.000 OA
ENDROOT
BRANCH   8  13
ATOM     13  C   UNL     1     112.641 126.168 138.329  0.00  0.00    +0.000 A 
ATOM     14  C   UNL     1     113.560 126.298 138.712  0.00  0.00    +0.000 A 
ATOM     15  C   UNL     1     114.320 125.763 138.370  0.00  0.00    +0.000 A 
ATOM     16  C   UNL     1     114.180 125.086 137.635  0.00  0.00    +0.000 A 
ATOM     17  C   UNL     1     113.261 124.957 137.251  0.00  0.00    +0.000 A 
ATOM     18  C   UNL     1     112.493 125.506 137.607  0.00  0.00    +0.000 A 
ATOM     19  O   UNL     1     114.940 124.552 137.292  0.00  0.00    +0.000 OA
ENDBRANCH   8  13
BRANCH   1  20
ATOM     20  O   UNL     1     109.093 127.125 142.007  0.00  0.00    +0.000 OA
BRANCH  20  26
ATOM     21  C   UNL     1     106.846 124.762 140.850  0.00  0.00    +0.000 C 
ATOM     22  C   UNL     1     107.066 125.514 141.459  0.00  0.00    +0.000 C 
ATOM     23  C   UNL     1     106.382 125.853 142.113  0.00  0.00    +0.000 C 
ATOM     24  C   UNL     1     106.605 126.615 142.728  0.00  0.00    +0.000 C 
ATOM     25  C   UNL     1     107.511 127.036 142.689  0.00  0.00    +0.000 C 
ATOM     26  C   UNL     1     108.198 126.705 142.042  0.00  0.00    +0.000 C 
ATOM     27  O   UNL     1     107.975 125.944 141.426  0.00  0.00    +0.000 OA
ATOM     28  O   UNL     1     107.733 127.797 143.305  0.00  0.00    +0.000 OA
ATOM     29  O   UNL     1     105.918 126.945 143.376  0.00  0.00    +0.000 OA
ATOM     30  O   UNL     1     105.473 125.424 142.146  0.00  0.00    +0.000 OA
ENDBRANCH  20  26
ENDBRANCH   1  20
BRANCH   9  31
ATOM     31  O   UNL     1     111.947 127.717 137.257  0.00  0.00    +0.000 OA
BRANCH  31  32
ATOM     32  C   UNL     1     112.519 128.523 137.169  0.00  0.00    +0.000 C 
ATOM     33  C   UNL     1     112.829 128.831 136.273  0.00  0.00    +0.000 C 
ATOM     34  C   UNL     1     113.400 129.637 136.186  0.00  0.00    +0.000 C 
ATOM     35  C   UNL     1     113.669 130.146 136.992  0.00  0.00    +0.000 C 
ATOM     36  C   UNL     1     113.365 129.848 137.898  0.00  0.00    +0.000 C 
ATOM     37  O   UNL     1     112.794 129.042 137.986  0.00  0.00    +0.000 OA
ATOM     38  O   UNL     1     114.247 130.961 136.903  0.00  0.00    +0.000 OA
ATOM     39  O   UNL     1     113.704 129.933 135.269  0.00  0.00    +0.000 OA
ATOM     40  O   UNL     1     112.554 128.310 135.446  0.00  0.00    +0.000 OA
BRANCH  36  41
ATOM     41  C   UNL     1     113.634 130.357 138.705  0.00  0.00    +0.000 C 
ATOM     42  O   UNL     1     112.953 130.589 139.404  0.00  0.00    +0.000 OA
ENDBRANCH  36  41
ENDBRANCH  31  32
ENDBRANCH   9  31
TORSDOF 6
ENDMDL
MODEL 8
REMARK VINA RESULT:      -9.2      2.361      6.516
REMARK  Name = 
REMARK  6 active torsions:
REMARK  status: ('A' for Active; 'I' for Inactive)
REMARK    1  A    between atoms: C_6  and  O_8
REMARK    2  A    between atoms: O_8  and  C_9
REMARK    3  A    between atoms: C_16  and  C_32
REMARK    4  A    between atoms: C_17  and  O_20
REMARK    5  A    between atoms: O_20  and  C_21
REMARK    6  A    between atoms: C_25  and  C_27
REMARK                            x       y       z     vdW  Elec       q    Type
REMARK                         _______ _______ _______ _____ _____    ______ ____
ROOT
ATOM      1  C   UNL     1     105.537 128.403 146.773  0.00  0.00    +0.000 A 
ATOM      2  C   UNL     1     106.341 129.005 146.793  0.00  0.00    +0.000 A 
ATOM      3  C   UNL     1     106.611 129.517 145.982  0.00  0.00    +0.000 A 
ATOM      4  C   UNL     1     106.070 129.421 145.152  0.00  0.00    +0.000 A 
ATOM      5  C   UNL     1     105.266 128.819 145.132  0.00  0.00    +0.000 A 
ATOM      6  C   UNL     1     105.005 128.313 145.943  0.00  0.00    +0.000 A 
ATOM      7  O   UNL     1     104.730 128.735 144.280  0.00  0.00    +0.000 OA
ATOM      8  C   UNL     1     104.991 129.240 143.470  0.00  0.00    +0.000 A 
ATOM      9  C   UNL     1     105.795 129.842 143.490  0.00  0.00    +0.000 A 
ATOM     10  C   UNL     1     106.336 129.938 144.320  0.00  0.00    +0.000 A 
ATOM     11  O   UNL     1     107.130 130.533 144.339  0.00  0.00    +0.000 OA
ATOM     12  O   UNL     1     107.405 130.111 146.002  0.00  0.00    +0.000 OA
ENDROOT
BRANCH   8  13
ATOM     13  C   UNL     1     104.457 129.154 142.628  0.00  0.00    +0.000 A 
ATOM     14  C   UNL     1     103.791 129.865 142.387  0.00  0.00    +0.000 A 
ATOM     15  C   UNL     1     103.259 129.785 141.555  0.00  0.00    +0.000 A 
ATOM     16  C   UNL     1     103.381 128.991 140.944  0.00  0.00    +0.000 A 
ATOM     17  C   UNL     1     104.047 128.280 141.186  0.00  0.00    +0.000 A 
ATOM     18  C   UNL     1     104.584 128.371 142.036  0.00  0.00    +0.000 A 
ATOM     19  O   UNL     1     102.849 128.910 140.112  0.00  0.00    +0.000 OA
ENDBRANCH   8  13
BRANCH   1  20
ATOM     20  O   UNL     1     105.280 127.892 147.605  0.00  0.00    +0.000 OA
BRANCH  20  26
ATOM     21  C   UNL     1     107.716 125.445 147.382  0.00  0.00    +0.000 C 
ATOM     22  C   UNL     1     106.790 125.719 147.613  0.00  0.00    +0.000 C 
ATOM     23  C   UNL     1     106.136 125.044 147.969  0.00  0.00    +0.000 C 
ATOM     24  C   UNL     1     105.200 125.322 148.203  0.00  0.00    +0.000 C 
ATOM     25  C   UNL     1     104.919 126.273 148.079  0.00  0.00    +0.000 C 
ATOM     26  C   UNL     1     105.563 126.952 147.725  0.00  0.00    +0.000 C 
ATOM     27  O   UNL     1     106.500 126.674 147.492  0.00  0.00    +0.000 OA
ATOM     28  O   UNL     1     103.982 126.550 148.313  0.00  0.00    +0.000 OA
ATOM     29  O   UNL     1     104.555 124.643 148.557  0.00  0.00    +0.000 OA
ATOM     30  O   UNL     1     106.427 124.089 148.090  0.00  0.00    +0.000 OA
ENDBRANCH  20  26
ENDBRANCH   1  20
BRANCH   9  31
ATOM     31  O   UNL     1     106.063 130.357 142.668  0.00  0.00    +0.000 OA
BRANCH  31  32
ATOM     32  C   UNL     1     106.852 130.076 142.137  0.00  0.00    +0.000 C 
ATOM     33  C   UNL     1     107.175 130.630 141.375  0.00  0.00    +0.000 C 
ATOM     34  C   UNL     1     107.965 130.348 140.844  0.00  0.00    +0.000 C 
ATOM     35  C   UNL     1     108.441 129.509 141.068  0.00  0.00    +0.000 C 
ATOM     36  C   UNL     1     108.127 128.942 141.831  0.00  0.00    +0.000 C 
ATOM     37  O   UNL     1     107.338 129.224 142.362  0.00  0.00    +0.000 OA
ATOM     38  O   UNL     1     109.239 129.224 140.531  0.00  0.00    +0.000 OA
ATOM     39  O   UNL     1     108.277 130.923 140.075  0.00  0.00    +0.000 OA
ATOM     40  O   UNL     1     106.688 131.490 141.144  0.00  0.00    +0.000 OA
BRANCH  36  41
ATOM     41  C   UNL     1     108.604 128.103 142.056  0.00  0.00    +0.000 C 
ATOM     42  O   UNL     1     108.277 127.525 142.808  0.00  0.00    +0.000 OA
ENDBRANCH  36  41
ENDBRANCH  31  32
ENDBRANCH   9  31
TORSDOF 6
ENDMDL
MODEL 9
REMARK VINA RESULT:      -9.1      4.871      7.706
REMARK  Name = 
REMARK  6 active torsions:
REMARK  status: ('A' for Active; 'I' for Inactive)
REMARK    1  A    between atoms: C_6  and  O_8
REMARK    2  A    between atoms: O_8  and  C_9
REMARK    3  A    between atoms: C_16  and  C_32
REMARK    4  A    between atoms: C_17  and  O_20
REMARK    5  A    between atoms: O_20  and  C_21
REMARK    6  A    between atoms: C_25  and  C_27
REMARK                            x       y       z     vdW  Elec       q    Type
REMARK                         _______ _______ _______ _____ _____    ______ ____
ROOT
ATOM      1  C   UNL     1     111.759 131.465 144.914  0.00  0.00    +0.000 A 
ATOM      2  C   UNL     1     111.560 130.579 145.342  0.00  0.00    +0.000 A 
ATOM      3  C   UNL     1     111.513 129.750 144.793  0.00  0.00    +0.000 A 
ATOM      4  C   UNL     1     111.667 129.816 143.811  0.00  0.00    +0.000 A 
ATOM      5  C   UNL     1     111.866 130.702 143.383  0.00  0.00    +0.000 A 
ATOM      6  C   UNL     1     111.911 131.522 143.937  0.00  0.00    +0.000 A 
ATOM      7  O   UNL     1     112.020 130.748 142.386  0.00  0.00    +0.000 OA
ATOM      8  C   UNL     1     111.975 129.929 141.832  0.00  0.00    +0.000 A 
ATOM      9  C   UNL     1     111.776 129.043 142.260  0.00  0.00    +0.000 A 
ATOM     10  C   UNL     1     111.621 128.977 143.241  0.00  0.00    +0.000 A 
ATOM     11  O   UNL     1     111.425 128.101 143.664  0.00  0.00    +0.000 OA
ATOM     12  O   UNL     1     111.316 128.875 145.215  0.00  0.00    +0.000 OA
ENDROOT
BRANCH   8  13
ATOM     13  C   UNL     1     112.127 129.980 140.844  0.00  0.00    +0.000 A 
ATOM     14  C   UNL     1     111.416 130.366 140.250  0.00  0.00    +0.000 A 
ATOM     15  C   UNL     1     111.562 130.419 139.272  0.00  0.00    +0.000 A 
ATOM     16  C   UNL     1     112.423 130.087 138.864  0.00  0.00    +0.000 A 
ATOM     17  C   UNL     1     113.134 129.701 139.458  0.00  0.00    +0.000 A 
ATOM     18  C   UNL     1     112.976 129.651 140.453  0.00  0.00    +0.000 A 
ATOM     19  O   UNL     1     112.569 130.139 137.886  0.00  0.00    +0.000 OA
ENDBRANCH   8  13
BRANCH   1  20
ATOM     20  O   UNL     1     111.802 132.295 145.489  0.00  0.00    +0.000 OA
BRANCH  20  26
ATOM     21  C   UNL     1     108.395 132.897 145.464  0.00  0.00    +0.000 C 
ATOM     22  C   UNL     1     109.273 132.943 145.924  0.00  0.00    +0.000 C 
ATOM     23  C   UNL     1     109.343 133.337 146.845  0.00  0.00    +0.000 C 
ATOM     24  C   UNL     1     110.231 133.383 147.311  0.00  0.00    +0.000 C 
ATOM     25  C   UNL     1     111.049 133.034 146.854  0.00  0.00    +0.000 C 
ATOM     26  C   UNL     1     110.990 132.639 145.936  0.00  0.00    +0.000 C 
ATOM     27  O   UNL     1     110.101 132.593 145.471  0.00  0.00    +0.000 OA
ATOM     28  O   UNL     1     111.938 133.079 147.319  0.00  0.00    +0.000 OA
ATOM     29  O   UNL     1     110.291 133.777 148.228  0.00  0.00    +0.000 OA
ATOM     30  O   UNL     1     108.515 133.686 147.298  0.00  0.00    +0.000 OA
ENDBRANCH  20  26
ENDBRANCH   1  20
BRANCH   9  31
ATOM     31  O   UNL     1     111.729 128.208 141.699  0.00  0.00    +0.000 OA
BRANCH  31  32
ATOM     32  C   UNL     1     110.857 127.769 141.528  0.00  0.00    +0.000 C 
ATOM     33  C   UNL     1     110.816 126.821 141.224  0.00  0.00    +0.000 C 
ATOM     34  C   UNL     1     109.944 126.381 141.053  0.00  0.00    +0.000 C 
ATOM     35  C   UNL     1     109.100 126.884 141.184  0.00  0.00    +0.000 C 
ATOM     36  C   UNL     1     109.125 127.837 141.489  0.00  0.00    +0.000 C 
ATOM     37  O   UNL     1     109.998 128.277 141.660  0.00  0.00    +0.000 OA
ATOM     38  O   UNL     1     108.218 126.439 141.011  0.00  0.00    +0.000 OA
ATOM     39  O   UNL     1     109.923 125.420 140.746  0.00  0.00    +0.000 OA
ATOM     40  O   UNL     1     111.680 126.305 141.090  0.00  0.00    +0.000 OA
BRANCH  36  41
ATOM     41  C   UNL     1     108.281 128.340 141.620  0.00  0.00    +0.000 C 
ATOM     42  O   UNL     1     108.307 129.319 141.835  0.00  0.00    +0.000 OA
ENDBRANCH  36  41
ENDBRANCH  31  32
ENDBRANCH   9  31
TORSDOF 6
ENDMDL
MODEL 10
REMARK VINA RESULT:      -9.1      6.422      9.267
REMARK  Name = 
REMARK  6 active torsions:
REMARK  status: ('A' for Active; 'I' for Inactive)
REMARK    1  A    between atoms: C_6  and  O_8
REMARK    2  A    between atoms: O_8  and  C_9
REMARK    3  A    between atoms: C_16  and  C_32
REMARK    4  A    between atoms: C_17  and  O_20
REMARK    5  A    between atoms: O_20  and  C_21
REMARK    6  A    between atoms: C_25  and  C_27
REMARK                            x       y       z     vdW  Elec       q    Type
REMARK                         _______ _______ _______ _____ _____    ______ ____
ROOT
ATOM      1  C   UNL     1     111.886 128.925 141.295  0.00  0.00    +0.000 A 
ATOM      2  C   UNL     1     110.918 128.776 141.077  0.00  0.00    +0.000 A 
ATOM      3  C   UNL     1     110.591 128.854 140.139  0.00  0.00    +0.000 A 
ATOM      4  C   UNL     1     111.244 129.082 139.422  0.00  0.00    +0.000 A 
ATOM      5  C   UNL     1     112.212 129.230 139.640  0.00  0.00    +0.000 A 
ATOM      6  C   UNL     1     112.528 129.151 140.575  0.00  0.00    +0.000 A 
ATOM      7  O   UNL     1     112.858 129.461 138.898  0.00  0.00    +0.000 OA
ATOM      8  C   UNL     1     112.543 129.540 137.963  0.00  0.00    +0.000 A 
ATOM      9  C   UNL     1     111.574 129.391 137.745  0.00  0.00    +0.000 A 
ATOM     10  C   UNL     1     110.922 129.163 138.462  0.00  0.00    +0.000 A 
ATOM     11  O   UNL     1     109.965 129.016 138.246  0.00  0.00    +0.000 OA
ATOM     12  O   UNL     1     109.634 128.707 139.923  0.00  0.00    +0.000 OA
ENDROOT
BRANCH   8  13
ATOM     13  C   UNL     1     113.186 129.768 137.232  0.00  0.00    +0.000 A 
ATOM     14  C   UNL     1     113.473 129.059 136.582  0.00  0.00    +0.000 A 
ATOM     15  C   UNL     1     114.110 129.279 135.857  0.00  0.00    +0.000 A 
ATOM     16  C   UNL     1     114.476 130.215 135.763  0.00  0.00    +0.000 A 
ATOM     17  C   UNL     1     114.189 130.924 136.413  0.00  0.00    +0.000 A 
ATOM     18  C   UNL     1     113.540 130.689 137.149  0.00  0.00    +0.000 A 
ATOM     19  O   UNL     1     115.113 130.435 135.037  0.00  0.00    +0.000 OA
ENDBRANCH   8  13
BRANCH   1  20
ATOM     20  O   UNL     1     112.197 128.841 142.252  0.00  0.00    +0.000 OA
BRANCH  20  26
ATOM     21  C   UNL     1     112.144 132.202 143.073  0.00  0.00    +0.000 C 
ATOM     22  C   UNL     1     111.984 131.254 143.319  0.00  0.00    +0.000 C 
ATOM     23  C   UNL     1     111.633 131.019 144.231  0.00  0.00    +0.000 C 
ATOM     24  C   UNL     1     111.472 130.059 144.479  0.00  0.00    +0.000 C 
ATOM     25  C   UNL     1     111.662 129.336 143.815  0.00  0.00    +0.000 C 
ATOM     26  C   UNL     1     112.011 129.561 142.905  0.00  0.00    +0.000 C 
ATOM     27  O   UNL     1     112.173 130.520 142.657  0.00  0.00    +0.000 OA
ATOM     28  O   UNL     1     111.500 128.377 144.064  0.00  0.00    +0.000 OA
ATOM     29  O   UNL     1     111.122 129.835 145.389  0.00  0.00    +0.000 OA
ATOM     30  O   UNL     1     111.445 131.753 144.893  0.00  0.00    +0.000 OA
ENDBRANCH  20  26
ENDBRANCH   1  20
BRANCH   9  31
ATOM     31  O   UNL     1     111.250 129.471 136.796  0.00  0.00    +0.000 OA
BRANCH  31  32
ATOM     32  C   UNL     1     110.668 130.228 136.528  0.00  0.00    +0.000 C 
ATOM     33  C   UNL     1     110.101 130.169 135.711  0.00  0.00    +0.000 C 
ATOM     34  C   UNL     1     109.518 130.926 135.444  0.00  0.00    +0.000 C 
ATOM     35  C   UNL     1     109.496 131.753 135.989  0.00  0.00    +0.000 C 
ATOM     36  C   UNL     1     110.060 131.826 136.813  0.00  0.00    +0.000 C 
ATOM     37  O   UNL     1     110.642 131.069 137.081  0.00  0.00    +0.000 OA
ATOM     38  O   UNL     1     108.907 132.518 135.719  0.00  0.00    +0.000 OA
ATOM     39  O   UNL     1     108.951 130.847 134.612  0.00  0.00    +0.000 OA
ATOM     40  O   UNL     1     110.123 129.323 135.151  0.00  0.00    +0.000 OA
BRANCH  36  41
ATOM     41  C   UNL     1     110.037 132.653 137.359  0.00  0.00    +0.000 C 
ATOM     42  O   UNL     1     110.514 132.687 138.241  0.00  0.00    +0.000 OA
ENDBRANCH  36  41
ENDBRANCH  31  32
ENDBRANCH   9  31
TORSDOF 6
ENDMDL
