MODEL 1
REMARK VINA RESULT:      -9.4      0.000      0.000
REMARK  Name = 90657201
REMARK  5 active torsions:
REMARK  status: ('A' for Active; 'I' for Inactive)
REMARK    1  A    between atoms: O_2  and  C_16
REMARK    2  A    between atoms: O_2  and  C_18
REMARK    3  A    between atoms: O_11  and  C_32
REMARK    4  A    between atoms: C_15  and  C_17
REMARK    5  A    between atoms: C_25  and  C_27
REMARK                            x       y       z     vdW  Elec       q    Type
REMARK                         _______ _______ _______ _____ _____    ______ ____
ROOT
ATOM      1  O   UNL     1     104.968 124.465 139.594  0.00  0.00    +0.000 OA
ATOM      2  O   UNL     1     105.636 123.676 142.292  0.00  0.00    +0.000 OA
ATOM      3  O   UNL     1     103.755 122.740 140.158  0.00  0.00    +0.000 OA
ATOM      4  O   UNL     1     104.638 122.963 141.534  0.00  0.00    +0.000 OA
ATOM      5  C   UNL     1     106.443 125.340 141.028  0.00  0.00    +0.000 A 
ATOM      6  C   UNL     1     105.980 125.218 140.313  0.00  0.00    +0.000 A 
ATOM      7  C   UNL     1     106.328 124.818 141.700  0.00  0.00    +0.000 A 
ATOM      8  C   UNL     1     105.409 124.577 140.282  0.00  0.00    +0.000 A 
ATOM      9  C   UNL     1     105.299 124.076 140.929  0.00  0.00    +0.000 A 
ATOM     10  C   UNL     1     105.753 124.182 141.651  0.00  0.00    +0.000 A 
ATOM     11  C   UNL     1     104.748 123.464 140.888  0.00  0.00    +0.000 A 
ATOM     12  C   UNL     1     104.416 123.853 139.553  0.00  0.00    +0.000 A 
ATOM     13  C   UNL     1     104.307 123.352 140.200  0.00  0.00    +0.000 A 
ENDROOT
BRANCH  12  14
ATOM     14  C   UNL     1     103.975 123.741 138.865  0.00  0.00    +0.000 A 
ATOM     15  C   UNL     1     104.324 123.395 138.202  0.00  0.00    +0.000 A 
ATOM     16  C   UNL     1     103.184 123.975 138.841  0.00  0.00    +0.000 A 
ATOM     17  C   UNL     1     103.882 123.284 137.515  0.00  0.00    +0.000 A 
ATOM     18  C   UNL     1     102.742 123.863 138.153  0.00  0.00    +0.000 A 
ATOM     19  C   UNL     1     103.092 123.517 137.490  0.00  0.00    +0.000 A 
BRANCH  19  20
ATOM     20  O   UNL     1     102.650 123.405 136.802  0.00  0.00    +0.000 OA
ATOM     21  C   UNL     1     102.975 122.993 136.165  0.00  0.00    +0.000 C 
ENDBRANCH  19  20
ENDBRANCH  12  14
BRANCH   5  22
ATOM     22  O   UNL     1     106.994 125.953 141.066  0.00  0.00    +0.000 OA
BRANCH  22  31
ATOM     23  O   UNL     1     106.147 127.009 141.525  0.00  0.00    +0.000 OA
ATOM     24  O   UNL     1     107.886 127.701 143.144  0.00  0.00    +0.000 OA
ATOM     25  O   UNL     1     106.460 128.525 143.062  0.00  0.00    +0.000 OA
ATOM     26  O   UNL     1     108.153 126.414 142.146  0.00  0.00    +0.000 OA
ATOM     27  C   UNL     1     107.307 127.470 142.604  0.00  0.00    +0.000 C 
ATOM     28  C   UNL     1     106.593 127.882 142.563  0.00  0.00    +0.000 C 
ATOM     29  C   UNL     1     107.440 126.826 142.104  0.00  0.00    +0.000 C 
ATOM     30  C   UNL     1     106.013 127.652 142.023  0.00  0.00    +0.000 C 
ATOM     31  C   UNL     1     106.860 126.596 141.565  0.00  0.00    +0.000 C 
BRANCH  30  33
ATOM     32  O   UNL     1     105.027 128.347 141.257  0.00  0.00    +0.000 OA
ATOM     33  C   UNL     1     105.301 128.064 141.983  0.00  0.00    +0.000 C 
ENDBRANCH  30  33
ENDBRANCH  22  31
ENDBRANCH   5  22
TORSDOF 5
ENDMDL
MODEL 2
REMARK VINA RESULT:      -9.3      6.889      7.922
REMARK  Name = 90657201
REMARK  5 active torsions:
REMARK  status: ('A' for Active; 'I' for Inactive)
REMARK    1  A    between atoms: O_2  and  C_16
REMARK    2  A    between atoms: O_2  and  C_18
REMARK    3  A    between atoms: O_11  and  C_32
REMARK    4  A    between atoms: C_15  and  C_17
REMARK    5  A    between atoms: C_25  and  C_27
REMARK                            x       y       z     vdW  Elec       q    Type
REMARK                         _______ _______ _______ _____ _____    ______ ____
ROOT
ATOM      1  O   UNL     1     110.266 128.220 135.962  0.00  0.00    +0.000 OA
ATOM      2  O   UNL     1     107.865 129.824 135.858  0.00  0.00    +0.000 OA
ATOM      3  O   UNL     1     108.536 126.908 135.734  0.00  0.00    +0.000 OA
ATOM      4  O   UNL     1     107.804 128.386 135.764  0.00  0.00    +0.000 OA
ATOM      5  C   UNL     1     110.009 130.437 136.078  0.00  0.00    +0.000 A 
ATOM      6  C   UNL     1     110.384 129.664 136.061  0.00  0.00    +0.000 A 
ATOM      7  C   UNL     1     109.154 130.494 136.009  0.00  0.00    +0.000 A 
ATOM      8  C   UNL     1     109.900 128.959 135.977  0.00  0.00    +0.000 A 
ATOM      9  C   UNL     1     109.080 129.015 135.911  0.00  0.00    +0.000 A 
ATOM     10  C   UNL     1     108.687 129.779 135.925  0.00  0.00    +0.000 A 
ATOM     11  C   UNL     1     108.625 128.331 135.830  0.00  0.00    +0.000 A 
ATOM     12  C   UNL     1     109.811 127.536 135.881  0.00  0.00    +0.000 A 
ATOM     13  C   UNL     1     108.991 127.592 135.815  0.00  0.00    +0.000 A 
ENDROOT
BRANCH  12  14
ATOM     14  C   UNL     1     110.177 126.797 135.866  0.00  0.00    +0.000 A 
ATOM     15  C   UNL     1     110.362 126.443 135.144  0.00  0.00    +0.000 A 
ATOM     16  C   UNL     1     110.358 126.412 136.574  0.00  0.00    +0.000 A 
ATOM     17  C   UNL     1     110.728 125.704 135.130  0.00  0.00    +0.000 A 
ATOM     18  C   UNL     1     110.724 125.673 136.559  0.00  0.00    +0.000 A 
ATOM     19  C   UNL     1     110.909 125.319 135.837  0.00  0.00    +0.000 A 
BRANCH  19  20
ATOM     20  O   UNL     1     111.275 124.579 135.822  0.00  0.00    +0.000 OA
ATOM     21  C   UNL     1     111.690 124.311 136.483  0.00  0.00    +0.000 C 
ENDBRANCH  19  20
ENDBRANCH  12  14
BRANCH   5  22
ATOM     22  O   UNL     1     110.466 131.120 136.158  0.00  0.00    +0.000 OA
BRANCH  22  31
ATOM     23  O   UNL     1     110.507 131.179 137.586  0.00  0.00    +0.000 OA
ATOM     24  O   UNL     1     110.184 133.631 137.493  0.00  0.00    +0.000 OA
ATOM     25  O   UNL     1     110.332 132.873 138.950  0.00  0.00    +0.000 OA
ATOM     26  O   UNL     1     110.251 132.754 136.097  0.00  0.00    +0.000 OA
ATOM     27  C   UNL     1     110.292 132.814 137.524  0.00  0.00    +0.000 C 
ATOM     28  C   UNL     1     110.366 132.434 138.252  0.00  0.00    +0.000 C 
ATOM     29  C   UNL     1     110.325 132.375 136.825  0.00  0.00    +0.000 C 
ATOM     30  C   UNL     1     110.473 131.617 138.283  0.00  0.00    +0.000 C 
ATOM     31  C   UNL     1     110.432 131.557 136.856  0.00  0.00    +0.000 C 
BRANCH  30  33
ATOM     32  O   UNL     1     111.249 130.849 139.206  0.00  0.00    +0.000 OA
ATOM     33  C   UNL     1     110.547 131.238 139.012  0.00  0.00    +0.000 C 
ENDBRANCH  30  33
ENDBRANCH  22  31
ENDBRANCH   5  22
TORSDOF 5
ENDMDL
MODEL 3
REMARK VINA RESULT:      -9.1      3.701      5.355
REMARK  Name = 90657201
REMARK  5 active torsions:
REMARK  status: ('A' for Active; 'I' for Inactive)
REMARK    1  A    between atoms: O_2  and  C_16
REMARK    2  A    between atoms: O_2  and  C_18
REMARK    3  A    between atoms: O_11  and  C_32
REMARK    4  A    between atoms: C_15  and  C_17
REMARK    5  A    between atoms: C_25  and  C_27
REMARK                            x       y       z     vdW  Elec       q    Type
REMARK                         _______ _______ _______ _____ _____    ______ ____
ROOT
ATOM      1  O   UNL     1     104.943 127.728 142.344  0.00  0.00    +0.000 OA
ATOM      2  O   UNL     1     107.827 127.547 142.319  0.00  0.00    +0.000 OA
ATOM      3  O   UNL     1     105.776 129.633 141.678  0.00  0.00    +0.000 OA
ATOM      4  O   UNL     1     107.154 128.762 141.930  0.00  0.00    +0.000 OA
ATOM      5  C   UNL     1     106.284 126.022 142.878  0.00  0.00    +0.000 A 
ATOM      6  C   UNL     1     105.570 126.481 142.745  0.00  0.00    +0.000 A 
ATOM      7  C   UNL     1     107.051 126.381 142.735  0.00  0.00    +0.000 A 
ATOM      8  C   UNL     1     105.632 127.293 142.470  0.00  0.00    +0.000 A 
ATOM      9  C   UNL     1     106.369 127.637 142.332  0.00  0.00    +0.000 A 
ATOM     10  C   UNL     1     107.094 127.194 142.460  0.00  0.00    +0.000 A 
ATOM     11  C   UNL     1     106.417 128.417 142.068  0.00  0.00    +0.000 A 
ATOM     12  C   UNL     1     104.991 128.509 142.080  0.00  0.00    +0.000 A 
ATOM     13  C   UNL     1     105.728 128.853 141.942  0.00  0.00    +0.000 A 
ENDROOT
BRANCH  12  14
ATOM     14  C   UNL     1     104.302 128.944 141.953  0.00  0.00    +0.000 A 
ATOM     15  C   UNL     1     103.903 128.886 141.234  0.00  0.00    +0.000 A 
ATOM     16  C   UNL     1     104.013 129.439 142.547  0.00  0.00    +0.000 A 
ATOM     17  C   UNL     1     103.214 129.321 141.108  0.00  0.00    +0.000 A 
ATOM     18  C   UNL     1     103.324 129.875 142.421  0.00  0.00    +0.000 A 
ATOM     19  C   UNL     1     102.924 129.816 141.702  0.00  0.00    +0.000 A 
BRANCH  19  20
ATOM     20  O   UNL     1     102.235 130.252 141.575  0.00  0.00    +0.000 OA
ATOM     21  C   UNL     1     102.283 131.029 141.302  0.00  0.00    +0.000 C 
ENDBRANCH  19  20
ENDBRANCH  12  14
BRANCH   5  22
ATOM     22  O   UNL     1     106.233 125.242 143.142  0.00  0.00    +0.000 OA
BRANCH  22  31
ATOM     23  O   UNL     1     106.356 125.507 144.541  0.00  0.00    +0.000 OA
ATOM     24  O   UNL     1     104.668 123.761 145.020  0.00  0.00    +0.000 OA
ATOM     25  O   UNL     1     105.353 124.609 146.258  0.00  0.00    +0.000 OA
ATOM     26  O   UNL     1     105.108 124.078 143.462  0.00  0.00    +0.000 OA
ATOM     27  C   UNL     1     105.231 124.343 144.860  0.00  0.00    +0.000 C 
ATOM     28  C   UNL     1     105.573 124.767 145.479  0.00  0.00    +0.000 C 
ATOM     29  C   UNL     1     105.451 124.502 144.081  0.00  0.00    +0.000 C 
ATOM     30  C   UNL     1     106.136 125.349 145.320  0.00  0.00    +0.000 C 
ATOM     31  C   UNL     1     106.013 125.084 143.921  0.00  0.00    +0.000 C 
BRANCH  30  33
ATOM     32  O   UNL     1     107.294 125.742 146.059  0.00  0.00    +0.000 OA
ATOM     33  C   UNL     1     106.478 125.773 145.939  0.00  0.00    +0.000 C 
ENDBRANCH  30  33
ENDBRANCH  22  31
ENDBRANCH   5  22
TORSDOF 5
ENDMDL
MODEL 4
REMARK VINA RESULT:      -9.0      3.913      6.240
REMARK  Name = 90657201
REMARK  5 active torsions:
REMARK  status: ('A' for Active; 'I' for Inactive)
REMARK    1  A    between atoms: O_2  and  C_16
REMARK    2  A    between atoms: O_2  and  C_18
REMARK    3  A    between atoms: O_11  and  C_32
REMARK    4  A    between atoms: C_15  and  C_17
REMARK    5  A    between atoms: C_25  and  C_27
REMARK                            x       y       z     vdW  Elec       q    Type
REMARK                         _______ _______ _______ _____ _____    ______ ____
ROOT
ATOM      1  O   UNL     1     103.303 130.213 142.074  0.00  0.00    +0.000 OA
ATOM      2  O   UNL     1     103.768 127.939 140.354  0.00  0.00    +0.000 OA
ATOM      3  O   UNL     1     102.061 130.399 140.288  0.00  0.00    +0.000 OA
ATOM      4  O   UNL     1     102.834 128.974 139.982  0.00  0.00    +0.000 OA
ATOM      5  C   UNL     1     104.660 128.458 142.342  0.00  0.00    +0.000 A 
ATOM      6  C   UNL     1     104.253 129.200 142.495  0.00  0.00    +0.000 A 
ATOM      7  C   UNL     1     104.497 128.028 141.616  0.00  0.00    +0.000 A 
ATOM      8  C   UNL     1     103.690 129.501 141.921  0.00  0.00    +0.000 A 
ATOM      9  C   UNL     1     103.534 129.088 141.224  0.00  0.00    +0.000 A 
ATOM     10  C   UNL     1     103.930 128.345 141.053  0.00  0.00    +0.000 A 
ATOM     11  C   UNL     1     102.991 129.387 140.680  0.00  0.00    +0.000 A 
ATOM     12  C   UNL     1     102.760 130.513 141.529  0.00  0.00    +0.000 A 
ATOM     13  C   UNL     1     102.604 130.099 140.832  0.00  0.00    +0.000 A 
ENDROOT
BRANCH  12  14
ATOM     14  C   UNL     1     102.373 131.225 141.682  0.00  0.00    +0.000 A 
ATOM     15  C   UNL     1     102.713 131.938 141.446  0.00  0.00    +0.000 A 
ATOM     16  C   UNL     1     101.645 131.223 142.071  0.00  0.00    +0.000 A 
ATOM     17  C   UNL     1     102.326 132.650 141.599  0.00  0.00    +0.000 A 
ATOM     18  C   UNL     1     101.257 131.936 142.223  0.00  0.00    +0.000 A 
ATOM     19  C   UNL     1     101.598 132.649 141.987  0.00  0.00    +0.000 A 
BRANCH  19  20
ATOM     20  O   UNL     1     101.211 133.362 142.140  0.00  0.00    +0.000 OA
ATOM     21  C   UNL     1     101.002 133.859 141.516  0.00  0.00    +0.000 C 
ENDBRANCH  19  20
ENDBRANCH  12  14
BRANCH   5  22
ATOM     22  O   UNL     1     105.203 128.161 142.888  0.00  0.00    +0.000 OA
BRANCH  22  31
ATOM     23  O   UNL     1     106.359 128.774 142.314  0.00  0.00    +0.000 OA
ATOM     24  O   UNL     1     107.708 126.785 142.907  0.00  0.00    +0.000 OA
ATOM     25  O   UNL     1     108.413 128.060 142.136  0.00  0.00    +0.000 OA
ATOM     26  O   UNL     1     106.102 126.835 143.284  0.00  0.00    +0.000 OA
ATOM     27  C   UNL     1     107.258 127.448 142.709  0.00  0.00    +0.000 C 
ATOM     28  C   UNL     1     107.611 128.086 142.323  0.00  0.00    +0.000 C 
ATOM     29  C   UNL     1     106.454 127.473 142.898  0.00  0.00    +0.000 C 
ATOM     30  C   UNL     1     107.161 128.749 142.125  0.00  0.00    +0.000 C 
ATOM     31  C   UNL     1     106.005 128.136 142.700  0.00  0.00    +0.000 C 
BRANCH  30  33
ATOM     32  O   UNL     1     107.275 129.591 140.977  0.00  0.00    +0.000 OA
ATOM     33  C   UNL     1     107.514 129.386 141.740  0.00  0.00    +0.000 C 
ENDBRANCH  30  33
ENDBRANCH  22  31
ENDBRANCH   5  22
TORSDOF 5
ENDMDL
MODEL 5
REMARK VINA RESULT:      -8.9      7.342      8.698
REMARK  Name = 90657201
REMARK  5 active torsions:
REMARK  status: ('A' for Active; 'I' for Inactive)
REMARK    1  A    between atoms: O_2  and  C_16
REMARK    2  A    between atoms: O_2  and  C_18
REMARK    3  A    between atoms: O_11  and  C_32
REMARK    4  A    between atoms: C_15  and  C_17
REMARK    5  A    between atoms: C_25  and  C_27
REMARK                            x       y       z     vdW  Elec       q    Type
REMARK                         _______ _______ _______ _____ _____    ______ ____
ROOT
ATOM      1  O   UNL     1     111.499 127.208 136.152  0.00  0.00    +0.000 OA
ATOM      2  O   UNL     1     113.314 129.402 135.663  0.00  0.00    +0.000 OA
ATOM      3  O   UNL     1     113.530 126.585 136.654  0.00  0.00    +0.000 OA
ATOM      4  O   UNL     1     113.794 128.137 136.163  0.00  0.00    +0.000 OA
ATOM      5  C   UNL     1     111.094 129.270 135.391  0.00  0.00    +0.000 A 
ATOM      6  C   UNL     1     110.963 128.460 135.648  0.00  0.00    +0.000 A 
ATOM      7  C   UNL     1     111.891 129.592 135.395  0.00  0.00    +0.000 A 
ATOM      8  C   UNL     1     111.631 127.984 135.906  0.00  0.00    +0.000 A 
ATOM      9  C   UNL     1     112.395 128.294 135.909  0.00  0.00    +0.000 A 
ATOM     10  C   UNL     1     112.546 129.101 135.656  0.00  0.00    +0.000 A 
ATOM     11  C   UNL     1     113.028 127.828 136.159  0.00  0.00    +0.000 A 
ATOM     12  C   UNL     1     112.132 126.741 136.401  0.00  0.00    +0.000 A 
ATOM     13  C   UNL     1     112.897 127.051 136.405  0.00  0.00    +0.000 A 
ENDROOT
BRANCH  12  14
ATOM     14  C   UNL     1     112.001 125.965 136.647  0.00  0.00    +0.000 A 
ATOM     15  C   UNL     1     111.862 125.802 137.444  0.00  0.00    +0.000 A 
ATOM     16  C   UNL     1     112.008 125.351 136.095  0.00  0.00    +0.000 A 
ATOM     17  C   UNL     1     111.731 125.026 137.689  0.00  0.00    +0.000 A 
ATOM     18  C   UNL     1     111.876 124.575 136.341  0.00  0.00    +0.000 A 
ATOM     19  C   UNL     1     111.738 124.412 137.138  0.00  0.00    +0.000 A 
BRANCH  19  20
ATOM     20  O   UNL     1     111.606 123.636 137.384  0.00  0.00    +0.000 OA
ATOM     21  C   UNL     1     112.139 123.041 137.176  0.00  0.00    +0.000 C 
ENDBRANCH  19  20
ENDBRANCH  12  14
BRANCH   5  22
ATOM     22  O   UNL     1     110.459 129.735 135.142  0.00  0.00    +0.000 OA
BRANCH  22  31
ATOM     23  O   UNL     1     110.208 130.410 136.376  0.00  0.00    +0.000 OA
ATOM     24  O   UNL     1     107.772 130.199 135.996  0.00  0.00    +0.000 OA
ATOM     25  O   UNL     1     108.333 130.945 137.355  0.00  0.00    +0.000 OA
ATOM     26  O   UNL     1     108.835 129.594 134.889  0.00  0.00    +0.000 OA
ATOM     27  C   UNL     1     108.584 130.269 136.122  0.00  0.00    +0.000 C 
ATOM     28  C   UNL     1     108.865 130.642 136.802  0.00  0.00    +0.000 C 
ATOM     29  C   UNL     1     109.116 129.967 135.568  0.00  0.00    +0.000 C 
ATOM     30  C   UNL     1     109.677 130.713 136.929  0.00  0.00    +0.000 C 
ATOM     31  C   UNL     1     109.928 130.037 135.695  0.00  0.00    +0.000 C 
BRANCH  30  33
ATOM     32  O   UNL     1     110.516 131.690 137.548  0.00  0.00    +0.000 OA
ATOM     33  C   UNL     1     109.957 131.086 137.609  0.00  0.00    +0.000 C 
ENDBRANCH  30  33
ENDBRANCH  22  31
ENDBRANCH   5  22
TORSDOF 5
ENDMDL
MODEL 6
REMARK VINA RESULT:      -8.9      3.934      5.908
REMARK  Name = 90657201
REMARK  5 active torsions:
REMARK  status: ('A' for Active; 'I' for Inactive)
REMARK    1  A    between atoms: O_2  and  C_16
REMARK    2  A    between atoms: O_2  and  C_18
REMARK    3  A    between atoms: O_11  and  C_32
REMARK    4  A    between atoms: C_15  and  C_17
REMARK    5  A    between atoms: C_25  and  C_27
REMARK                            x       y       z     vdW  Elec       q    Type
REMARK                         _______ _______ _______ _____ _____    ______ ____
ROOT
ATOM      1  O   UNL     1     104.550 125.354 145.829  0.00  0.00    +0.000 OA
ATOM      2  O   UNL     1     107.293 125.916 146.539  0.00  0.00    +0.000 OA
ATOM      3  O   UNL     1     105.238 123.864 147.268  0.00  0.00    +0.000 OA
ATOM      4  O   UNL     1     106.591 124.795 147.113  0.00  0.00    +0.000 OA
ATOM      5  C   UNL     1     105.912 126.986 145.136  0.00  0.00    +0.000 A 
ATOM      6  C   UNL     1     105.210 126.496 145.222  0.00  0.00    +0.000 A 
ATOM      7  C   UNL     1     106.620 126.791 145.582  0.00  0.00    +0.000 A 
ATOM      8  C   UNL     1     105.226 125.820 145.751  0.00  0.00    +0.000 A 
ATOM      9  C   UNL     1     105.907 125.634 146.179  0.00  0.00    +0.000 A 
ATOM     10  C   UNL     1     106.617 126.111 146.107  0.00  0.00    +0.000 A 
ATOM     11  C   UNL     1     105.910 124.982 146.685  0.00  0.00    +0.000 A 
ATOM     12  C   UNL     1     104.553 124.702 146.334  0.00  0.00    +0.000 A 
ATOM     13  C   UNL     1     105.234 124.516 146.762  0.00  0.00    +0.000 A 
ENDROOT
BRANCH  12  14
ATOM     14  C   UNL     1     103.877 124.237 146.412  0.00  0.00    +0.000 A 
ATOM     15  C   UNL     1     103.770 123.579 145.925  0.00  0.00    +0.000 A 
ATOM     16  C   UNL     1     103.307 124.429 146.978  0.00  0.00    +0.000 A 
ATOM     17  C   UNL     1     103.094 123.114 146.003  0.00  0.00    +0.000 A 
ATOM     18  C   UNL     1     102.630 123.963 147.055  0.00  0.00    +0.000 A 
ATOM     19  C   UNL     1     102.524 123.306 146.568  0.00  0.00    +0.000 A 
BRANCH  19  20
ATOM     20  O   UNL     1     101.847 122.840 146.646  0.00  0.00    +0.000 OA
ATOM     21  C   UNL     1     101.164 123.031 146.224  0.00  0.00    +0.000 C 
ENDBRANCH  19  20
ENDBRANCH  12  14
BRANCH   5  22
ATOM     22  O   UNL     1     105.906 127.637 144.630  0.00  0.00    +0.000 OA
BRANCH  22  31
ATOM     23  O   UNL     1     106.469 127.018 143.472  0.00  0.00    +0.000 OA
ATOM     24  O   UNL     1     104.831 128.199 142.042  0.00  0.00    +0.000 OA
ATOM     25  O   UNL     1     105.941 127.187 141.362  0.00  0.00    +0.000 OA
ATOM     26  O   UNL     1     104.813 128.425 143.677  0.00  0.00    +0.000 OA
ATOM     27  C   UNL     1     105.377 127.805 142.519  0.00  0.00    +0.000 C 
ATOM     28  C   UNL     1     105.932 127.299 142.179  0.00  0.00    +0.000 C 
ATOM     29  C   UNL     1     105.368 127.918 143.337  0.00  0.00    +0.000 C 
ATOM     30  C   UNL     1     106.478 126.905 142.656  0.00  0.00    +0.000 C 
ATOM     31  C   UNL     1     105.915 127.524 143.814  0.00  0.00    +0.000 C 
BRANCH  30  33
ATOM     32  O   UNL     1     107.835 126.488 142.488  0.00  0.00    +0.000 OA
ATOM     33  C   UNL     1     107.033 126.399 142.315  0.00  0.00    +0.000 C 
ENDBRANCH  30  33
ENDBRANCH  22  31
ENDBRANCH   5  22
TORSDOF 5
ENDMDL
MODEL 7
REMARK VINA RESULT:      -8.9      6.778      8.157
REMARK  Name = 90657201
REMARK  5 active torsions:
REMARK  status: ('A' for Active; 'I' for Inactive)
REMARK    1  A    between atoms: O_2  and  C_16
REMARK    2  A    between atoms: O_2  and  C_18
REMARK    3  A    between atoms: O_11  and  C_32
REMARK    4  A    between atoms: C_15  and  C_17
REMARK    5  A    between atoms: C_25  and  C_27
REMARK                            x       y       z     vdW  Elec       q    Type
REMARK                         _______ _______ _______ _____ _____    ______ ____
ROOT
ATOM      1  O   UNL     1     111.594 126.276 136.660  0.00  0.00    +0.000 OA
ATOM      2  O   UNL     1     109.176 126.340 138.239  0.00  0.00    +0.000 OA
ATOM      3  O   UNL     1     111.849 125.003 138.415  0.00  0.00    +0.000 OA
ATOM      4  O   UNL     1     110.311 125.551 138.649  0.00  0.00    +0.000 OA
ATOM      5  C   UNL     1     109.679 127.377 136.318  0.00  0.00    +0.000 A 
ATOM      6  C   UNL     1     110.481 127.087 136.202  0.00  0.00    +0.000 A 
ATOM      7  C   UNL     1     109.235 127.125 137.009  0.00  0.00    +0.000 A 
ATOM      8  C   UNL     1     110.825 126.550 136.777  0.00  0.00    +0.000 A 
ATOM      9  C   UNL     1     110.397 126.309 137.440  0.00  0.00    +0.000 A 
ATOM     10  C   UNL     1     109.596 126.588 137.573  0.00  0.00    +0.000 A 
ATOM     11  C   UNL     1     110.739 125.793 137.986  0.00  0.00    +0.000 A 
ATOM     12  C   UNL     1     111.936 125.760 137.206  0.00  0.00    +0.000 A 
ATOM     13  C   UNL     1     111.508 125.519 137.869  0.00  0.00    +0.000 A 
ENDROOT
BRANCH  12  14
ATOM     14  C   UNL     1     112.705 125.485 137.089  0.00  0.00    +0.000 A 
ATOM     15  C   UNL     1     113.345 125.909 137.392  0.00  0.00    +0.000 A 
ATOM     16  C   UNL     1     112.834 124.787 136.669  0.00  0.00    +0.000 A 
ATOM     17  C   UNL     1     114.113 125.634 137.274  0.00  0.00    +0.000 A 
ATOM     18  C   UNL     1     113.603 124.512 136.552  0.00  0.00    +0.000 A 
ATOM     19  C   UNL     1     114.243 124.936 136.855  0.00  0.00    +0.000 A 
BRANCH  19  20
ATOM     20  O   UNL     1     115.012 124.661 136.738  0.00  0.00    +0.000 OA
ATOM     21  C   UNL     1     115.472 124.971 136.127  0.00  0.00    +0.000 C 
ENDBRANCH  19  20
ENDBRANCH  12  14
BRANCH   5  22
ATOM     22  O   UNL     1     109.341 127.893 135.771  0.00  0.00    +0.000 OA
BRANCH  22  31
ATOM     23  O   UNL     1     109.983 129.113 136.145  0.00  0.00    +0.000 OA
ATOM     24  O   UNL     1     107.815 130.298 136.006  0.00  0.00    +0.000 OA
ATOM     25  O   UNL     1     109.181 131.122 136.427  0.00  0.00    +0.000 OA
ATOM     26  O   UNL     1     107.895 128.683 135.677  0.00  0.00    +0.000 OA
ATOM     27  C   UNL     1     108.538 129.903 136.052  0.00  0.00    +0.000 C 
ATOM     28  C   UNL     1     109.221 130.315 136.263  0.00  0.00    +0.000 C 
ATOM     29  C   UNL     1     108.578 129.095 135.888  0.00  0.00    +0.000 C 
ATOM     30  C   UNL     1     109.944 129.920 136.309  0.00  0.00    +0.000 C 
ATOM     31  C   UNL     1     109.301 128.700 135.935  0.00  0.00    +0.000 C 
BRANCH  30  33
ATOM     32  O   UNL     1     111.317 130.241 136.078  0.00  0.00    +0.000 OA
ATOM     33  C   UNL     1     110.626 130.332 136.520  0.00  0.00    +0.000 C 
ENDBRANCH  30  33
ENDBRANCH  22  31
ENDBRANCH   5  22
TORSDOF 5
ENDMDL
MODEL 8
REMARK VINA RESULT:      -8.9      5.438      7.961
REMARK  Name = 90657201
REMARK  5 active torsions:
REMARK  status: ('A' for Active; 'I' for Inactive)
REMARK    1  A    between atoms: O_2  and  C_16
REMARK    2  A    between atoms: O_2  and  C_18
REMARK    3  A    between atoms: O_11  and  C_32
REMARK    4  A    between atoms: C_15  and  C_17
REMARK    5  A    between atoms: C_25  and  C_27
REMARK                            x       y       z     vdW  Elec       q    Type
REMARK                         _______ _______ _______ _____ _____    ______ ____
ROOT
ATOM      1  O   UNL     1     105.670 126.441 146.749  0.00  0.00    +0.000 OA
ATOM      2  O   UNL     1     106.580 124.130 148.224  0.00  0.00    +0.000 OA
ATOM      3  O   UNL     1     107.848 126.490 146.885  0.00  0.00    +0.000 OA
ATOM      4  O   UNL     1     107.516 125.098 147.707  0.00  0.00    +0.000 OA
ATOM      5  C   UNL     1     104.506 124.773 147.675  0.00  0.00    +0.000 A 
ATOM      6  C   UNL     1     104.685 125.497 147.248  0.00  0.00    +0.000 A 
ATOM      7  C   UNL     1     105.147 124.307 148.007  0.00  0.00    +0.000 A 
ATOM      8  C   UNL     1     105.503 125.745 147.159  0.00  0.00    +0.000 A 
ATOM      9  C   UNL     1     106.118 125.297 147.479  0.00  0.00    +0.000 A 
ATOM     10  C   UNL     1     105.958 124.571 147.908  0.00  0.00    +0.000 A 
ATOM     11  C   UNL     1     106.900 125.546 147.387  0.00  0.00    +0.000 A 
ATOM     12  C   UNL     1     106.451 126.689 146.657  0.00  0.00    +0.000 A 
ATOM     13  C   UNL     1     107.066 126.242 146.977  0.00  0.00    +0.000 A 
ENDROOT
BRANCH  12  14
ATOM     14  C   UNL     1     106.618 127.385 146.247  0.00  0.00    +0.000 A 
ATOM     15  C   UNL     1     106.688 127.373 145.425  0.00  0.00    +0.000 A 
ATOM     16  C   UNL     1     106.714 128.094 146.659  0.00  0.00    +0.000 A 
ATOM     17  C   UNL     1     106.854 128.069 145.015  0.00  0.00    +0.000 A 
ATOM     18  C   UNL     1     106.880 128.790 146.248  0.00  0.00    +0.000 A 
ATOM     19  C   UNL     1     106.950 128.777 145.426  0.00  0.00    +0.000 A 
BRANCH  19  20
ATOM     20  O   UNL     1     107.117 129.473 145.016  0.00  0.00    +0.000 OA
ATOM     21  C   UNL     1     107.891 129.642 144.787  0.00  0.00    +0.000 C 
ENDBRANCH  19  20
ENDBRANCH  12  14
BRANCH   5  22
ATOM     22  O   UNL     1     103.723 124.527 147.764  0.00  0.00    +0.000 OA
BRANCH  22  31
ATOM     23  O   UNL     1     103.722 123.633 146.649  0.00  0.00    +0.000 OA
ATOM     24  O   UNL     1     101.350 124.186 146.208  0.00  0.00    +0.000 OA
ATOM     25  O   UNL     1     102.140 123.109 145.241  0.00  0.00    +0.000 OA
ATOM     26  O   UNL     1     102.142 124.896 147.470  0.00  0.00    +0.000 OA
ATOM     27  C   UNL     1     102.141 124.002 146.355  0.00  0.00    +0.000 C 
ATOM     28  C   UNL     1     102.536 123.463 145.872  0.00  0.00    +0.000 C 
ATOM     29  C   UNL     1     102.537 124.357 146.987  0.00  0.00    +0.000 C 
ATOM     30  C   UNL     1     103.327 123.278 146.019  0.00  0.00    +0.000 C 
ATOM     31  C   UNL     1     103.328 124.172 147.134  0.00  0.00    +0.000 C 
BRANCH  30  33
ATOM     32  O   UNL     1     104.374 122.982 145.093  0.00  0.00    +0.000 OA
ATOM     33  C   UNL     1     103.721 122.740 145.535  0.00  0.00    +0.000 C 
ENDBRANCH  30  33
ENDBRANCH  22  31
ENDBRANCH   5  22
TORSDOF 5
ENDMDL
MODEL 9
REMARK VINA RESULT:      -8.8      4.166      6.228
REMARK  Name = 90657201
REMARK  5 active torsions:
REMARK  status: ('A' for Active; 'I' for Inactive)
REMARK    1  A    between atoms: O_2  and  C_16
REMARK    2  A    between atoms: O_2  and  C_18
REMARK    3  A    between atoms: O_11  and  C_32
REMARK    4  A    between atoms: C_15  and  C_17
REMARK    5  A    between atoms: C_25  and  C_27
REMARK                            x       y       z     vdW  Elec       q    Type
REMARK                         _______ _______ _______ _____ _____    ______ ____
ROOT
ATOM      1  O   UNL     1     105.340 126.584 144.122  0.00  0.00    +0.000 OA
ATOM      2  O   UNL     1     107.263 126.383 146.268  0.00  0.00    +0.000 OA
ATOM      3  O   UNL     1     106.609 128.360 144.116  0.00  0.00    +0.000 OA
ATOM      4  O   UNL     1     107.242 127.529 145.393  0.00  0.00    +0.000 OA
ATOM      5  C   UNL     1     105.643 124.970 145.639  0.00  0.00    +0.000 A 
ATOM      6  C   UNL     1     105.318 125.408 144.974  0.00  0.00    +0.000 A 
ATOM      7  C   UNL     1     106.304 125.299 146.079  0.00  0.00    +0.000 A 
ATOM      8  C   UNL     1     105.657 126.168 144.760  0.00  0.00    +0.000 A 
ATOM      9  C   UNL     1     106.291 126.483 145.184  0.00  0.00    +0.000 A 
ATOM     10  C   UNL     1     106.629 126.060 145.851  0.00  0.00    +0.000 A 
ATOM     11  C   UNL     1     106.608 127.214 144.969  0.00  0.00    +0.000 A 
ATOM     12  C   UNL     1     105.658 127.315 143.907  0.00  0.00    +0.000 A 
ATOM     13  C   UNL     1     106.292 127.629 144.331  0.00  0.00    +0.000 A 
ENDROOT
BRANCH  12  14
ATOM     14  C   UNL     1     105.341 127.730 143.269  0.00  0.00    +0.000 A 
ATOM     15  C   UNL     1     104.878 128.400 143.401  0.00  0.00    +0.000 A 
ATOM     16  C   UNL     1     105.488 127.476 142.497  0.00  0.00    +0.000 A 
ATOM     17  C   UNL     1     104.562 128.815 142.763  0.00  0.00    +0.000 A 
ATOM     18  C   UNL     1     105.172 127.891 141.859  0.00  0.00    +0.000 A 
ATOM     19  C   UNL     1     104.709 128.561 141.992  0.00  0.00    +0.000 A 
BRANCH  19  20
ATOM     20  O   UNL     1     104.392 128.977 141.353  0.00  0.00    +0.000 OA
ATOM     21  C   UNL     1     103.668 128.749 141.030  0.00  0.00    +0.000 C 
ENDBRANCH  19  20
ENDBRANCH  12  14
BRANCH   5  22
ATOM     22  O   UNL     1     105.324 124.240 145.851  0.00  0.00    +0.000 OA
BRANCH  22  31
ATOM     23  O   UNL     1     104.358 124.745 146.775  0.00  0.00    +0.000 OA
ATOM     24  O   UNL     1     102.758 122.998 146.058  0.00  0.00    +0.000 OA
ATOM     25  O   UNL     1     102.326 124.085 147.220  0.00  0.00    +0.000 OA
ATOM     26  O   UNL     1     104.258 123.075 145.373  0.00  0.00    +0.000 OA
ATOM     27  C   UNL     1     103.292 123.580 146.297  0.00  0.00    +0.000 C 
ATOM     28  C   UNL     1     103.076 124.124 146.878  0.00  0.00    +0.000 C 
ATOM     29  C   UNL     1     104.042 123.619 145.954  0.00  0.00    +0.000 C 
ATOM     30  C   UNL     1     103.609 124.707 147.117  0.00  0.00    +0.000 C 
ATOM     31  C   UNL     1     104.575 124.201 146.193  0.00  0.00    +0.000 C 
BRANCH  30  33
ATOM     32  O   UNL     1     103.870 125.356 148.363  0.00  0.00    +0.000 OA
ATOM     33  C   UNL     1     103.393 125.250 147.698  0.00  0.00    +0.000 C 
ENDBRANCH  30  33
ENDBRANCH  22  31
ENDBRANCH   5  22
TORSDOF 5
ENDMDL
MODEL 10
REMARK VINA RESULT:      -8.8      6.996      8.719
REMARK  Name = 90657201
REMARK  5 active torsions:
REMARK  status: ('A' for Active; 'I' for Inactive)
REMARK    1  A    between atoms: O_2  and  C_16
REMARK    2  A    between atoms: O_2  and  C_18
REMARK    3  A    between atoms: O_11  and  C_32
REMARK    4  A    between atoms: C_15  and  C_17
REMARK    5  A    between atoms: C_25  and  C_27
REMARK                            x       y       z     vdW  Elec       q    Type
REMARK                         _______ _______ _______ _____ _____    ______ ____
ROOT
ATOM      1  O   UNL     1     112.123 126.909 137.509  0.00  0.00    +0.000 OA
ATOM      2  O   UNL     1     110.837 125.037 135.722  0.00  0.00    +0.000 OA
ATOM      3  O   UNL     1     112.127 124.927 138.423  0.00  0.00    +0.000 OA
ATOM      4  O   UNL     1     111.362 124.610 136.996  0.00  0.00    +0.000 OA
ATOM      5  C   UNL     1     111.213 127.234 135.493  0.00  0.00    +0.000 A 
ATOM      6  C   UNL     1     111.611 127.392 136.238  0.00  0.00    +0.000 A 
ATOM      7  C   UNL     1     110.950 126.436 135.315  0.00  0.00    +0.000 A 
ATOM      8  C   UNL     1     111.740 126.751 136.795  0.00  0.00    +0.000 A 
ATOM      9  C   UNL     1     111.486 125.985 136.624  0.00  0.00    +0.000 A 
ATOM     10  C   UNL     1     111.087 125.807 135.885  0.00  0.00    +0.000 A 
ATOM     11  C   UNL     1     111.615 125.377 137.166  0.00  0.00    +0.000 A 
ATOM     12  C   UNL     1     112.252 126.301 138.051  0.00  0.00    +0.000 A 
ATOM     13  C   UNL     1     111.998 125.535 137.880  0.00  0.00    +0.000 A 
ENDROOT
BRANCH  12  14
ATOM     14  C   UNL     1     112.634 126.459 138.765  0.00  0.00    +0.000 A 
ATOM     15  C   UNL     1     113.454 126.381 138.820  0.00  0.00    +0.000 A 
ATOM     16  C   UNL     1     112.196 126.696 139.423  0.00  0.00    +0.000 A 
ATOM     17  C   UNL     1     113.835 126.540 139.534  0.00  0.00    +0.000 A 
ATOM     18  C   UNL     1     112.579 126.854 140.137  0.00  0.00    +0.000 A 
ATOM     19  C   UNL     1     113.398 126.776 140.192  0.00  0.00    +0.000 A 
BRANCH  19  20
ATOM     20  O   UNL     1     113.781 126.934 140.906  0.00  0.00    +0.000 OA
ATOM     21  C   UNL     1     114.488 127.359 140.909  0.00  0.00    +0.000 C 
ENDBRANCH  19  20
ENDBRANCH  12  14
BRANCH   5  22
ATOM     22  O   UNL     1     111.085 127.844 134.952  0.00  0.00    +0.000 OA
BRANCH  22  31
ATOM     23  O   UNL     1     109.817 128.253 135.467  0.00  0.00    +0.000 OA
ATOM     24  O   UNL     1     110.371 130.611 134.958  0.00  0.00    +0.000 OA
ATOM     25  O   UNL     1     108.919 130.234 135.643  0.00  0.00    +0.000 OA
ATOM     26  O   UNL     1     111.455 129.415 134.613  0.00  0.00    +0.000 OA
ATOM     27  C   UNL     1     110.186 129.825 135.128  0.00  0.00    +0.000 C 
ATOM     28  C   UNL     1     109.460 129.636 135.470  0.00  0.00    +0.000 C 
ATOM     29  C   UNL     1     110.729 129.227 134.955  0.00  0.00    +0.000 C 
ATOM     30  C   UNL     1     109.276 128.850 135.640  0.00  0.00    +0.000 C 
ATOM     31  C   UNL     1     110.544 128.441 135.125  0.00  0.00    +0.000 C 
BRANCH  30  33
ATOM     32  O   UNL     1     108.047 128.121 135.614  0.00  0.00    +0.000 OA
ATOM     33  C   UNL     1     108.549 128.662 135.982  0.00  0.00    +0.000 C 
ENDBRANCH  30  33
ENDBRANCH  22  31
ENDBRANCH   5  22
TORSDOF 5
ENDMDL
