MODEL 1
REMARK VINA RESULT:      -8.6      0.000      0.000
REMARK  Name = 42607635
REMARK  6 active torsions:
REMARK  status: ('A' for Active; 'I' for Inactive)
REMARK    1  A    between atoms: O_2  and  C_18
REMARK    2  A    between atoms: O_2  and  C_20
REMARK    3  A    between atoms: C_17  and  C_19
REMARK    4  A    between atoms: C_21  and  C_25
REMARK    5  A    between atoms: C_25  and  C_27
REMARK    6  A    between atoms: C_28  and  C_29
REMARK                            x       y       z     vdW  Elec       q    Type
REMARK                         _______ _______ _______ _____ _____    ______ ____
ROOT
ATOM      1  O   UNL     1     110.398 129.277 138.068  0.00  0.00    +0.000 OA
ATOM      2  O   UNL     1     113.437 128.260 137.284  0.00  0.00    +0.000 OA
ATOM      3  O   UNL     1     111.710 129.949 138.809  0.00  0.00    +0.000 OA
ATOM      4  C   UNL     1     111.261 128.433 137.305  0.00  0.00    +0.000 A 
ATOM      5  C   UNL     1     112.022 128.179 137.109  0.00  0.00    +0.000 A 
ATOM      6  C   UNL     1     111.158 129.023 137.872  0.00  0.00    +0.000 A 
ATOM      7  C   UNL     1     112.678 128.515 137.480  0.00  0.00    +0.000 A 
ATOM      8  C   UNL     1     111.814 129.359 138.243  0.00  0.00    +0.000 A 
ATOM      9  C   UNL     1     112.573 129.105 138.047  0.00  0.00    +0.000 A 
ENDROOT
BRANCH   5  11
ATOM     10  O   UNL     1     112.204 127.789 135.746  0.00  0.00    +0.000 OA
ATOM     11  C   UNL     1     112.125 127.588 136.542  0.00  0.00    +0.000 C 
BRANCH  11  13
ATOM     12  O   UNL     1     112.098 126.596 137.571  0.00  0.00    +0.000 OA
ATOM     13  C   UNL     1     112.149 126.796 136.772  0.00  0.00    +0.000 C 
ATOM     14  C   UNL     1     112.224 126.204 136.203  0.00  0.00    +0.000 C 
BRANCH  14  17
ATOM     15  O   UNL     1     113.724 123.886 136.941  0.00  0.00    +0.000 OA
ATOM     16  O   UNL     1     112.322 123.036 137.123  0.00  0.00    +0.000 OA
ATOM     17  C   UNL     1     112.249 125.411 136.433  0.00  0.00    +0.000 A 
ATOM     18  C   UNL     1     112.974 125.045 136.572  0.00  0.00    +0.000 A 
ATOM     19  C   UNL     1     111.547 124.986 136.524  0.00  0.00    +0.000 A 
ATOM     20  C   UNL     1     112.999 124.252 136.802  0.00  0.00    +0.000 A 
ATOM     21  C   UNL     1     111.572 124.195 136.754  0.00  0.00    +0.000 A 
ATOM     22  C   UNL     1     112.297 123.827 136.893  0.00  0.00    +0.000 A 
ENDBRANCH  14  17
ENDBRANCH  11  13
ENDBRANCH   5  11
BRANCH   4  23
ATOM     23  O   UNL     1     110.605 128.097 136.934  0.00  0.00    +0.000 OA
BRANCH  23  32
ATOM     24  O   UNL     1     110.393 129.233 136.095  0.00  0.00    +0.000 OA
ATOM     25  O   UNL     1     107.994 128.651 135.914  0.00  0.00    +0.000 OA
ATOM     26  O   UNL     1     108.581 129.981 135.135  0.00  0.00    +0.000 OA
ATOM     27  O   UNL     1     109.006 127.709 136.813  0.00  0.00    +0.000 OA
ATOM     28  C   UNL     1     108.794 128.845 135.974  0.00  0.00    +0.000 C 
ATOM     29  C   UNL     1     109.088 129.511 135.585  0.00  0.00    +0.000 C 
ATOM     30  C   UNL     1     109.300 128.374 136.424  0.00  0.00    +0.000 C 
ATOM     31  C   UNL     1     109.887 129.705 135.645  0.00  0.00    +0.000 C 
ATOM     32  C   UNL     1     110.100 128.568 136.485  0.00  0.00    +0.000 C 
BRANCH  31  34
ATOM     33  O   UNL     1     110.689 130.281 134.612  0.00  0.00    +0.000 OA
ATOM     34  C   UNL     1     110.181 130.370 135.256  0.00  0.00    +0.000 C 
ENDBRANCH  31  34
ENDBRANCH  23  32
ENDBRANCH   4  23
TORSDOF 6
ENDMDL
MODEL 2
REMARK VINA RESULT:      -8.6     10.019     11.829
REMARK  Name = 42607635
REMARK  6 active torsions:
REMARK  status: ('A' for Active; 'I' for Inactive)
REMARK    1  A    between atoms: O_2  and  C_18
REMARK    2  A    between atoms: O_2  and  C_20
REMARK    3  A    between atoms: C_17  and  C_19
REMARK    4  A    between atoms: C_21  and  C_25
REMARK    5  A    between atoms: C_25  and  C_27
REMARK    6  A    between atoms: C_28  and  C_29
REMARK                            x       y       z     vdW  Elec       q    Type
REMARK                         _______ _______ _______ _____ _____    ______ ____
ROOT
ATOM      1  O   UNL     1     106.820 124.504 145.965  0.00  0.00    +0.000 OA
ATOM      2  O   UNL     1     105.165 127.204 145.039  0.00  0.00    +0.000 OA
ATOM      3  O   UNL     1     105.653 124.399 144.803  0.00  0.00    +0.000 OA
ATOM      4  C   UNL     1     106.576 125.906 146.083  0.00  0.00    +0.000 A 
ATOM      5  C   UNL     1     106.162 126.582 145.851  0.00  0.00    +0.000 A 
ATOM      6  C   UNL     1     106.406 125.179 145.733  0.00  0.00    +0.000 A 
ATOM      7  C   UNL     1     105.579 126.529 145.270  0.00  0.00    +0.000 A 
ATOM      8  C   UNL     1     105.822 125.126 145.152  0.00  0.00    +0.000 A 
ATOM      9  C   UNL     1     105.409 125.801 144.921  0.00  0.00    +0.000 A 
ENDROOT
BRANCH   5  11
ATOM     10  O   UNL     1     105.968 127.522 146.910  0.00  0.00    +0.000 OA
ATOM     11  C   UNL     1     106.332 127.309 146.201  0.00  0.00    +0.000 C 
BRANCH  11  13
ATOM     12  O   UNL     1     107.209 127.625 145.117  0.00  0.00    +0.000 OA
ATOM     13  C   UNL     1     106.867 127.825 145.841  0.00  0.00    +0.000 C 
ATOM     14  C   UNL     1     107.060 128.539 146.205  0.00  0.00    +0.000 C 
BRANCH  14  17
ATOM     15  O   UNL     1     107.583 130.933 144.735  0.00  0.00    +0.000 OA
ATOM     16  O   UNL     1     109.199 130.599 144.766  0.00  0.00    +0.000 OA
ATOM     17  C   UNL     1     107.595 129.054 145.845  0.00  0.00    +0.000 A 
ATOM     18  C   UNL     1     107.321 129.736 145.470  0.00  0.00    +0.000 A 
ATOM     19  C   UNL     1     108.403 128.887 145.861  0.00  0.00    +0.000 A 
ATOM     20  C   UNL     1     107.857 130.252 145.110  0.00  0.00    +0.000 A 
ATOM     21  C   UNL     1     108.937 129.402 145.501  0.00  0.00    +0.000 A 
ATOM     22  C   UNL     1     108.665 130.085 145.126  0.00  0.00    +0.000 A 
ENDBRANCH  14  17
ENDBRANCH  11  13
ENDBRANCH   5  11
BRANCH   4  23
ATOM     23  O   UNL     1     107.159 125.959 146.664  0.00  0.00    +0.000 OA
BRANCH  23  32
ATOM     24  O   UNL     1     106.347 125.349 147.668  0.00  0.00    +0.000 OA
ATOM     25  O   UNL     1     108.381 124.526 148.813  0.00  0.00    +0.000 OA
ATOM     26  O   UNL     1     106.891 124.190 149.436  0.00  0.00    +0.000 OA
ATOM     27  O   UNL     1     108.515 125.410 147.427  0.00  0.00    +0.000 OA
ATOM     28  C   UNL     1     107.703 124.800 148.431  0.00  0.00    +0.000 C 
ATOM     29  C   UNL     1     106.957 124.632 148.743  0.00  0.00    +0.000 C 
ATOM     30  C   UNL     1     107.770 125.242 147.738  0.00  0.00    +0.000 C 
ATOM     31  C   UNL     1     106.279 124.906 148.361  0.00  0.00    +0.000 C 
ATOM     32  C   UNL     1     107.092 125.517 147.356  0.00  0.00    +0.000 C 
BRANCH  31  34
ATOM     33  O   UNL     1     105.043 125.352 148.922  0.00  0.00    +0.000 OA
ATOM     34  C   UNL     1     105.535 124.738 148.672  0.00  0.00    +0.000 C 
ENDBRANCH  31  34
ENDBRANCH  23  32
ENDBRANCH   4  23
TORSDOF 6
ENDMDL
MODEL 3
REMARK VINA RESULT:      -8.4      1.509      5.114
REMARK  Name = 42607635
REMARK  6 active torsions:
REMARK  status: ('A' for Active; 'I' for Inactive)
REMARK    1  A    between atoms: O_2  and  C_18
REMARK    2  A    between atoms: O_2  and  C_20
REMARK    3  A    between atoms: C_17  and  C_19
REMARK    4  A    between atoms: C_21  and  C_25
REMARK    5  A    between atoms: C_25  and  C_27
REMARK    6  A    between atoms: C_28  and  C_29
REMARK                            x       y       z     vdW  Elec       q    Type
REMARK                         _______ _______ _______ _____ _____    ______ ____
ROOT
ATOM      1  O   UNL     1     112.116 126.186 138.776  0.00  0.00    +0.000 OA
ATOM      2  O   UNL     1     108.893 126.345 138.093  0.00  0.00    +0.000 OA
ATOM      3  O   UNL     1     111.007 125.876 139.956  0.00  0.00    +0.000 OA
ATOM      4  C   UNL     1     111.060 126.421 137.844  0.00  0.00    +0.000 A 
ATOM      5  C   UNL     1     110.253 126.460 137.673  0.00  0.00    +0.000 A 
ATOM      6  C   UNL     1     111.310 126.226 138.605  0.00  0.00    +0.000 A 
ATOM      7  C   UNL     1     109.698 126.305 138.264  0.00  0.00    +0.000 A 
ATOM      8  C   UNL     1     110.755 126.070 139.196  0.00  0.00    +0.000 A 
ATOM      9  C   UNL     1     109.950 126.110 139.025  0.00  0.00    +0.000 A 
ENDROOT
BRANCH   5  11
ATOM     10  O   UNL     1     109.891 126.062 136.349  0.00  0.00    +0.000 OA
ATOM     11  C   UNL     1     110.003 126.655 136.912  0.00  0.00    +0.000 C 
BRANCH  11  13
ATOM     12  O   UNL     1     109.998 128.040 137.268  0.00  0.00    +0.000 OA
ATOM     13  C   UNL     1     109.863 127.444 136.713  0.00  0.00    +0.000 C 
ATOM     14  C   UNL     1     109.588 127.637 135.960  0.00  0.00    +0.000 C 
BRANCH  14  17
ATOM     15  O   UNL     1     107.839 129.895 135.874  0.00  0.00    +0.000 OA
ATOM     16  O   UNL     1     109.030 130.791 135.167  0.00  0.00    +0.000 OA
ATOM     17  C   UNL     1     109.449 128.426 135.761  0.00  0.00    +0.000 A 
ATOM     18  C   UNL     1     108.713 128.766 135.917  0.00  0.00    +0.000 A 
ATOM     19  C   UNL     1     110.044 128.874 135.408  0.00  0.00    +0.000 A 
ATOM     20  C   UNL     1     108.574 129.555 135.719  0.00  0.00    +0.000 A 
ATOM     21  C   UNL     1     109.905 129.662 135.210  0.00  0.00    +0.000 A 
ATOM     22  C   UNL     1     109.169 130.004 135.365  0.00  0.00    +0.000 A 
ENDBRANCH  14  17
ENDBRANCH  11  13
ENDBRANCH   5  11
BRANCH   4  23
ATOM     23  O   UNL     1     111.615 126.576 137.254  0.00  0.00    +0.000 OA
BRANCH  23  32
ATOM     24  O   UNL     1     111.952 125.202 137.057  0.00  0.00    +0.000 OA
ATOM     25  O   UNL     1     114.241 125.861 136.382  0.00  0.00    +0.000 OA
ATOM     26  O   UNL     1     113.816 124.267 136.410  0.00  0.00    +0.000 OA
ATOM     27  O   UNL     1     113.140 127.015 136.804  0.00  0.00    +0.000 OA
ATOM     28  C   UNL     1     113.478 125.642 136.607  0.00  0.00    +0.000 C 
ATOM     29  C   UNL     1     113.265 124.844 136.621  0.00  0.00    +0.000 C 
ATOM     30  C   UNL     1     112.927 126.218 136.818  0.00  0.00    +0.000 C 
ATOM     31  C   UNL     1     112.502 124.624 136.846  0.00  0.00    +0.000 C 
ATOM     32  C   UNL     1     112.164 125.999 137.043  0.00  0.00    +0.000 C 
BRANCH  31  34
ATOM     33  O   UNL     1     111.697 123.549 136.357  0.00  0.00    +0.000 OA
ATOM     34  C   UNL     1     112.290 123.828 136.859  0.00  0.00    +0.000 C 
ENDBRANCH  31  34
ENDBRANCH  23  32
ENDBRANCH   4  23
TORSDOF 6
ENDMDL
MODEL 4
REMARK VINA RESULT:      -8.4      2.177      3.176
REMARK  Name = 42607635
REMARK  6 active torsions:
REMARK  status: ('A' for Active; 'I' for Inactive)
REMARK    1  A    between atoms: O_2  and  C_18
REMARK    2  A    between atoms: O_2  and  C_20
REMARK    3  A    between atoms: C_17  and  C_19
REMARK    4  A    between atoms: C_21  and  C_25
REMARK    5  A    between atoms: C_25  and  C_27
REMARK    6  A    between atoms: C_28  and  C_29
REMARK                            x       y       z     vdW  Elec       q    Type
REMARK                         _______ _______ _______ _____ _____    ______ ____
ROOT
ATOM      1  O   UNL     1     114.282 130.779 137.150  0.00  0.00    +0.000 OA
ATOM      2  O   UNL     1     113.877 128.682 134.636  0.00  0.00    +0.000 OA
ATOM      3  O   UNL     1     114.980 131.098 135.690  0.00  0.00    +0.000 OA
ATOM      4  C   UNL     1     113.731 129.572 136.623  0.00  0.00    +0.000 A 
ATOM      5  C   UNL     1     113.629 129.047 135.994  0.00  0.00    +0.000 A 
ATOM      6  C   UNL     1     114.181 130.255 136.521  0.00  0.00    +0.000 A 
ATOM      7  C   UNL     1     113.979 129.206 135.264  0.00  0.00    +0.000 A 
ATOM      8  C   UNL     1     114.530 130.415 135.791  0.00  0.00    +0.000 A 
ATOM      9  C   UNL     1     114.429 129.890 135.163  0.00  0.00    +0.000 A 
ENDROOT
BRANCH   5  11
ATOM     10  O   UNL     1     112.364 128.383 135.968  0.00  0.00    +0.000 OA
ATOM     11  C   UNL     1     113.179 128.364 136.096  0.00  0.00    +0.000 C 
BRANCH  11  13
ATOM     12  O   UNL     1     114.363 127.579 136.262  0.00  0.00    +0.000 OA
ATOM     13  C   UNL     1     113.544 127.660 136.327  0.00  0.00    +0.000 C 
ATOM     14  C   UNL     1     113.090 127.038 136.622  0.00  0.00    +0.000 C 
BRANCH  14  17
ATOM     15  O   UNL     1     113.862 124.347 136.049  0.00  0.00    +0.000 OA
ATOM     16  O   UNL     1     114.550 124.225 137.543  0.00  0.00    +0.000 OA
ATOM     17  C   UNL     1     113.455 126.334 136.853  0.00  0.00    +0.000 A 
ATOM     18  C   UNL     1     113.476 125.692 136.335  0.00  0.00    +0.000 A 
ATOM     19  C   UNL     1     113.799 126.274 137.600  0.00  0.00    +0.000 A 
ATOM     20  C   UNL     1     113.841 124.989 136.566  0.00  0.00    +0.000 A 
ATOM     21  C   UNL     1     114.164 125.571 137.830  0.00  0.00    +0.000 A 
ATOM     22  C   UNL     1     114.185 124.928 137.313  0.00  0.00    +0.000 A 
ENDBRANCH  14  17
ENDBRANCH  11  13
ENDBRANCH   5  11
BRANCH   4  23
ATOM     23  O   UNL     1     113.382 129.413 137.354  0.00  0.00    +0.000 OA
BRANCH  23  32
ATOM     24  O   UNL     1     112.346 130.380 137.179  0.00  0.00    +0.000 OA
ATOM     25  O   UNL     1     112.195 130.661 139.634  0.00  0.00    +0.000 OA
ATOM     26  O   UNL     1     111.209 131.535 138.641  0.00  0.00    +0.000 OA
ATOM     27  O   UNL     1     113.281 129.600 138.990  0.00  0.00    +0.000 OA
ATOM     28  C   UNL     1     112.245 130.567 138.816  0.00  0.00    +0.000 C 
ATOM     29  C   UNL     1     111.752 131.005 138.319  0.00  0.00    +0.000 C 
ATOM     30  C   UNL     1     112.788 130.037 138.493  0.00  0.00    +0.000 C 
ATOM     31  C   UNL     1     111.802 130.911 137.501  0.00  0.00    +0.000 C 
ATOM     32  C   UNL     1     112.839 129.943 137.675  0.00  0.00    +0.000 C 
BRANCH  31  34
ATOM     33  O   UNL     1     110.779 130.962 136.504  0.00  0.00    +0.000 OA
ATOM     34  C   UNL     1     111.309 131.348 137.005  0.00  0.00    +0.000 C 
ENDBRANCH  31  34
ENDBRANCH  23  32
ENDBRANCH   4  23
TORSDOF 6
ENDMDL
MODEL 5
REMARK VINA RESULT:      -8.4      1.089      4.628
REMARK  Name = 42607635
REMARK  6 active torsions:
REMARK  status: ('A' for Active; 'I' for Inactive)
REMARK    1  A    between atoms: O_2  and  C_18
REMARK    2  A    between atoms: O_2  and  C_20
REMARK    3  A    between atoms: C_17  and  C_19
REMARK    4  A    between atoms: C_21  and  C_25
REMARK    5  A    between atoms: C_25  and  C_27
REMARK    6  A    between atoms: C_28  and  C_29
REMARK                            x       y       z     vdW  Elec       q    Type
REMARK                         _______ _______ _______ _____ _____    ______ ____
ROOT
ATOM      1  O   UNL     1     112.483 126.201 139.011  0.00  0.00    +0.000 OA
ATOM      2  O   UNL     1     112.916 129.157 137.613  0.00  0.00    +0.000 OA
ATOM      3  O   UNL     1     113.328 127.373 139.806  0.00  0.00    +0.000 OA
ATOM      4  C   UNL     1     112.277 127.092 137.915  0.00  0.00    +0.000 A 
ATOM      5  C   UNL     1     112.385 127.832 137.565  0.00  0.00    +0.000 A 
ATOM      6  C   UNL     1     112.591 126.940 138.662  0.00  0.00    +0.000 A 
ATOM      7  C   UNL     1     112.808 128.418 137.963  0.00  0.00    +0.000 A 
ATOM      8  C   UNL     1     113.014 127.526 139.060  0.00  0.00    +0.000 A 
ATOM      9  C   UNL     1     113.122 128.265 138.710  0.00  0.00    +0.000 A 
ENDROOT
BRANCH   5  11
ATOM     10  O   UNL     1     112.506 127.801 136.141  0.00  0.00    +0.000 OA
ATOM     11  C   UNL     1     112.070 127.984 136.818  0.00  0.00    +0.000 C 
BRANCH  11  13
ATOM     12  O   UNL     1     110.916 128.573 137.421  0.00  0.00    +0.000 OA
ATOM     13  C   UNL     1     111.319 128.320 136.748  0.00  0.00    +0.000 C 
ATOM     14  C   UNL     1     110.973 128.401 136.004  0.00  0.00    +0.000 C 
BRANCH  14  17
ATOM     15  O   UNL     1     108.136 128.103 135.822  0.00  0.00    +0.000 OA
ATOM     16  O   UNL     1     107.970 129.742 135.723  0.00  0.00    +0.000 OA
ATOM     17  C   UNL     1     110.222 128.737 135.933  0.00  0.00    +0.000 A 
ATOM     18  C   UNL     1     109.554 128.252 135.913  0.00  0.00    +0.000 A 
ATOM     19  C   UNL     1     110.139 129.556 135.884  0.00  0.00    +0.000 A 
ATOM     20  C   UNL     1     108.803 128.588 135.843  0.00  0.00    +0.000 A 
ATOM     21  C   UNL     1     109.389 129.891 135.814  0.00  0.00    +0.000 A 
ATOM     22  C   UNL     1     108.720 129.407 135.793  0.00  0.00    +0.000 A 
ENDBRANCH  14  17
ENDBRANCH  11  13
ENDBRANCH   5  11
BRANCH   4  23
ATOM     23  O   UNL     1     111.854 126.506 137.518  0.00  0.00    +0.000 OA
BRANCH  23  32
ATOM     24  O   UNL     1     113.026 125.758 137.193  0.00  0.00    +0.000 OA
ATOM     25  O   UNL     1     111.677 123.685 137.094  0.00  0.00    +0.000 OA
ATOM     26  O   UNL     1     113.300 123.628 136.802  0.00  0.00    +0.000 OA
ATOM     27  O   UNL     1     110.954 125.124 137.452  0.00  0.00    +0.000 OA
ATOM     28  C   UNL     1     112.127 124.376 137.127  0.00  0.00    +0.000 C 
ATOM     29  C   UNL     1     112.939 124.347 136.981  0.00  0.00    +0.000 C 
ATOM     30  C   UNL     1     111.766 125.096 137.306  0.00  0.00    +0.000 C 
ATOM     31  C   UNL     1     113.389 125.038 137.014  0.00  0.00    +0.000 C 
ATOM     32  C   UNL     1     112.215 125.787 137.339  0.00  0.00    +0.000 C 
BRANCH  31  34
ATOM     33  O   UNL     1     114.521 125.434 136.238  0.00  0.00    +0.000 OA
ATOM     34  C   UNL     1     114.199 125.009 136.867  0.00  0.00    +0.000 C 
ENDBRANCH  31  34
ENDBRANCH  23  32
ENDBRANCH   4  23
TORSDOF 6
ENDMDL
MODEL 6
REMARK VINA RESULT:      -8.4     10.176     11.303
REMARK  Name = 42607635
REMARK  6 active torsions:
REMARK  status: ('A' for Active; 'I' for Inactive)
REMARK    1  A    between atoms: O_2  and  C_18
REMARK    2  A    between atoms: O_2  and  C_20
REMARK    3  A    between atoms: C_17  and  C_19
REMARK    4  A    between atoms: C_21  and  C_25
REMARK    5  A    between atoms: C_25  and  C_27
REMARK    6  A    between atoms: C_28  and  C_29
REMARK                            x       y       z     vdW  Elec       q    Type
REMARK                         _______ _______ _______ _____ _____    ______ ____
ROOT
ATOM      1  O   UNL     1     106.112 124.179 147.273  0.00  0.00    +0.000 OA
ATOM      2  O   UNL     1     107.176 127.177 146.399  0.00  0.00    +0.000 OA
ATOM      3  O   UNL     1     107.329 124.902 148.120  0.00  0.00    +0.000 OA
ATOM      4  C   UNL     1     106.035 125.316 146.413  0.00  0.00    +0.000 A 
ATOM      5  C   UNL     1     106.301 126.066 146.194  0.00  0.00    +0.000 A 
ATOM      6  C   UNL     1     106.378 124.928 147.055  0.00  0.00    +0.000 A 
ATOM      7  C   UNL     1     106.910 126.428 146.618  0.00  0.00    +0.000 A 
ATOM      8  C   UNL     1     106.987 125.290 147.479  0.00  0.00    +0.000 A 
ATOM      9  C   UNL     1     107.252 126.039 147.260  0.00  0.00    +0.000 A 
ENDROOT
BRANCH   5  11
ATOM     10  O   UNL     1     105.303 126.941 145.666  0.00  0.00    +0.000 OA
ATOM     11  C   UNL     1     105.958 126.454 145.552  0.00  0.00    +0.000 C 
BRANCH  11  13
ATOM     12  O   UNL     1     106.944 125.889 144.685  0.00  0.00    +0.000 OA
ATOM     13  C   UNL     1     106.271 126.353 144.795  0.00  0.00    +0.000 C 
ATOM     14  C   UNL     1     105.911 126.717 144.148  0.00  0.00    +0.000 C 
BRANCH  14  17
ATOM     15  O   UNL     1     105.904 125.375 141.625  0.00  0.00    +0.000 OA
ATOM     16  O   UNL     1     107.163 126.315 141.121  0.00  0.00    +0.000 OA
ATOM     17  C   UNL     1     106.224 126.617 143.391  0.00  0.00    +0.000 A 
ATOM     18  C   UNL     1     105.907 126.046 142.887  0.00  0.00    +0.000 A 
ATOM     19  C   UNL     1     106.854 127.087 143.139  0.00  0.00    +0.000 A 
ATOM     20  C   UNL     1     106.221 125.945 142.129  0.00  0.00    +0.000 A 
ATOM     21  C   UNL     1     107.166 126.986 142.383  0.00  0.00    +0.000 A 
ATOM     22  C   UNL     1     106.850 126.416 141.877  0.00  0.00    +0.000 A 
ENDBRANCH  14  17
ENDBRANCH  11  13
ENDBRANCH   5  11
BRANCH   4  23
ATOM     23  O   UNL     1     105.426 124.954 145.989  0.00  0.00    +0.000 OA
BRANCH  23  32
ATOM     24  O   UNL     1     104.445 125.196 146.998  0.00  0.00    +0.000 OA
ATOM     25  O   UNL     1     103.199 123.186 146.268  0.00  0.00    +0.000 OA
ATOM     26  O   UNL     1     102.632 124.099 147.522  0.00  0.00    +0.000 OA
ATOM     27  O   UNL     1     104.595 123.614 145.503  0.00  0.00    +0.000 OA
ATOM     28  C   UNL     1     103.614 123.856 146.512  0.00  0.00    +0.000 C 
ATOM     29  C   UNL     1     103.331 124.313 147.139  0.00  0.00    +0.000 C 
ATOM     30  C   UNL     1     104.313 124.071 146.129  0.00  0.00    +0.000 C 
ATOM     31  C   UNL     1     103.746 124.983 147.382  0.00  0.00    +0.000 C 
ATOM     32  C   UNL     1     104.728 124.741 146.372  0.00  0.00    +0.000 C 
BRANCH  31  34
ATOM     33  O   UNL     1     103.274 126.233 147.889  0.00  0.00    +0.000 OA
ATOM     34  C   UNL     1     103.463 125.438 148.008  0.00  0.00    +0.000 C 
ENDBRANCH  31  34
ENDBRANCH  23  32
ENDBRANCH   4  23
TORSDOF 6
ENDMDL
MODEL 7
REMARK VINA RESULT:      -8.2      1.863      3.324
REMARK  Name = 42607635
REMARK  6 active torsions:
REMARK  status: ('A' for Active; 'I' for Inactive)
REMARK    1  A    between atoms: O_2  and  C_18
REMARK    2  A    between atoms: O_2  and  C_20
REMARK    3  A    between atoms: C_17  and  C_19
REMARK    4  A    between atoms: C_21  and  C_25
REMARK    5  A    between atoms: C_25  and  C_27
REMARK    6  A    between atoms: C_28  and  C_29
REMARK                            x       y       z     vdW  Elec       q    Type
REMARK                         _______ _______ _______ _____ _____    ______ ____
ROOT
ATOM      1  O   UNL     1     108.639 130.175 137.422  0.00  0.00    +0.000 OA
ATOM      2  O   UNL     1     110.345 129.039 134.837  0.00  0.00    +0.000 OA
ATOM      3  O   UNL     1     107.848 129.716 136.049  0.00  0.00    +0.000 OA
ATOM      4  C   UNL     1     109.887 129.837 136.816  0.00  0.00    +0.000 A 
ATOM      5  C   UNL     1     110.314 129.553 136.169  0.00  0.00    +0.000 A 
ATOM      6  C   UNL     1     109.065 129.891 136.776  0.00  0.00    +0.000 A 
ATOM      7  C   UNL     1     109.919 129.323 135.483  0.00  0.00    +0.000 A 
ATOM      8  C   UNL     1     108.670 129.661 136.089  0.00  0.00    +0.000 A 
ATOM      9  C   UNL     1     109.096 129.378 135.443  0.00  0.00    +0.000 A 
ENDROOT
BRANCH   5  11
ATOM     10  O   UNL     1     111.604 130.138 135.980  0.00  0.00    +0.000 OA
ATOM     11  C   UNL     1     111.136 129.499 136.210  0.00  0.00    +0.000 C 
BRANCH  11  13
ATOM     12  O   UNL     1     111.028 128.139 136.639  0.00  0.00    +0.000 OA
ATOM     13  C   UNL     1     111.491 128.804 136.480  0.00  0.00    +0.000 C 
ATOM     14  C   UNL     1     112.307 128.775 136.592  0.00  0.00    +0.000 C 
BRANCH  14  17
ATOM     15  O   UNL     1     113.293 127.176 138.746  0.00  0.00    +0.000 OA
ATOM     16  O   UNL     1     113.724 125.997 137.674  0.00  0.00    +0.000 OA
ATOM     17  C   UNL     1     112.662 128.080 136.862  0.00  0.00    +0.000 A 
ATOM     18  C   UNL     1     112.800 127.975 137.669  0.00  0.00    +0.000 A 
ATOM     19  C   UNL     1     112.877 127.491 136.327  0.00  0.00    +0.000 A 
ATOM     20  C   UNL     1     113.155 127.280 137.940  0.00  0.00    +0.000 A 
ATOM     21  C   UNL     1     113.231 126.797 136.597  0.00  0.00    +0.000 A 
ATOM     22  C   UNL     1     113.370 126.691 137.404  0.00  0.00    +0.000 A 
ENDBRANCH  14  17
ENDBRANCH  11  13
ENDBRANCH   5  11
BRANCH   4  23
ATOM     23  O   UNL     1     110.283 130.067 137.503  0.00  0.00    +0.000 OA
BRANCH  23  32
ATOM     24  O   UNL     1     110.153 131.462 137.227  0.00  0.00    +0.000 OA
ATOM     25  O   UNL     1     110.215 131.947 139.654  0.00  0.00    +0.000 OA
ATOM     26  O   UNL     1     110.064 133.181 138.569  0.00  0.00    +0.000 OA
ATOM     27  O   UNL     1     110.324 130.390 139.120  0.00  0.00    +0.000 OA
ATOM     28  C   UNL     1     110.194 131.785 138.845  0.00  0.00    +0.000 C 
ATOM     29  C   UNL     1     110.119 132.403 138.302  0.00  0.00    +0.000 C 
ATOM     30  C   UNL     1     110.249 131.007 138.578  0.00  0.00    +0.000 C 
ATOM     31  C   UNL     1     110.098 132.241 137.493  0.00  0.00    +0.000 C 
ATOM     32  C   UNL     1     110.228 130.845 137.769  0.00  0.00    +0.000 C 
BRANCH  31  34
ATOM     33  O   UNL     1     110.657 133.060 136.464  0.00  0.00    +0.000 OA
ATOM     34  C   UNL     1     110.023 132.858 136.952  0.00  0.00    +0.000 C 
ENDBRANCH  31  34
ENDBRANCH  23  32
ENDBRANCH   4  23
TORSDOF 6
ENDMDL
MODEL 8
REMARK VINA RESULT:      -8.2     11.300     12.335
REMARK  Name = 42607635
REMARK  6 active torsions:
REMARK  status: ('A' for Active; 'I' for Inactive)
REMARK    1  A    between atoms: O_2  and  C_18
REMARK    2  A    between atoms: O_2  and  C_20
REMARK    3  A    between atoms: C_17  and  C_19
REMARK    4  A    between atoms: C_21  and  C_25
REMARK    5  A    between atoms: C_25  and  C_27
REMARK    6  A    between atoms: C_28  and  C_29
REMARK                            x       y       z     vdW  Elec       q    Type
REMARK                         _______ _______ _______ _____ _____    ______ ____
ROOT
ATOM      1  O   UNL     1     107.160 125.310 145.983  0.00  0.00    +0.000 OA
ATOM      2  O   UNL     1     105.769 125.409 148.973  0.00  0.00    +0.000 OA
ATOM      3  O   UNL     1     108.077 125.048 147.329  0.00  0.00    +0.000 OA
ATOM      4  C   UNL     1     106.006 125.491 146.805  0.00  0.00    +0.000 A 
ATOM      5  C   UNL     1     105.658 125.515 147.553  0.00  0.00    +0.000 A 
ATOM      6  C   UNL     1     106.813 125.335 146.731  0.00  0.00    +0.000 A 
ATOM      7  C   UNL     1     106.116 125.384 148.226  0.00  0.00    +0.000 A 
ATOM      8  C   UNL     1     107.271 125.203 147.404  0.00  0.00    +0.000 A 
ATOM      9  C   UNL     1     106.923 125.228 148.151  0.00  0.00    +0.000 A 
ENDROOT
BRANCH   5  11
ATOM     10  O   UNL     1     104.589 126.445 147.745  0.00  0.00    +0.000 OA
ATOM     11  C   UNL     1     104.851 125.671 147.627  0.00  0.00    +0.000 C 
BRANCH  11  13
ATOM     12  O   UNL     1     104.570 124.274 147.509  0.00  0.00    +0.000 OA
ATOM     13  C   UNL     1     104.306 125.053 147.583  0.00  0.00    +0.000 C 
ATOM     14  C   UNL     1     103.498 125.214 147.612  0.00  0.00    +0.000 C 
BRANCH  14  17
ATOM     15  O   UNL     1     101.756 123.556 146.067  0.00  0.00    +0.000 OA
ATOM     16  O   UNL     1     101.319 122.741 147.434  0.00  0.00    +0.000 OA
ATOM     17  C   UNL     1     102.952 124.595 147.567  0.00  0.00    +0.000 A 
ATOM     18  C   UNL     1     102.627 124.385 146.839  0.00  0.00    +0.000 A 
ATOM     19  C   UNL     1     102.734 124.188 148.251  0.00  0.00    +0.000 A 
ATOM     20  C   UNL     1     102.082 123.766 146.795  0.00  0.00    +0.000 A 
ATOM     21  C   UNL     1     102.190 123.570 148.206  0.00  0.00    +0.000 A 
ATOM     22  C   UNL     1     101.863 123.359 147.479  0.00  0.00    +0.000 A 
ENDBRANCH  14  17
ENDBRANCH  11  13
ENDBRANCH   5  11
BRANCH   4  23
ATOM     23  O   UNL     1     105.547 125.622 146.132  0.00  0.00    +0.000 OA
BRANCH  23  32
ATOM     24  O   UNL     1     106.072 126.936 145.940  0.00  0.00    +0.000 OA
ATOM     25  O   UNL     1     105.516 126.807 143.532  0.00  0.00    +0.000 OA
ATOM     26  O   UNL     1     106.227 128.165 144.142  0.00  0.00    +0.000 OA
ATOM     27  O   UNL     1     105.176 125.536 144.526  0.00  0.00    +0.000 OA
ATOM     28  C   UNL     1     105.701 126.850 144.334  0.00  0.00    +0.000 C 
ATOM     29  C   UNL     1     106.057 127.529 144.640  0.00  0.00    +0.000 C 
ATOM     30  C   UNL     1     105.532 126.214 144.832  0.00  0.00    +0.000 C 
ATOM     31  C   UNL     1     106.243 127.572 145.443  0.00  0.00    +0.000 C 
ATOM     32  C   UNL     1     105.717 126.257 145.635  0.00  0.00    +0.000 C 
BRANCH  31  34
ATOM     33  O   UNL     1     106.197 128.715 146.300  0.00  0.00    +0.000 OA
ATOM     34  C   UNL     1     106.598 128.251 145.748  0.00  0.00    +0.000 C 
ENDBRANCH  31  34
ENDBRANCH  23  32
ENDBRANCH   4  23
TORSDOF 6
ENDMDL
MODEL 9
REMARK VINA RESULT:      -8.2     11.021     12.392
REMARK  Name = 42607635
REMARK  6 active torsions:
REMARK  status: ('A' for Active; 'I' for Inactive)
REMARK    1  A    between atoms: O_2  and  C_18
REMARK    2  A    between atoms: O_2  and  C_20
REMARK    3  A    between atoms: C_17  and  C_19
REMARK    4  A    between atoms: C_21  and  C_25
REMARK    5  A    between atoms: C_25  and  C_27
REMARK    6  A    between atoms: C_28  and  C_29
REMARK                            x       y       z     vdW  Elec       q    Type
REMARK                         _______ _______ _______ _____ _____    ______ ____
ROOT
ATOM      1  O   UNL     1     105.234 124.719 148.680  0.00  0.00    +0.000 OA
ATOM      2  O   UNL     1     108.037 125.362 147.063  0.00  0.00    +0.000 OA
ATOM      3  O   UNL     1     106.661 124.091 149.220  0.00  0.00    +0.000 OA
ATOM      4  C   UNL     1     105.921 125.354 147.602  0.00  0.00    +0.000 A 
ATOM      5  C   UNL     1     106.623 125.515 147.197  0.00  0.00    +0.000 A 
ATOM      6  C   UNL     1     105.935 124.880 148.276  0.00  0.00    +0.000 A 
ATOM      7  C   UNL     1     107.336 125.201 147.467  0.00  0.00    +0.000 A 
ATOM      8  C   UNL     1     106.648 124.566 148.546  0.00  0.00    +0.000 A 
ATOM      9  C   UNL     1     107.349 124.726 148.142  0.00  0.00    +0.000 A 
ENDROOT
BRANCH   5  11
ATOM     10  O   UNL     1     106.501 125.649 145.779  0.00  0.00    +0.000 OA
ATOM     11  C   UNL     1     106.610 125.990 146.523  0.00  0.00    +0.000 C 
BRANCH  11  13
ATOM     12  O   UNL     1     106.871 127.142 147.327  0.00  0.00    +0.000 OA
ATOM     13  C   UNL     1     106.705 126.807 146.592  0.00  0.00    +0.000 C 
ATOM     14  C   UNL     1     106.634 127.288 145.925  0.00  0.00    +0.000 C 
BRANCH  14  17
ATOM     15  O   UNL     1     108.266 129.620 145.664  0.00  0.00    +0.000 OA
ATOM     16  O   UNL     1     107.017 130.554 146.202  0.00  0.00    +0.000 OA
ATOM     17  C   UNL     1     106.730 128.105 145.995  0.00  0.00    +0.000 A 
ATOM     18  C   UNL     1     107.450 128.454 145.795  0.00  0.00    +0.000 A 
ATOM     19  C   UNL     1     106.105 128.572 146.264  0.00  0.00    +0.000 A 
ATOM     20  C   UNL     1     107.546 129.271 145.864  0.00  0.00    +0.000 A 
ATOM     21  C   UNL     1     106.201 129.388 146.333  0.00  0.00    +0.000 A 
ATOM     22  C   UNL     1     106.921 129.738 146.133  0.00  0.00    +0.000 A 
ENDBRANCH  14  17
ENDBRANCH  11  13
ENDBRANCH   5  11
BRANCH   4  23
ATOM     23  O   UNL     1     105.208 125.668 147.332  0.00  0.00    +0.000 OA
BRANCH  23  32
ATOM     24  O   UNL     1     104.735 124.469 146.719  0.00  0.00    +0.000 OA
ATOM     25  O   UNL     1     102.418 125.053 147.363  0.00  0.00    +0.000 OA
ATOM     26  O   UNL     1     102.717 123.657 146.535  0.00  0.00    +0.000 OA
ATOM     27  O   UNL     1     103.663 126.058 147.761  0.00  0.00    +0.000 OA
ATOM     28  C   UNL     1     103.190 124.858 147.148  0.00  0.00    +0.000 C 
ATOM     29  C   UNL     1     103.340 124.160 146.734  0.00  0.00    +0.000 C 
ATOM     30  C   UNL     1     103.813 125.360 147.347  0.00  0.00    +0.000 C 
ATOM     31  C   UNL     1     104.113 123.965 146.519  0.00  0.00    +0.000 C 
ATOM     32  C   UNL     1     104.586 125.166 147.133  0.00  0.00    +0.000 C 
BRANCH  31  34
ATOM     33  O   UNL     1     104.597 123.298 145.352  0.00  0.00    +0.000 OA
ATOM     34  C   UNL     1     104.262 123.268 146.105  0.00  0.00    +0.000 C 
ENDBRANCH  31  34
ENDBRANCH  23  32
ENDBRANCH   4  23
TORSDOF 6
ENDMDL
MODEL 10
REMARK VINA RESULT:      -8.2      1.863      5.591
REMARK  Name = 42607635
REMARK  6 active torsions:
REMARK  status: ('A' for Active; 'I' for Inactive)
REMARK    1  A    between atoms: O_2  and  C_18
REMARK    2  A    between atoms: O_2  and  C_20
REMARK    3  A    between atoms: C_17  and  C_19
REMARK    4  A    between atoms: C_21  and  C_25
REMARK    5  A    between atoms: C_25  and  C_27
REMARK    6  A    between atoms: C_28  and  C_29
REMARK                            x       y       z     vdW  Elec       q    Type
REMARK                         _______ _______ _______ _____ _____    ______ ____
ROOT
ATOM      1  O   UNL     1     110.969 126.826 134.680  0.00  0.00    +0.000 OA
ATOM      2  O   UNL     1     108.183 127.437 136.339  0.00  0.00    +0.000 OA
ATOM      3  O   UNL     1     109.769 125.694 134.724  0.00  0.00    +0.000 OA
ATOM      4  C   UNL     1     110.176 127.697 135.487  0.00  0.00    +0.000 A 
ATOM      5  C   UNL     1     109.479 127.850 135.903  0.00  0.00    +0.000 A 
ATOM      6  C   UNL     1     110.272 126.978 135.095  0.00  0.00    +0.000 A 
ATOM      7  C   UNL     1     108.879 127.284 135.924  0.00  0.00    +0.000 A 
ATOM      8  C   UNL     1     109.672 126.412 135.116  0.00  0.00    +0.000 A 
ATOM      9  C   UNL     1     108.976 126.565 135.531  0.00  0.00    +0.000 A 
ENDROOT
BRANCH   5  11
ATOM     10  O   UNL     1     109.640 128.651 137.075  0.00  0.00    +0.000 OA
ATOM     11  C   UNL     1     109.382 128.569 136.295  0.00  0.00    +0.000 C 
BRANCH  11  13
ATOM     12  O   UNL     1     108.659 129.092 135.179  0.00  0.00    +0.000 OA
ATOM     13  C   UNL     1     109.028 129.206 135.908  0.00  0.00    +0.000 C 
ATOM     14  C   UNL     1     109.043 129.956 136.250  0.00  0.00    +0.000 C 
BRANCH  14  17
ATOM     15  O   UNL     1     106.782 131.654 135.837  0.00  0.00    +0.000 OA
ATOM     16  O   UNL     1     107.626 132.503 134.702  0.00  0.00    +0.000 OA
ATOM     17  C   UNL     1     108.689 130.593 135.863  0.00  0.00    +0.000 A 
ATOM     18  C   UNL     1     107.912 130.805 136.044  0.00  0.00    +0.000 A 
ATOM     19  C   UNL     1     109.111 131.018 135.295  0.00  0.00    +0.000 A 
ATOM     20  C   UNL     1     107.558 131.442 135.656  0.00  0.00    +0.000 A 
ATOM     21  C   UNL     1     108.757 131.654 134.908  0.00  0.00    +0.000 A 
ATOM     22  C   UNL     1     107.980 131.867 135.089  0.00  0.00    +0.000 A 
ENDBRANCH  14  17
ENDBRANCH  11  13
ENDBRANCH   5  11
BRANCH   4  23
ATOM     23  O   UNL     1     110.776 128.263 135.466  0.00  0.00    +0.000 OA
BRANCH  23  32
ATOM     24  O   UNL     1     111.598 127.557 136.396  0.00  0.00    +0.000 OA
ATOM     25  O   UNL     1     113.612 128.600 135.404  0.00  0.00    +0.000 OA
ATOM     26  O   UNL     1     113.764 127.546 136.665  0.00  0.00    +0.000 OA
ATOM     27  O   UNL     1     112.118 128.958 134.805  0.00  0.00    +0.000 OA
ATOM     28  C   UNL     1     112.941 128.252 135.735  0.00  0.00    +0.000 C 
ATOM     29  C   UNL     1     113.017 127.725 136.366  0.00  0.00    +0.000 C 
ATOM     30  C   UNL     1     112.194 128.431 135.435  0.00  0.00    +0.000 C 
ATOM     31  C   UNL     1     112.346 127.378 136.696  0.00  0.00    +0.000 C 
ATOM     32  C   UNL     1     111.522 128.084 135.766  0.00  0.00    +0.000 C 
BRANCH  31  34
ATOM     33  O   UNL     1     112.088 127.033 138.059  0.00  0.00    +0.000 OA
ATOM     34  C   UNL     1     112.422 126.851 137.326  0.00  0.00    +0.000 C 
ENDBRANCH  31  34
ENDBRANCH  23  32
ENDBRANCH   4  23
TORSDOF 6
ENDMDL
