MODEL 1
REMARK VINA RESULT:     -10.7      0.000      0.000
REMARK  Name = 44257720
REMARK  6 active torsions:
REMARK  status: ('A' for Active; 'I' for Inactive)
REMARK    1  A    between atoms: O_2  and  C_21
REMARK    2  A    between atoms: O_2  and  C_22
REMARK    3  A    between atoms: C_16  and  C_21
REMARK    4  A    between atoms: C_20  and  C_27
REMARK    5  A    between atoms: C_26  and  C_28
REMARK    6  A    between atoms: C_35  and  C_37
REMARK                            x       y       z     vdW  Elec       q    Type
REMARK                         _______ _______ _______ _____ _____    ______ ____
ROOT
ATOM      1  O   UNL     1     112.736 125.995 137.904  0.00  0.00    +0.000 OA
ATOM      2  O   UNL     1     114.758 125.707 138.674  0.00  0.00    +0.000 OA
ATOM      3  O   UNL     1     114.890 125.010 137.184  0.00  0.00    +0.000 OA
ATOM      4  O   UNL     1     113.586 124.970 136.173  0.00  0.00    +0.000 OA
ATOM      5  C   UNL     1     113.387 126.015 138.408  0.00  0.00    +0.000 C 
ATOM      6  C   UNL     1     114.106 125.687 138.168  0.00  0.00    +0.000 C 
ATOM      7  C   UNL     1     114.171 125.339 137.423  0.00  0.00    +0.000 C 
ATOM      8  C   UNL     1     113.520 125.319 136.919  0.00  0.00    +0.000 C 
ATOM      9  C   UNL     1     112.802 125.647 137.158  0.00  0.00    +0.000 C 
ENDROOT
BRANCH   9  14
ATOM     10  O   UNL     1     112.419 127.009 136.299  0.00  0.00    +0.000 OA
ATOM     11  O   UNL     1     111.909 124.267 137.018  0.00  0.00    +0.000 OA
ATOM     12  O   UNL     1     110.195 125.566 135.137  0.00  0.00    +0.000 OA
ATOM     13  O   UNL     1     110.416 126.938 134.750  0.00  0.00    +0.000 OA
ATOM     14  C   UNL     1     112.150 125.627 136.653  0.00  0.00    +0.000 A 
ATOM     15  C   UNL     1     111.945 126.296 136.218  0.00  0.00    +0.000 A 
ATOM     16  C   UNL     1     111.704 124.936 136.583  0.00  0.00    +0.000 A 
ATOM     17  C   UNL     1     111.293 126.276 135.712  0.00  0.00    +0.000 A 
ATOM     18  C   UNL     1     111.051 124.916 136.078  0.00  0.00    +0.000 A 
ATOM     19  C   UNL     1     110.846 125.587 135.642  0.00  0.00    +0.000 A 
ATOM     20  C   UNL     1     111.069 126.968 135.253  0.00  0.00    +0.000 A 
ATOM     21  C   UNL     1     112.210 127.710 135.848  0.00  0.00    +0.000 A 
ATOM     22  C   UNL     1     111.530 127.689 135.321  0.00  0.00    +0.000 A 
BRANCH  21  24
ATOM     23  O   UNL     1     114.004 130.466 136.135  0.00  0.00    +0.000 OA
ATOM     24  C   UNL     1     112.659 128.399 135.920  0.00  0.00    +0.000 A 
ATOM     25  C   UNL     1     113.319 128.513 135.438  0.00  0.00    +0.000 A 
ATOM     26  C   UNL     1     112.447 128.973 136.473  0.00  0.00    +0.000 A 
ATOM     27  C   UNL     1     113.767 129.202 135.510  0.00  0.00    +0.000 A 
ATOM     28  C   UNL     1     112.895 129.662 136.544  0.00  0.00    +0.000 A 
ATOM     29  C   UNL     1     113.556 129.776 136.063  0.00  0.00    +0.000 A 
ENDBRANCH  21  24
ENDBRANCH   9  14
BRANCH   5  30
ATOM     30  C   UNL     1     113.322 126.363 139.153  0.00  0.00    +0.000 C 
BRANCH  30  31
ATOM     31  O   UNL     1     112.580 126.457 139.502  0.00  0.00    +0.000 OA
BRANCH  31  36
ATOM     32  O   UNL     1     112.972 127.588 140.282  0.00  0.00    +0.000 OA
ATOM     33  O   UNL     1     111.469 126.049 140.651  0.00  0.00    +0.000 OA
ATOM     34  O   UNL     1     111.305 126.976 142.006  0.00  0.00    +0.000 OA
ATOM     35  O   UNL     1     112.253 128.311 142.212  0.00  0.00    +0.000 OA
ATOM     36  C   UNL     1     112.499 126.921 140.179  0.00  0.00    +0.000 C 
ATOM     37  C   UNL     1     111.943 126.717 140.755  0.00  0.00    +0.000 C 
ATOM     38  C   UNL     1     111.861 127.180 141.431  0.00  0.00    +0.000 C 
ATOM     39  C   UNL     1     112.334 127.847 141.534  0.00  0.00    +0.000 C 
ATOM     40  C   UNL     1     112.890 128.051 140.959  0.00  0.00    +0.000 C 
BRANCH  40  42
ATOM     41  O   UNL     1     113.539 129.204 140.418  0.00  0.00    +0.000 OA
ATOM     42  C   UNL     1     113.364 128.719 141.062  0.00  0.00    +0.000 C 
ENDBRANCH  40  42
ENDBRANCH  31  36
ENDBRANCH  30  31
ENDBRANCH   5  30
TORSDOF 6
ENDMDL
MODEL 2
REMARK VINA RESULT:     -10.6      1.814      3.876
REMARK  Name = 44257720
REMARK  6 active torsions:
REMARK  status: ('A' for Active; 'I' for Inactive)
REMARK    1  A    between atoms: O_2  and  C_21
REMARK    2  A    between atoms: O_2  and  C_22
REMARK    3  A    between atoms: C_16  and  C_21
REMARK    4  A    between atoms: C_20  and  C_27
REMARK    5  A    between atoms: C_26  and  C_28
REMARK    6  A    between atoms: C_35  and  C_37
REMARK                            x       y       z     vdW  Elec       q    Type
REMARK                         _______ _______ _______ _____ _____    ______ ____
ROOT
ATOM      1  O   UNL     1     111.669 128.980 136.782  0.00  0.00    +0.000 OA
ATOM      2  O   UNL     1     113.775 129.047 136.214  0.00  0.00    +0.000 OA
ATOM      3  O   UNL     1     113.053 129.040 134.730  0.00  0.00    +0.000 OA
ATOM      4  O   UNL     1     111.407 128.994 134.614  0.00  0.00    +0.000 OA
ATOM      5  C   UNL     1     112.491 129.004 136.840  0.00  0.00    +0.000 C 
ATOM      6  C   UNL     1     112.953 129.023 136.156  0.00  0.00    +0.000 C 
ATOM      7  C   UNL     1     112.591 129.020 135.414  0.00  0.00    +0.000 C 
ATOM      8  C   UNL     1     111.769 128.997 135.357  0.00  0.00    +0.000 C 
ATOM      9  C   UNL     1     111.307 128.977 136.040  0.00  0.00    +0.000 C 
ENDROOT
BRANCH   9  14
ATOM     10  O   UNL     1     110.544 127.511 136.131  0.00  0.00    +0.000 OA
ATOM     11  O   UNL     1     110.455 130.375 135.837  0.00  0.00    +0.000 OA
ATOM     12  O   UNL     1     108.017 128.884 135.808  0.00  0.00    +0.000 OA
ATOM     13  O   UNL     1     108.018 127.449 135.952  0.00  0.00    +0.000 OA
ATOM     14  C   UNL     1     110.485 128.954 135.982  0.00  0.00    +0.000 A 
ATOM     15  C   UNL     1     110.089 128.232 136.025  0.00  0.00    +0.000 A 
ATOM     16  C   UNL     1     110.059 129.654 135.880  0.00  0.00    +0.000 A 
ATOM     17  C   UNL     1     109.265 128.209 135.967  0.00  0.00    +0.000 A 
ATOM     18  C   UNL     1     109.235 129.630 135.822  0.00  0.00    +0.000 A 
ATOM     19  C   UNL     1     108.839 128.908 135.866  0.00  0.00    +0.000 A 
ATOM     20  C   UNL     1     108.841 127.463 136.011  0.00  0.00    +0.000 A 
ATOM     21  C   UNL     1     110.137 126.756 136.177  0.00  0.00    +0.000 A 
ATOM     22  C   UNL     1     109.279 126.731 136.116  0.00  0.00    +0.000 A 
BRANCH  21  24
ATOM     23  O   UNL     1     111.852 123.965 136.582  0.00  0.00    +0.000 OA
ATOM     24  C   UNL     1     110.565 126.058 136.278  0.00  0.00    +0.000 A 
ATOM     25  C   UNL     1     110.763 125.802 137.037  0.00  0.00    +0.000 A 
ATOM     26  C   UNL     1     110.797 125.617 135.621  0.00  0.00    +0.000 A 
ATOM     27  C   UNL     1     111.191 125.104 137.139  0.00  0.00    +0.000 A 
ATOM     28  C   UNL     1     111.226 124.920 135.722  0.00  0.00    +0.000 A 
ATOM     29  C   UNL     1     111.423 124.663 136.481  0.00  0.00    +0.000 A 
ENDBRANCH  21  24
ENDBRANCH   9  14
BRANCH   5  30
ATOM     30  C   UNL     1     112.853 129.007 137.581  0.00  0.00    +0.000 C 
BRANCH  30  31
ATOM     31  O   UNL     1     112.498 129.402 138.212  0.00  0.00    +0.000 OA
BRANCH  31  36
ATOM     32  O   UNL     1     113.115 128.653 139.261  0.00  0.00    +0.000 OA
ATOM     33  O   UNL     1     112.628 130.776 139.117  0.00  0.00    +0.000 OA
ATOM     34  O   UNL     1     113.310 130.713 140.618  0.00  0.00    +0.000 OA
ATOM     35  O   UNL     1     113.862 129.277 141.214  0.00  0.00    +0.000 OA
ATOM     36  C   UNL     1     112.839 129.370 138.963  0.00  0.00    +0.000 C 
ATOM     37  C   UNL     1     112.904 130.058 139.416  0.00  0.00    +0.000 C 
ATOM     38  C   UNL     1     113.245 130.026 140.166  0.00  0.00    +0.000 C 
ATOM     39  C   UNL     1     113.521 129.309 140.464  0.00  0.00    +0.000 C 
ATOM     40  C   UNL     1     113.456 128.621 140.011  0.00  0.00    +0.000 C 
BRANCH  40  42
ATOM     41  O   UNL     1     113.315 127.207 140.159  0.00  0.00    +0.000 OA
ATOM     42  C   UNL     1     113.732 127.903 140.309  0.00  0.00    +0.000 C 
ENDBRANCH  40  42
ENDBRANCH  31  36
ENDBRANCH  30  31
ENDBRANCH   5  30
TORSDOF 6
ENDMDL
MODEL 3
REMARK VINA RESULT:     -10.5      1.678      3.132
REMARK  Name = 44257720
REMARK  6 active torsions:
REMARK  status: ('A' for Active; 'I' for Inactive)
REMARK    1  A    between atoms: O_2  and  C_21
REMARK    2  A    between atoms: O_2  and  C_22
REMARK    3  A    between atoms: C_16  and  C_21
REMARK    4  A    between atoms: C_20  and  C_27
REMARK    5  A    between atoms: C_26  and  C_28
REMARK    6  A    between atoms: C_35  and  C_37
REMARK                            x       y       z     vdW  Elec       q    Type
REMARK                         _______ _______ _______ _____ _____    ______ ____
ROOT
ATOM      1  O   UNL     1     110.835 125.852 137.440  0.00  0.00    +0.000 OA
ATOM      2  O   UNL     1     108.915 126.719 136.869  0.00  0.00    +0.000 OA
ATOM      3  O   UNL     1     109.544 126.353 135.388  0.00  0.00    +0.000 OA
ATOM      4  O   UNL     1     111.033 125.652 135.275  0.00  0.00    +0.000 OA
ATOM      5  C   UNL     1     110.091 126.202 137.497  0.00  0.00    +0.000 C 
ATOM      6  C   UNL     1     109.660 126.369 136.813  0.00  0.00    +0.000 C 
ATOM      7  C   UNL     1     109.975 126.185 136.073  0.00  0.00    +0.000 C 
ATOM      8  C   UNL     1     110.719 125.836 136.016  0.00  0.00    +0.000 C 
ATOM      9  C   UNL     1     111.150 125.669 136.699  0.00  0.00    +0.000 C 
ENDROOT
BRANCH   9  14
ATOM     10  O   UNL     1     112.489 126.643 136.694  0.00  0.00    +0.000 OA
ATOM     11  O   UNL     1     111.284 124.027 136.593  0.00  0.00    +0.000 OA
ATOM     12  O   UNL     1     114.129 124.268 136.472  0.00  0.00    +0.000 OA
ATOM     13  O   UNL     1     114.771 125.558 136.520  0.00  0.00    +0.000 OA
ATOM     14  C   UNL     1     111.895 125.318 136.642  0.00  0.00    +0.000 A 
ATOM     15  C   UNL     1     112.572 125.789 136.638  0.00  0.00    +0.000 A 
ATOM     16  C   UNL     1     111.961 124.498 136.589  0.00  0.00    +0.000 A 
ATOM     17  C   UNL     1     113.317 125.438 136.582  0.00  0.00    +0.000 A 
ATOM     18  C   UNL     1     112.707 124.147 136.533  0.00  0.00    +0.000 A 
ATOM     19  C   UNL     1     113.384 124.618 136.529  0.00  0.00    +0.000 A 
ATOM     20  C   UNL     1     114.031 125.918 136.577  0.00  0.00    +0.000 A 
ATOM     21  C   UNL     1     113.191 127.137 136.691  0.00  0.00    +0.000 A 
ATOM     22  C   UNL     1     113.967 126.772 136.632  0.00  0.00    +0.000 A 
BRANCH  21  24
ATOM     23  O   UNL     1     112.911 130.419 136.904  0.00  0.00    +0.000 OA
ATOM     24  C   UNL     1     113.121 127.958 136.744  0.00  0.00    +0.000 A 
ATOM     25  C   UNL     1     113.061 128.412 136.058  0.00  0.00    +0.000 A 
ATOM     26  C   UNL     1     113.111 128.324 137.483  0.00  0.00    +0.000 A 
ATOM     27  C   UNL     1     112.991 129.232 136.111  0.00  0.00    +0.000 A 
ATOM     28  C   UNL     1     113.041 129.144 137.536  0.00  0.00    +0.000 A 
ATOM     29  C   UNL     1     112.981 129.598 136.850  0.00  0.00    +0.000 A 
ENDBRANCH  21  24
ENDBRANCH   9  14
BRANCH   5  30
ATOM     30  C   UNL     1     109.776 126.385 138.237  0.00  0.00    +0.000 C 
BRANCH  30  31
ATOM     31  O   UNL     1     110.277 126.589 138.860  0.00  0.00    +0.000 OA
BRANCH  31  36
ATOM     32  O   UNL     1     109.540 125.983 139.924  0.00  0.00    +0.000 OA
ATOM     33  O   UNL     1     110.590 127.894 139.820  0.00  0.00    +0.000 OA
ATOM     34  O   UNL     1     110.009 127.941 141.363  0.00  0.00    +0.000 OA
ATOM     35  O   UNL     1     109.115 126.683 141.947  0.00  0.00    +0.000 OA
ATOM     36  C   UNL     1     109.986 126.612 139.632  0.00  0.00    +0.000 C 
ATOM     37  C   UNL     1     110.143 127.265 140.112  0.00  0.00    +0.000 C 
ATOM     38  C   UNL     1     109.852 127.288 140.883  0.00  0.00    +0.000 C 
ATOM     39  C   UNL     1     109.406 126.660 141.175  0.00  0.00    +0.000 C 
ATOM     40  C   UNL     1     109.249 126.006 140.695  0.00  0.00    +0.000 C 
BRANCH  40  42
ATOM     41  O   UNL     1     109.115 124.615 140.988  0.00  0.00    +0.000 OA
ATOM     42  C   UNL     1     108.802 125.378 140.987  0.00  0.00    +0.000 C 
ENDBRANCH  40  42
ENDBRANCH  31  36
ENDBRANCH  30  31
ENDBRANCH   5  30
TORSDOF 6
ENDMDL
MODEL 4
REMARK VINA RESULT:     -10.4      1.326      2.805
REMARK  Name = 44257720
REMARK  6 active torsions:
REMARK  status: ('A' for Active; 'I' for Inactive)
REMARK    1  A    between atoms: O_2  and  C_21
REMARK    2  A    between atoms: O_2  and  C_22
REMARK    3  A    between atoms: C_16  and  C_21
REMARK    4  A    between atoms: C_20  and  C_27
REMARK    5  A    between atoms: C_26  and  C_28
REMARK    6  A    between atoms: C_35  and  C_37
REMARK                            x       y       z     vdW  Elec       q    Type
REMARK                         _______ _______ _______ _____ _____    ______ ____
ROOT
ATOM      1  O   UNL     1     112.786 126.883 138.268  0.00  0.00    +0.000 OA
ATOM      2  O   UNL     1     113.025 129.053 138.272  0.00  0.00    +0.000 OA
ATOM      3  O   UNL     1     113.629 128.676 136.784  0.00  0.00    +0.000 OA
ATOM      4  O   UNL     1     113.672 127.104 136.284  0.00  0.00    +0.000 OA
ATOM      5  C   UNL     1     112.765 127.669 138.517  0.00  0.00    +0.000 C 
ATOM      6  C   UNL     1     113.046 128.267 138.023  0.00  0.00    +0.000 C 
ATOM      7  C   UNL     1     113.348 128.078 137.279  0.00  0.00    +0.000 C 
ATOM      8  C   UNL     1     113.369 127.293 137.029  0.00  0.00    +0.000 C 
ATOM      9  C   UNL     1     113.089 126.695 137.523  0.00  0.00    +0.000 C 
ENDROOT
BRANCH   9  14
ATOM     10  O   UNL     1     111.743 126.051 136.805  0.00  0.00    +0.000 OA
ATOM     11  O   UNL     1     114.455 125.796 137.742  0.00  0.00    +0.000 OA
ATOM     12  O   UNL     1     113.174 123.551 136.524  0.00  0.00    +0.000 OA
ATOM     13  O   UNL     1     111.817 123.637 136.042  0.00  0.00    +0.000 OA
ATOM     14  C   UNL     1     113.110 125.909 137.273  0.00  0.00    +0.000 A 
ATOM     15  C   UNL     1     112.449 125.573 136.914  0.00  0.00    +0.000 A 
ATOM     16  C   UNL     1     113.794 125.460 137.383  0.00  0.00    +0.000 A 
ATOM     17  C   UNL     1     112.470 124.786 136.664  0.00  0.00    +0.000 A 
ATOM     18  C   UNL     1     113.815 124.673 137.133  0.00  0.00    +0.000 A 
ATOM     19  C   UNL     1     113.153 124.337 136.774  0.00  0.00    +0.000 A 
ATOM     20  C   UNL     1     111.787 124.424 136.288  0.00  0.00    +0.000 A 
ATOM     21  C   UNL     1     111.050 125.706 136.432  0.00  0.00    +0.000 A 
ATOM     22  C   UNL     1     111.073 124.886 136.171  0.00  0.00    +0.000 A 
BRANCH  21  24
ATOM     23  O   UNL     1     108.323 127.513 135.997  0.00  0.00    +0.000 OA
ATOM     24  C   UNL     1     110.369 126.157 136.323  0.00  0.00    +0.000 A 
ATOM     25  C   UNL     1     109.849 126.278 136.953  0.00  0.00    +0.000 A 
ATOM     26  C   UNL     1     110.206 126.489 135.585  0.00  0.00    +0.000 A 
ATOM     27  C   UNL     1     109.167 126.729 136.844  0.00  0.00    +0.000 A 
ATOM     28  C   UNL     1     109.525 126.940 135.477  0.00  0.00    +0.000 A 
ATOM     29  C   UNL     1     109.005 127.061 136.106  0.00  0.00    +0.000 A 
ENDBRANCH  21  24
ENDBRANCH   9  14
BRANCH   5  30
ATOM     30  C   UNL     1     112.463 127.857 139.261  0.00  0.00    +0.000 C 
BRANCH  30  31
ATOM     31  O   UNL     1     112.165 127.263 139.749  0.00  0.00    +0.000 OA
BRANCH  31  36
ATOM     32  O   UNL     1     112.117 128.134 140.881  0.00  0.00    +0.000 OA
ATOM     33  O   UNL     1     111.046 126.280 140.459  0.00  0.00    +0.000 OA
ATOM     34  O   UNL     1     110.438 126.660 141.945  0.00  0.00    +0.000 OA
ATOM     35  O   UNL     1     110.949 128.023 142.722  0.00  0.00    +0.000 OA
ATOM     36  C   UNL     1     111.862 127.453 140.493  0.00  0.00    +0.000 C 
ATOM     37  C   UNL     1     111.301 126.961 140.848  0.00  0.00    +0.000 C 
ATOM     38  C   UNL     1     110.998 127.151 141.590  0.00  0.00    +0.000 C 
ATOM     39  C   UNL     1     111.253 127.832 141.978  0.00  0.00    +0.000 C 
ATOM     40  C   UNL     1     111.814 128.324 141.623  0.00  0.00    +0.000 C 
BRANCH  40  42
ATOM     41  O   UNL     1     112.840 129.277 141.904  0.00  0.00    +0.000 OA
ATOM     42  C   UNL     1     112.069 129.005 142.013  0.00  0.00    +0.000 C 
ENDBRANCH  40  42
ENDBRANCH  31  36
ENDBRANCH  30  31
ENDBRANCH   5  30
TORSDOF 6
ENDMDL
MODEL 5
REMARK VINA RESULT:     -10.4      2.553      5.475
REMARK  Name = 44257720
REMARK  6 active torsions:
REMARK  status: ('A' for Active; 'I' for Inactive)
REMARK    1  A    between atoms: O_2  and  C_21
REMARK    2  A    between atoms: O_2  and  C_22
REMARK    3  A    between atoms: C_16  and  C_21
REMARK    4  A    between atoms: C_20  and  C_27
REMARK    5  A    between atoms: C_26  and  C_28
REMARK    6  A    between atoms: C_35  and  C_37
REMARK                            x       y       z     vdW  Elec       q    Type
REMARK                         _______ _______ _______ _____ _____    ______ ____
ROOT
ATOM      1  O   UNL     1     112.220 130.457 137.036  0.00  0.00    +0.000 OA
ATOM      2  O   UNL     1     111.313 130.619 139.014  0.00  0.00    +0.000 OA
ATOM      3  O   UNL     1     112.912 130.544 139.411  0.00  0.00    +0.000 OA
ATOM      4  O   UNL     1     114.051 130.412 138.224  0.00  0.00    +0.000 OA
ATOM      5  C   UNL     1     111.652 130.523 137.628  0.00  0.00    +0.000 C 
ATOM      6  C   UNL     1     111.882 130.552 138.421  0.00  0.00    +0.000 C 
ATOM      7  C   UNL     1     112.682 130.515 138.618  0.00  0.00    +0.000 C 
ATOM      8  C   UNL     1     113.251 130.449 138.026  0.00  0.00    +0.000 C 
ATOM      9  C   UNL     1     113.021 130.420 137.234  0.00  0.00    +0.000 C 
ENDROOT
BRANCH   9  14
ATOM     10  O   UNL     1     113.359 128.920 136.620  0.00  0.00    +0.000 OA
ATOM     11  O   UNL     1     113.799 131.767 136.683  0.00  0.00    +0.000 OA
ATOM     12  O   UNL     1     115.299 130.154 134.862  0.00  0.00    +0.000 OA
ATOM     13  O   UNL     1     115.109 128.726 134.799  0.00  0.00    +0.000 OA
ATOM     14  C   UNL     1     113.591 130.353 136.641  0.00  0.00    +0.000 A 
ATOM     15  C   UNL     1     113.771 129.614 136.324  0.00  0.00    +0.000 A 
ATOM     16  C   UNL     1     113.979 131.027 136.366  0.00  0.00    +0.000 A 
ATOM     17  C   UNL     1     114.341 129.548 135.730  0.00  0.00    +0.000 A 
ATOM     18  C   UNL     1     114.549 130.961 135.772  0.00  0.00    +0.000 A 
ATOM     19  C   UNL     1     114.730 130.221 135.455  0.00  0.00    +0.000 A 
ATOM     20  C   UNL     1     114.538 128.783 135.391  0.00  0.00    +0.000 A 
ATOM     21  C   UNL     1     113.543 128.147 136.293  0.00  0.00    +0.000 A 
ATOM     22  C   UNL     1     114.137 128.078 135.675  0.00  0.00    +0.000 A 
BRANCH  21  24
ATOM     23  O   UNL     1     111.982 125.460 137.404  0.00  0.00    +0.000 OA
ATOM     24  C   UNL     1     113.153 127.475 136.570  0.00  0.00    +0.000 A 
ATOM     25  C   UNL     1     112.491 127.188 136.171  0.00  0.00    +0.000 A 
ATOM     26  C   UNL     1     113.425 127.091 137.248  0.00  0.00    +0.000 A 
ATOM     27  C   UNL     1     112.101 126.516 136.448  0.00  0.00    +0.000 A 
ATOM     28  C   UNL     1     113.034 126.419 137.525  0.00  0.00    +0.000 A 
ATOM     29  C   UNL     1     112.372 126.132 137.126  0.00  0.00    +0.000 A 
ENDBRANCH  21  24
ENDBRANCH   9  14
BRANCH   5  30
ATOM     30  C   UNL     1     110.852 130.560 137.431  0.00  0.00    +0.000 C 
BRANCH  30  31
ATOM     31  O   UNL     1     110.560 130.111 136.803  0.00  0.00    +0.000 OA
BRANCH  31  36
ATOM     32  O   UNL     1     109.487 130.988 136.456  0.00  0.00    +0.000 OA
ATOM     33  O   UNL     1     109.613 128.809 136.442  0.00  0.00    +0.000 OA
ATOM     34  O   UNL     1     108.065 129.036 135.915  0.00  0.00    +0.000 OA
ATOM     35  O   UNL     1     107.466 130.564 135.749  0.00  0.00    +0.000 OA
ATOM     36  C   UNL     1     109.786 130.225 136.540  0.00  0.00    +0.000 C 
ATOM     37  C   UNL     1     109.312 129.573 136.359  0.00  0.00    +0.000 C 
ATOM     38  C   UNL     1     108.539 129.687 136.096  0.00  0.00    +0.000 C 
ATOM     39  C   UNL     1     108.239 130.450 136.013  0.00  0.00    +0.000 C 
ATOM     40  C   UNL     1     108.714 131.102 136.193  0.00  0.00    +0.000 C 
BRANCH  40  42
ATOM     41  O   UNL     1     108.878 132.456 135.769  0.00  0.00    +0.000 OA
ATOM     42  C   UNL     1     108.413 131.866 136.110  0.00  0.00    +0.000 C 
ENDBRANCH  40  42
ENDBRANCH  31  36
ENDBRANCH  30  31
ENDBRANCH   5  30
TORSDOF 6
ENDMDL
MODEL 6
REMARK VINA RESULT:     -10.4      1.652      3.435
REMARK  Name = 44257720
REMARK  6 active torsions:
REMARK  status: ('A' for Active; 'I' for Inactive)
REMARK    1  A    between atoms: O_2  and  C_21
REMARK    2  A    between atoms: O_2  and  C_22
REMARK    3  A    between atoms: C_16  and  C_21
REMARK    4  A    between atoms: C_20  and  C_27
REMARK    5  A    between atoms: C_26  and  C_28
REMARK    6  A    between atoms: C_35  and  C_37
REMARK                            x       y       z     vdW  Elec       q    Type
REMARK                         _______ _______ _______ _____ _____    ______ ____
ROOT
ATOM      1  O   UNL     1     111.254 127.358 138.591  0.00  0.00    +0.000 OA
ATOM      2  O   UNL     1     111.766 127.059 140.691  0.00  0.00    +0.000 OA
ATOM      3  O   UNL     1     110.789 125.757 140.420  0.00  0.00    +0.000 OA
ATOM      4  O   UNL     1     110.121 125.522 138.930  0.00  0.00    +0.000 OA
ATOM      5  C   UNL     1     111.587 127.475 139.335  0.00  0.00    +0.000 C 
ATOM      6  C   UNL     1     111.432 126.942 139.946  0.00  0.00    +0.000 C 
ATOM      7  C   UNL     1     110.943 126.291 139.810  0.00  0.00    +0.000 C 
ATOM      8  C   UNL     1     110.610 126.174 139.065  0.00  0.00    +0.000 C 
ATOM      9  C   UNL     1     110.765 126.707 138.455  0.00  0.00    +0.000 C 
ENDROOT
BRANCH   9  14
ATOM     10  O   UNL     1     111.674 125.974 137.282  0.00  0.00    +0.000 OA
ATOM     11  O   UNL     1     109.218 127.199 138.157  0.00  0.00    +0.000 OA
ATOM     12  O   UNL     1     109.429 126.237 135.474  0.00  0.00    +0.000 OA
ATOM     13  O   UNL     1     110.641 125.617 134.997  0.00  0.00    +0.000 OA
ATOM     14  C   UNL     1     110.431 126.589 137.710  0.00  0.00    +0.000 A 
ATOM     15  C   UNL     1     110.870 126.226 137.114  0.00  0.00    +0.000 A 
ATOM     16  C   UNL     1     109.657 126.836 137.561  0.00  0.00    +0.000 A 
ATOM     17  C   UNL     1     110.536 126.108 136.368  0.00  0.00    +0.000 A 
ATOM     18  C   UNL     1     109.323 126.718 136.815  0.00  0.00    +0.000 A 
ATOM     19  C   UNL     1     109.763 126.354 136.219  0.00  0.00    +0.000 A 
ATOM     20  C   UNL     1     110.983 125.731 135.739  0.00  0.00    +0.000 A 
ATOM     21  C   UNL     1     112.137 125.595 136.665  0.00  0.00    +0.000 A 
ATOM     22  C   UNL     1     111.789 125.472 135.888  0.00  0.00    +0.000 A 
BRANCH  21  24
ATOM     23  O   UNL     1     115.229 124.613 137.273  0.00  0.00    +0.000 OA
ATOM     24  C   UNL     1     112.910 125.349 136.817  0.00  0.00    +0.000 A 
ATOM     25  C   UNL     1     113.538 125.873 136.706  0.00  0.00    +0.000 A 
ATOM     26  C   UNL     1     113.054 124.581 137.080  0.00  0.00    +0.000 A 
ATOM     27  C   UNL     1     114.311 125.628 136.858  0.00  0.00    +0.000 A 
ATOM     28  C   UNL     1     113.827 124.336 137.231  0.00  0.00    +0.000 A 
ATOM     29  C   UNL     1     114.456 124.859 137.120  0.00  0.00    +0.000 A 
ENDBRANCH  21  24
ENDBRANCH   9  14
BRANCH   5  30
ATOM     30  C   UNL     1     112.076 128.126 139.471  0.00  0.00    +0.000 C 
BRANCH  30  31
ATOM     31  O   UNL     1     112.333 128.589 138.838  0.00  0.00    +0.000 OA
BRANCH  31  36
ATOM     32  O   UNL     1     113.002 129.480 139.732  0.00  0.00    +0.000 OA
ATOM     33  O   UNL     1     113.138 129.262 137.565  0.00  0.00    +0.000 OA
ATOM     34  O   UNL     1     114.210 130.490 137.822  0.00  0.00    +0.000 OA
ATOM     35  O   UNL     1     114.476 131.044 139.353  0.00  0.00    +0.000 OA
ATOM     36  C   UNL     1     112.868 129.203 138.968  0.00  0.00    +0.000 C 
ATOM     37  C   UNL     1     113.272 129.540 138.330  0.00  0.00    +0.000 C 
ATOM     38  C   UNL     1     113.807 130.153 138.459  0.00  0.00    +0.000 C 
ATOM     39  C   UNL     1     113.940 130.430 139.224  0.00  0.00    +0.000 C 
ATOM     40  C   UNL     1     113.537 130.093 139.861  0.00  0.00    +0.000 C 
BRANCH  40  42
ATOM     41  O   UNL     1     113.041 130.653 141.079  0.00  0.00    +0.000 OA
ATOM     42  C   UNL     1     113.671 130.371 140.627  0.00  0.00    +0.000 C 
ENDBRANCH  40  42
ENDBRANCH  31  36
ENDBRANCH  30  31
ENDBRANCH   5  30
TORSDOF 6
ENDMDL
MODEL 7
REMARK VINA RESULT:     -10.4      2.067      4.551
REMARK  Name = 44257720
REMARK  6 active torsions:
REMARK  status: ('A' for Active; 'I' for Inactive)
REMARK    1  A    between atoms: O_2  and  C_21
REMARK    2  A    between atoms: O_2  and  C_22
REMARK    3  A    between atoms: C_16  and  C_21
REMARK    4  A    between atoms: C_20  and  C_27
REMARK    5  A    between atoms: C_26  and  C_28
REMARK    6  A    between atoms: C_35  and  C_37
REMARK                            x       y       z     vdW  Elec       q    Type
REMARK                         _______ _______ _______ _____ _____    ______ ____
ROOT
ATOM      1  O   UNL     1     110.929 126.623 137.592  0.00  0.00    +0.000 OA
ATOM      2  O   UNL     1     109.159 127.065 138.789  0.00  0.00    +0.000 OA
ATOM      3  O   UNL     1     109.623 125.622 139.441  0.00  0.00    +0.000 OA
ATOM      4  O   UNL     1     110.959 124.846 138.861  0.00  0.00    +0.000 OA
ATOM      5  C   UNL     1     110.262 127.010 137.882  0.00  0.00    +0.000 C 
ATOM      6  C   UNL     1     109.826 126.677 138.499  0.00  0.00    +0.000 C 
ATOM      7  C   UNL     1     110.059 125.956 138.824  0.00  0.00    +0.000 C 
ATOM      8  C   UNL     1     110.726 125.568 138.535  0.00  0.00    +0.000 C 
ATOM      9  C   UNL     1     111.162 125.901 137.919  0.00  0.00    +0.000 C 
ENDROOT
BRANCH   9  14
ATOM     10  O   UNL     1     112.644 126.290 138.547  0.00  0.00    +0.000 OA
ATOM     11  O   UNL     1     111.006 124.762 136.735  0.00  0.00    +0.000 OA
ATOM     12  O   UNL     1     113.833 124.350 136.758  0.00  0.00    +0.000 OA
ATOM     13  O   UNL     1     114.689 125.093 137.650  0.00  0.00    +0.000 OA
ATOM     14  C   UNL     1     111.830 125.513 137.628  0.00  0.00    +0.000 A 
ATOM     15  C   UNL     1     112.575 125.695 137.930  0.00  0.00    +0.000 A 
ATOM     16  C   UNL     1     111.751 124.944 137.036  0.00  0.00    +0.000 A 
ATOM     17  C   UNL     1     113.244 125.306 137.640  0.00  0.00    +0.000 A 
ATOM     18  C   UNL     1     112.420 124.556 136.746  0.00  0.00    +0.000 A 
ATOM     19  C   UNL     1     113.166 124.737 137.048  0.00  0.00    +0.000 A 
ATOM     20  C   UNL     1     114.027 125.487 137.946  0.00  0.00    +0.000 A 
ATOM     21  C   UNL     1     113.418 126.483 138.865  0.00  0.00    +0.000 A 
ATOM     22  C   UNL     1     114.114 126.078 138.562  0.00  0.00    +0.000 A 
BRANCH  21  24
ATOM     23  O   UNL     1     113.720 128.761 141.234  0.00  0.00    +0.000 OA
ATOM     24  C   UNL     1     113.494 127.052 139.457  0.00  0.00    +0.000 A 
ATOM     25  C   UNL     1     113.515 127.853 139.259  0.00  0.00    +0.000 A 
ATOM     26  C   UNL     1     113.548 126.821 140.247  0.00  0.00    +0.000 A 
ATOM     27  C   UNL     1     113.590 128.423 139.851  0.00  0.00    +0.000 A 
ATOM     28  C   UNL     1     113.623 127.391 140.839  0.00  0.00    +0.000 A 
ATOM     29  C   UNL     1     113.644 128.192 140.641  0.00  0.00    +0.000 A 
ENDBRANCH  21  24
ENDBRANCH   9  14
BRANCH   5  30
ATOM     30  C   UNL     1     110.030 127.732 137.556  0.00  0.00    +0.000 C 
BRANCH  30  31
ATOM     31  O   UNL     1     110.574 128.192 137.141  0.00  0.00    +0.000 OA
BRANCH  31  36
ATOM     32  O   UNL     1     109.563 128.985 136.515  0.00  0.00    +0.000 OA
ATOM     33  O   UNL     1     111.638 129.447 137.013  0.00  0.00    +0.000 OA
ATOM     34  O   UNL     1     111.159 130.867 136.322  0.00  0.00    +0.000 OA
ATOM     35  O   UNL     1     109.617 131.032 135.760  0.00  0.00    +0.000 OA
ATOM     36  C   UNL     1     110.334 128.902 136.795  0.00  0.00    +0.000 C 
ATOM     37  C   UNL     1     110.866 129.530 136.731  0.00  0.00    +0.000 C 
ATOM     38  C   UNL     1     110.627 130.240 136.386  0.00  0.00    +0.000 C 
ATOM     39  C   UNL     1     109.857 130.322 136.105  0.00  0.00    +0.000 C 
ATOM     40  C   UNL     1     109.324 129.694 136.170  0.00  0.00    +0.000 C 
BRANCH  40  42
ATOM     41  O   UNL     1     108.059 129.119 135.837  0.00  0.00    +0.000 OA
ATOM     42  C   UNL     1     108.553 129.778 135.888  0.00  0.00    +0.000 C 
ENDBRANCH  40  42
ENDBRANCH  31  36
ENDBRANCH  30  31
ENDBRANCH   5  30
TORSDOF 6
ENDMDL
MODEL 8
REMARK VINA RESULT:     -10.4      7.680     11.629
REMARK  Name = 44257720
REMARK  6 active torsions:
REMARK  status: ('A' for Active; 'I' for Inactive)
REMARK    1  A    between atoms: O_2  and  C_21
REMARK    2  A    between atoms: O_2  and  C_22
REMARK    3  A    between atoms: C_16  and  C_21
REMARK    4  A    between atoms: C_20  and  C_27
REMARK    5  A    between atoms: C_26  and  C_28
REMARK    6  A    between atoms: C_35  and  C_37
REMARK                            x       y       z     vdW  Elec       q    Type
REMARK                         _______ _______ _______ _____ _____    ______ ____
ROOT
ATOM      1  O   UNL     1     106.329 126.314 145.334  0.00  0.00    +0.000 OA
ATOM      2  O   UNL     1     105.203 127.862 144.285  0.00  0.00    +0.000 OA
ATOM      3  O   UNL     1     105.119 128.414 145.838  0.00  0.00    +0.000 OA
ATOM      4  O   UNL     1     105.841 127.566 147.055  0.00  0.00    +0.000 OA
ATOM      5  C   UNL     1     105.968 126.738 144.726  0.00  0.00    +0.000 C 
ATOM      6  C   UNL     1     105.564 127.438 144.894  0.00  0.00    +0.000 C 
ATOM      7  C   UNL     1     105.522 127.714 145.670  0.00  0.00    +0.000 C 
ATOM      8  C   UNL     1     105.883 127.290 146.278  0.00  0.00    +0.000 C 
ATOM      9  C   UNL     1     106.287 126.590 146.111  0.00  0.00    +0.000 C 
ENDROOT
BRANCH   9  14
ATOM     10  O   UNL     1     105.456 125.342 146.813  0.00  0.00    +0.000 OA
ATOM     11  O   UNL     1     107.808 126.992 146.606  0.00  0.00    +0.000 OA
ATOM     12  O   UNL     1     107.732 124.894 148.545  0.00  0.00    +0.000 OA
ATOM     13  O   UNL     1     106.574 124.046 148.680  0.00  0.00    +0.000 OA
ATOM     14  C   UNL     1     106.648 126.166 146.719  0.00  0.00    +0.000 A 
ATOM     15  C   UNL     1     106.249 125.542 147.080  0.00  0.00    +0.000 A 
ATOM     16  C   UNL     1     107.409 126.368 146.966  0.00  0.00    +0.000 A 
ATOM     17  C   UNL     1     106.610 125.117 147.689  0.00  0.00    +0.000 A 
ATOM     18  C   UNL     1     107.771 125.943 147.576  0.00  0.00    +0.000 A 
ATOM     19  C   UNL     1     107.371 125.318 147.936  0.00  0.00    +0.000 A 
ATOM     20  C   UNL     1     106.204 124.464 148.073  0.00  0.00    +0.000 A 
ATOM     21  C   UNL     1     105.035 124.692 147.185  0.00  0.00    +0.000 A 
ATOM     22  C   UNL     1     105.412 124.250 147.819  0.00  0.00    +0.000 A 
BRANCH  21  24
ATOM     23  O   UNL     1     101.992 123.896 146.186  0.00  0.00    +0.000 OA
ATOM     24  C   UNL     1     104.274 124.493 146.935  0.00  0.00    +0.000 A 
ATOM     25  C   UNL     1     103.620 124.869 147.268  0.00  0.00    +0.000 A 
ATOM     26  C   UNL     1     104.168 123.918 146.353  0.00  0.00    +0.000 A 
ATOM     27  C   UNL     1     102.859 124.670 147.018  0.00  0.00    +0.000 A 
ATOM     28  C   UNL     1     103.408 123.719 146.104  0.00  0.00    +0.000 A 
ATOM     29  C   UNL     1     102.753 124.095 146.436  0.00  0.00    +0.000 A 
ENDBRANCH  21  24
ENDBRANCH   9  14
BRANCH   5  30
ATOM     30  C   UNL     1     106.009 126.463 143.949  0.00  0.00    +0.000 C 
BRANCH  30  31
ATOM     31  O   UNL     1     106.187 125.671 143.801  0.00  0.00    +0.000 OA
BRANCH  31  36
ATOM     32  O   UNL     1     106.913 125.764 142.574  0.00  0.00    +0.000 OA
ATOM     33  O   UNL     1     105.261 124.464 143.161  0.00  0.00    +0.000 OA
ATOM     34  O   UNL     1     105.525 123.955 141.613  0.00  0.00    +0.000 OA
ATOM     35  O   UNL     1     106.714 124.652 140.707  0.00  0.00    +0.000 OA
ATOM     36  C   UNL     1     106.319 125.416 143.027  0.00  0.00    +0.000 C 
ATOM     37  C   UNL     1     105.856 124.812 142.706  0.00  0.00    +0.000 C 
ATOM     38  C   UNL     1     105.988 124.558 141.934  0.00  0.00    +0.000 C 
ATOM     39  C   UNL     1     106.582 124.906 141.480  0.00  0.00    +0.000 C 
ATOM     40  C   UNL     1     107.045 125.510 141.801  0.00  0.00    +0.000 C 
BRANCH  40  42
ATOM     41  O   UNL     1     108.327 126.134 141.710  0.00  0.00    +0.000 OA
ATOM     42  C   UNL     1     107.640 125.858 141.347  0.00  0.00    +0.000 C 
ENDBRANCH  40  42
ENDBRANCH  31  36
ENDBRANCH  30  31
ENDBRANCH   5  30
TORSDOF 6
ENDMDL
MODEL 9
REMARK VINA RESULT:     -10.3      1.381      3.338
REMARK  Name = 44257720
REMARK  6 active torsions:
REMARK  status: ('A' for Active; 'I' for Inactive)
REMARK    1  A    between atoms: O_2  and  C_21
REMARK    2  A    between atoms: O_2  and  C_22
REMARK    3  A    between atoms: C_16  and  C_21
REMARK    4  A    between atoms: C_20  and  C_27
REMARK    5  A    between atoms: C_26  and  C_28
REMARK    6  A    between atoms: C_35  and  C_37
REMARK                            x       y       z     vdW  Elec       q    Type
REMARK                         _______ _______ _______ _____ _____    ______ ____
ROOT
ATOM      1  O   UNL     1     112.461 128.713 136.778  0.00  0.00    +0.000 OA
ATOM      2  O   UNL     1     114.264 129.918 136.531  0.00  0.00    +0.000 OA
ATOM      3  O   UNL     1     113.965 129.479 134.968  0.00  0.00    +0.000 OA
ATOM      4  O   UNL     1     112.663 128.530 134.612  0.00  0.00    +0.000 OA
ATOM      5  C   UNL     1     113.111 129.187 136.956  0.00  0.00    +0.000 C 
ATOM      6  C   UNL     1     113.613 129.443 136.353  0.00  0.00    +0.000 C 
ATOM      7  C   UNL     1     113.463 129.223 135.572  0.00  0.00    +0.000 C 
ATOM      8  C   UNL     1     112.813 128.749 135.394  0.00  0.00    +0.000 C 
ATOM      9  C   UNL     1     112.311 128.494 135.997  0.00  0.00    +0.000 C 
ENDROOT
BRANCH   9  14
ATOM     10  O   UNL     1     112.422 126.862 136.254  0.00  0.00    +0.000 OA
ATOM     11  O   UNL     1     110.933 129.174 135.396  0.00  0.00    +0.000 OA
ATOM     12  O   UNL     1     109.708 126.595 135.284  0.00  0.00    +0.000 OA
ATOM     13  O   UNL     1     110.419 125.412 135.704  0.00  0.00    +0.000 OA
ATOM     14  C   UNL     1     111.660 128.019 135.818  0.00  0.00    +0.000 A 
ATOM     15  C   UNL     1     111.699 127.205 135.940  0.00  0.00    +0.000 A 
ATOM     16  C   UNL     1     110.971 128.360 135.518  0.00  0.00    +0.000 A 
ATOM     17  C   UNL     1     111.047 126.729 135.762  0.00  0.00    +0.000 A 
ATOM     18  C   UNL     1     110.320 127.885 135.340  0.00  0.00    +0.000 A 
ATOM     19  C   UNL     1     110.359 127.070 135.462  0.00  0.00    +0.000 A 
ATOM     20  C   UNL     1     111.075 125.879 135.885  0.00  0.00    +0.000 A 
ATOM     21  C   UNL     1     112.468 126.014 136.383  0.00  0.00    +0.000 A 
ATOM     22  C   UNL     1     111.789 125.519 136.197  0.00  0.00    +0.000 A 
BRANCH  21  24
ATOM     23  O   UNL     1     115.229 124.663 137.584  0.00  0.00    +0.000 OA
ATOM     24  C   UNL     1     113.158 125.676 136.683  0.00  0.00    +0.000 A 
ATOM     25  C   UNL     1     113.734 125.387 136.167  0.00  0.00    +0.000 A 
ATOM     26  C   UNL     1     113.272 125.627 137.498  0.00  0.00    +0.000 A 
ATOM     27  C   UNL     1     114.424 125.049 136.468  0.00  0.00    +0.000 A 
ATOM     28  C   UNL     1     113.963 125.290 137.799  0.00  0.00    +0.000 A 
ATOM     29  C   UNL     1     114.538 125.000 137.283  0.00  0.00    +0.000 A 
ENDBRANCH  21  24
ENDBRANCH   9  14
BRANCH   5  30
ATOM     30  C   UNL     1     113.260 129.407 137.737  0.00  0.00    +0.000 C 
BRANCH  30  31
ATOM     31  O   UNL     1     112.638 129.471 138.275  0.00  0.00    +0.000 OA
BRANCH  31  36
ATOM     32  O   UNL     1     113.281 128.967 139.447  0.00  0.00    +0.000 OA
ATOM     33  O   UNL     1     111.980 130.697 139.162  0.00  0.00    +0.000 OA
ATOM     34  O   UNL     1     112.294 130.806 140.778  0.00  0.00    +0.000 OA
ATOM     35  O   UNL     1     113.267 129.690 141.507  0.00  0.00    +0.000 OA
ATOM     36  C   UNL     1     112.796 129.525 139.083  0.00  0.00    +0.000 C 
ATOM     37  C   UNL     1     112.466 130.139 139.527  0.00  0.00    +0.000 C 
ATOM     38  C   UNL     1     112.623 130.193 140.335  0.00  0.00    +0.000 C 
ATOM     39  C   UNL     1     113.109 129.635 140.699  0.00  0.00    +0.000 C 
ATOM     40  C   UNL     1     113.438 129.022 140.255  0.00  0.00    +0.000 C 
BRANCH  40  42
ATOM     41  O   UNL     1     113.858 127.666 140.420  0.00  0.00    +0.000 OA
ATOM     42  C   UNL     1     113.924 128.464 140.620  0.00  0.00    +0.000 C 
ENDBRANCH  40  42
ENDBRANCH  31  36
ENDBRANCH  30  31
ENDBRANCH   5  30
TORSDOF 6
ENDMDL
MODEL 10
REMARK VINA RESULT:     -10.3      1.728      4.412
REMARK  Name = 44257720
REMARK  6 active torsions:
REMARK  status: ('A' for Active; 'I' for Inactive)
REMARK    1  A    between atoms: O_2  and  C_21
REMARK    2  A    between atoms: O_2  and  C_22
REMARK    3  A    between atoms: C_16  and  C_21
REMARK    4  A    between atoms: C_20  and  C_27
REMARK    5  A    between atoms: C_26  and  C_28
REMARK    6  A    between atoms: C_35  and  C_37
REMARK                            x       y       z     vdW  Elec       q    Type
REMARK                         _______ _______ _______ _____ _____    ______ ____
ROOT
ATOM      1  O   UNL     1     111.985 127.620 138.594  0.00  0.00    +0.000 OA
ATOM      2  O   UNL     1     110.061 127.994 139.554  0.00  0.00    +0.000 OA
ATOM      3  O   UNL     1     110.411 126.489 140.133  0.00  0.00    +0.000 OA
ATOM      4  O   UNL     1     111.811 125.738 139.686  0.00  0.00    +0.000 OA
ATOM      5  C   UNL     1     111.286 127.996 138.817  0.00  0.00    +0.000 C 
ATOM      6  C   UNL     1     110.761 127.619 139.331  0.00  0.00    +0.000 C 
ATOM      7  C   UNL     1     110.937 126.866 139.620  0.00  0.00    +0.000 C 
ATOM      8  C   UNL     1     111.635 126.491 139.396  0.00  0.00    +0.000 C 
ATOM      9  C   UNL     1     112.160 126.867 138.883  0.00  0.00    +0.000 C 
ENDROOT
BRANCH   9  14
ATOM     10  O   UNL     1     112.227 126.123 137.405  0.00  0.00    +0.000 OA
ATOM     11  O   UNL     1     113.459 126.867 139.901  0.00  0.00    +0.000 OA
ATOM     12  O   UNL     1     114.959 125.365 137.988  0.00  0.00    +0.000 OA
ATOM     13  O   UNL     1     114.379 124.973 136.727  0.00  0.00    +0.000 OA
ATOM     14  C   UNL     1     112.860 126.492 138.659  0.00  0.00    +0.000 A 
ATOM     15  C   UNL     1     112.910 126.116 137.927  0.00  0.00    +0.000 A 
ATOM     16  C   UNL     1     113.509 126.492 139.169  0.00  0.00    +0.000 A 
ATOM     17  C   UNL     1     113.610 125.740 137.703  0.00  0.00    +0.000 A 
ATOM     18  C   UNL     1     114.209 126.116 138.945  0.00  0.00    +0.000 A 
ATOM     19  C   UNL     1     114.259 125.740 138.212  0.00  0.00    +0.000 A 
ATOM     20  C   UNL     1     113.675 125.346 136.942  0.00  0.00    +0.000 A 
ATOM     21  C   UNL     1     112.273 125.734 136.641  0.00  0.00    +0.000 A 
ATOM     22  C   UNL     1     113.002 125.342 136.408  0.00  0.00    +0.000 A 
BRANCH  21  24
ATOM     23  O   UNL     1     109.670 125.741 134.612  0.00  0.00    +0.000 OA
ATOM     24  C   UNL     1     111.622 125.735 136.134  0.00  0.00    +0.000 A 
ATOM     25  C   UNL     1     111.111 125.088 136.117  0.00  0.00    +0.000 A 
ATOM     26  C   UNL     1     111.483 126.384 135.644  0.00  0.00    +0.000 A 
ATOM     27  C   UNL     1     110.460 125.090 135.610  0.00  0.00    +0.000 A 
ATOM     28  C   UNL     1     110.832 126.386 135.137  0.00  0.00    +0.000 A 
ATOM     29  C   UNL     1     110.321 125.739 135.120  0.00  0.00    +0.000 A 
ENDBRANCH  21  24
ENDBRANCH   9  14
BRANCH   5  30
ATOM     30  C   UNL     1     111.111 128.748 138.528  0.00  0.00    +0.000 C 
BRANCH  30  31
ATOM     31  O   UNL     1     111.712 129.226 138.227  0.00  0.00    +0.000 OA
BRANCH  31  36
ATOM     32  O   UNL     1     111.022 129.835 137.134  0.00  0.00    +0.000 OA
ATOM     33  O   UNL     1     112.339 130.692 138.650  0.00  0.00    +0.000 OA
ATOM     34  O   UNL     1     111.963 132.035 137.768  0.00  0.00    +0.000 OA
ATOM     35  O   UNL     1     110.959 131.912 136.464  0.00  0.00    +0.000 OA
ATOM     36  C   UNL     1     111.524 129.897 137.786  0.00  0.00    +0.000 C 
ATOM     37  C   UNL     1     111.837 130.631 137.997  0.00  0.00    +0.000 C 
ATOM     38  C   UNL     1     111.649 131.302 137.557  0.00  0.00    +0.000 C 
ATOM     39  C   UNL     1     111.148 131.240 136.905  0.00  0.00    +0.000 C 
ATOM     40  C   UNL     1     110.834 130.506 136.694  0.00  0.00    +0.000 C 
BRANCH  40  42
ATOM     41  O   UNL     1     110.374 129.784 135.550  0.00  0.00    +0.000 OA
ATOM     42  C   UNL     1     110.332 130.445 136.042  0.00  0.00    +0.000 C 
ENDBRANCH  40  42
ENDBRANCH  31  36
ENDBRANCH  30  31
ENDBRANCH   5  30
TORSDOF 6
ENDMDL
