MODEL 1
REMARK VINA RESULT:      -7.8      0.000      0.000
REMARK  Name = 10686879
REMARK  4 active torsions:
REMARK  status: ('A' for Active; 'I' for Inactive)
REMARK    1  A    between atoms: O_3  and  C_17
REMARK    2  A    between atoms: O_4  and  C_18
REMARK    3  A    between atoms: O_5  and  C_19
REMARK    4  A    between atoms: C_6  and  C_10
REMARK                            x       y       z     vdW  Elec       q    Type
REMARK                         _______ _______ _______ _____ _____    ______ ____
ROOT
ATOM      1  O   UNL     1     104.877 124.543 147.674  0.00  0.00    +0.000 OA
ATOM      2  O   UNL     1     107.281 125.408 146.324  0.00  0.00    +0.000 OA
ATOM      3  C   UNL     1     104.469 124.561 146.956  0.00  0.00    +0.000 C 
ATOM      4  C   UNL     1     104.860 124.785 146.265  0.00  0.00    +0.000 C 
ATOM      5  C   UNL     1     105.659 124.989 146.291  0.00  0.00    +0.000 C 
ATOM      6  C   UNL     1     106.067 124.971 147.007  0.00  0.00    +0.000 A 
ATOM      7  C   UNL     1     105.676 124.747 147.699  0.00  0.00    +0.000 A 
ATOM      8  C   UNL     1     106.899 125.186 147.021  0.00  0.00    +0.000 A 
ATOM      9  C   UNL     1     106.090 124.724 148.451  0.00  0.00    +0.000 A 
ATOM     10  C   UNL     1     107.329 125.169 147.764  0.00  0.00    +0.000 A 
ATOM     11  C   UNL     1     106.922 124.936 148.484  0.00  0.00    +0.000 A 
ENDROOT
BRANCH   3  12
ATOM     12  C   UNL     1     103.670 124.356 146.932  0.00  0.00    +0.000 A 
ATOM     13  C   UNL     1     103.105 124.856 147.265  0.00  0.00    +0.000 A 
ATOM     14  C   UNL     1     103.437 123.650 146.573  0.00  0.00    +0.000 A 
ATOM     15  C   UNL     1     102.638 123.446 146.548  0.00  0.00    +0.000 A 
ATOM     16  C   UNL     1     102.307 124.650 147.240  0.00  0.00    +0.000 A 
ATOM     17  C   UNL     1     102.073 123.946 146.882  0.00  0.00    +0.000 A 
BRANCH  15  18
ATOM     18  O   UNL     1     102.405 122.740 146.189  0.00  0.00    +0.000 OA
ATOM     19  C   UNL     1     102.046 122.754 145.447  0.00  0.00    +0.000 C 
ENDBRANCH  15  18
BRANCH  16  20
ATOM     20  O   UNL     1     101.741 125.150 147.573  0.00  0.00    +0.000 OA
ATOM     21  C   UNL     1     101.464 125.009 148.337  0.00  0.00    +0.000 C 
ENDBRANCH  16  20
ENDBRANCH   3  12
BRANCH  11  22
ATOM     22  O   UNL     1     107.327 124.916 149.203  0.00  0.00    +0.000 OA
ATOM     23  C   UNL     1     107.775 124.254 149.406  0.00  0.00    +0.000 C 
ENDBRANCH  11  22
TORSDOF 4
ENDMDL
MODEL 2
REMARK VINA RESULT:      -7.5     12.495     14.062
REMARK  Name = 10686879
REMARK  4 active torsions:
REMARK  status: ('A' for Active; 'I' for Inactive)
REMARK    1  A    between atoms: O_3  and  C_17
REMARK    2  A    between atoms: O_4  and  C_18
REMARK    3  A    between atoms: O_5  and  C_19
REMARK    4  A    between atoms: C_6  and  C_10
REMARK                            x       y       z     vdW  Elec       q    Type
REMARK                         _______ _______ _______ _____ _____    ______ ____
ROOT
ATOM      1  O   UNL     1     111.967 126.481 136.109  0.00  0.00    +0.000 OA
ATOM      2  O   UNL     1     109.640 125.406 134.777  0.00  0.00    +0.000 OA
ATOM      3  C   UNL     1     112.160 125.726 136.381  0.00  0.00    +0.000 C 
ATOM      4  C   UNL     1     111.680 125.083 136.187  0.00  0.00    +0.000 C 
ATOM      5  C   UNL     1     111.008 125.196 135.721  0.00  0.00    +0.000 C 
ATOM      6  C   UNL     1     110.816 125.950 135.450  0.00  0.00    +0.000 A 
ATOM      7  C   UNL     1     111.295 126.593 135.644  0.00  0.00    +0.000 A 
ATOM      8  C   UNL     1     110.113 126.055 134.966  0.00  0.00    +0.000 A 
ATOM      9  C   UNL     1     111.105 127.384 135.367  0.00  0.00    +0.000 A 
ATOM     10  C   UNL     1     109.908 126.838 134.680  0.00  0.00    +0.000 A 
ATOM     11  C   UNL     1     110.407 127.507 134.882  0.00  0.00    +0.000 A 
ENDROOT
BRANCH   3  12
ATOM     12  C   UNL     1     112.832 125.614 136.846  0.00  0.00    +0.000 A 
ATOM     13  C   UNL     1     112.821 125.824 137.644  0.00  0.00    +0.000 A 
ATOM     14  C   UNL     1     113.515 125.293 136.512  0.00  0.00    +0.000 A 
ATOM     15  C   UNL     1     114.187 125.181 136.978  0.00  0.00    +0.000 A 
ATOM     16  C   UNL     1     113.494 125.712 138.108  0.00  0.00    +0.000 A 
ATOM     17  C   UNL     1     114.177 125.391 137.775  0.00  0.00    +0.000 A 
BRANCH  15  18
ATOM     18  O   UNL     1     114.871 124.860 136.644  0.00  0.00    +0.000 OA
ATOM     19  C   UNL     1     115.310 125.299 136.101  0.00  0.00    +0.000 C 
ENDBRANCH  15  18
BRANCH  16  20
ATOM     20  O   UNL     1     113.484 125.921 138.906  0.00  0.00    +0.000 OA
ATOM     21  C   UNL     1     113.506 126.717 139.124  0.00  0.00    +0.000 C 
ENDBRANCH  16  20
ENDBRANCH   3  12
BRANCH  11  22
ATOM     22  O   UNL     1     110.218 128.264 134.612  0.00  0.00    +0.000 OA
ATOM     23  C   UNL     1     109.744 128.759 135.072  0.00  0.00    +0.000 C 
ENDBRANCH  11  22
TORSDOF 4
ENDMDL
MODEL 3
REMARK VINA RESULT:      -7.3     13.274     14.612
REMARK  Name = 10686879
REMARK  4 active torsions:
REMARK  status: ('A' for Active; 'I' for Inactive)
REMARK    1  A    between atoms: O_3  and  C_17
REMARK    2  A    between atoms: O_4  and  C_18
REMARK    3  A    between atoms: O_5  and  C_19
REMARK    4  A    between atoms: C_6  and  C_10
REMARK                            x       y       z     vdW  Elec       q    Type
REMARK                         _______ _______ _______ _____ _____    ______ ____
ROOT
ATOM      1  O   UNL     1     112.239 127.222 136.048  0.00  0.00    +0.000 OA
ATOM      2  O   UNL     1     112.440 124.410 136.679  0.00  0.00    +0.000 OA
ATOM      3  C   UNL     1     112.981 127.350 136.386  0.00  0.00    +0.000 C 
ATOM      4  C   UNL     1     113.401 126.719 136.710  0.00  0.00    +0.000 C 
ATOM      5  C   UNL     1     113.079 125.959 136.697  0.00  0.00    +0.000 C 
ATOM      6  C   UNL     1     112.337 125.831 136.360  0.00  0.00    +0.000 A 
ATOM      7  C   UNL     1     111.917 126.463 136.035  0.00  0.00    +0.000 A 
ATOM      8  C   UNL     1     112.013 125.035 136.352  0.00  0.00    +0.000 A 
ATOM      9  C   UNL     1     111.143 126.342 135.681  0.00  0.00    +0.000 A 
ATOM     10  C   UNL     1     111.241 124.896 136.002  0.00  0.00    +0.000 A 
ATOM     11  C   UNL     1     110.803 125.553 135.664  0.00  0.00    +0.000 A 
ENDROOT
BRANCH   3  12
ATOM     12  C   UNL     1     113.302 128.110 136.398  0.00  0.00    +0.000 A 
ATOM     13  C   UNL     1     113.076 128.644 136.985  0.00  0.00    +0.000 A 
ATOM     14  C   UNL     1     113.850 128.335 135.823  0.00  0.00    +0.000 A 
ATOM     15  C   UNL     1     114.171 129.095 135.836  0.00  0.00    +0.000 A 
ATOM     16  C   UNL     1     113.398 129.404 136.996  0.00  0.00    +0.000 A 
ATOM     17  C   UNL     1     113.945 129.629 136.422  0.00  0.00    +0.000 A 
BRANCH  15  18
ATOM     18  O   UNL     1     114.719 129.320 135.261  0.00  0.00    +0.000 OA
ATOM     19  C   UNL     1     114.476 129.772 134.615  0.00  0.00    +0.000 C 
ENDBRANCH  15  18
BRANCH  16  20
ATOM     20  O   UNL     1     113.172 129.938 137.583  0.00  0.00    +0.000 OA
ATOM     21  C   UNL     1     113.694 130.126 138.193  0.00  0.00    +0.000 C 
ENDBRANCH  16  20
ENDBRANCH   3  12
BRANCH  11  22
ATOM     22  O   UNL     1     110.061 125.429 135.326  0.00  0.00    +0.000 OA
ATOM     23  C   UNL     1     109.866 125.796 134.613  0.00  0.00    +0.000 C 
ENDBRANCH  11  22
TORSDOF 4
ENDMDL
MODEL 4
REMARK VINA RESULT:      -7.3      1.189      4.459
REMARK  Name = 10686879
REMARK  4 active torsions:
REMARK  status: ('A' for Active; 'I' for Inactive)
REMARK    1  A    between atoms: O_3  and  C_17
REMARK    2  A    between atoms: O_4  and  C_18
REMARK    3  A    between atoms: O_5  and  C_19
REMARK    4  A    between atoms: C_6  and  C_10
REMARK                            x       y       z     vdW  Elec       q    Type
REMARK                         _______ _______ _______ _____ _____    ______ ____
ROOT
ATOM      1  O   UNL     1     103.983 124.238 147.524  0.00  0.00    +0.000 OA
ATOM      2  O   UNL     1     103.016 123.130 145.037  0.00  0.00    +0.000 OA
ATOM      3  C   UNL     1     104.655 124.521 147.136  0.00  0.00    +0.000 C 
ATOM      4  C   UNL     1     104.750 124.388 146.327  0.00  0.00    +0.000 C 
ATOM      5  C   UNL     1     104.175 123.972 145.907  0.00  0.00    +0.000 C 
ATOM      6  C   UNL     1     103.504 123.690 146.295  0.00  0.00    +0.000 A 
ATOM      7  C   UNL     1     103.409 123.823 147.103  0.00  0.00    +0.000 A 
ATOM      8  C   UNL     1     102.912 123.258 145.846  0.00  0.00    +0.000 A 
ATOM      9  C   UNL     1     102.714 123.533 147.519  0.00  0.00    +0.000 A 
ATOM     10  C   UNL     1     102.211 122.961 146.244  0.00  0.00    +0.000 A 
ATOM     11  C   UNL     1     102.112 123.099 147.086  0.00  0.00    +0.000 A 
ENDROOT
BRANCH   3  12
ATOM     12  C   UNL     1     105.229 124.937 147.557  0.00  0.00    +0.000 A 
ATOM     13  C   UNL     1     105.898 124.545 147.840  0.00  0.00    +0.000 A 
ATOM     14  C   UNL     1     105.135 125.746 147.694  0.00  0.00    +0.000 A 
ATOM     15  C   UNL     1     105.710 126.161 148.115  0.00  0.00    +0.000 A 
ATOM     16  C   UNL     1     106.472 124.962 148.261  0.00  0.00    +0.000 A 
ATOM     17  C   UNL     1     106.379 125.770 148.399  0.00  0.00    +0.000 A 
BRANCH  15  18
ATOM     18  O   UNL     1     105.616 126.970 148.253  0.00  0.00    +0.000 OA
ATOM     19  C   UNL     1     105.214 127.229 148.925  0.00  0.00    +0.000 C 
ENDBRANCH  15  18
BRANCH  16  20
ATOM     20  O   UNL     1     107.141 124.571 148.545  0.00  0.00    +0.000 OA
ATOM     21  C   UNL     1     107.138 124.244 149.302  0.00  0.00    +0.000 C 
ENDBRANCH  16  20
ENDBRANCH   3  12
BRANCH  11  22
ATOM     22  O   UNL     1     101.442 122.818 147.478  0.00  0.00    +0.000 OA
ATOM     23  C   UNL     1     100.767 123.289 147.530  0.00  0.00    +0.000 C 
ENDBRANCH  11  22
TORSDOF 4
ENDMDL
MODEL 5
REMARK VINA RESULT:      -7.3     12.842     14.429
REMARK  Name = 10686879
REMARK  4 active torsions:
REMARK  status: ('A' for Active; 'I' for Inactive)
REMARK    1  A    between atoms: O_3  and  C_17
REMARK    2  A    between atoms: O_4  and  C_18
REMARK    3  A    between atoms: O_5  and  C_19
REMARK    4  A    between atoms: C_6  and  C_10
REMARK                            x       y       z     vdW  Elec       q    Type
REMARK                         _______ _______ _______ _____ _____    ______ ____
ROOT
ATOM      1  O   UNL     1     112.636 126.673 136.336  0.00  0.00    +0.000 OA
ATOM      2  O   UNL     1     110.190 125.478 135.369  0.00  0.00    +0.000 OA
ATOM      3  C   UNL     1     112.362 127.418 136.107  0.00  0.00    +0.000 C 
ATOM      4  C   UNL     1     111.620 127.493 135.754  0.00  0.00    +0.000 C 
ATOM      5  C   UNL     1     111.153 126.825 135.629  0.00  0.00    +0.000 C 
ATOM      6  C   UNL     1     111.426 126.081 135.858  0.00  0.00    +0.000 A 
ATOM      7  C   UNL     1     112.168 126.006 136.211  0.00  0.00    +0.000 A 
ATOM      8  C   UNL     1     110.930 125.392 135.723  0.00  0.00    +0.000 A 
ATOM      9  C   UNL     1     112.465 125.236 136.454  0.00  0.00    +0.000 A 
ATOM     10  C   UNL     1     111.210 124.616 135.959  0.00  0.00    +0.000 A 
ATOM     11  C   UNL     1     111.982 124.537 136.327  0.00  0.00    +0.000 A 
ENDROOT
BRANCH   3  12
ATOM     12  C   UNL     1     112.830 128.085 136.232  0.00  0.00    +0.000 A 
ATOM     13  C   UNL     1     113.472 128.238 135.737  0.00  0.00    +0.000 A 
ATOM     14  C   UNL     1     112.655 128.601 136.852  0.00  0.00    +0.000 A 
ATOM     15  C   UNL     1     113.123 129.269 136.977  0.00  0.00    +0.000 A 
ATOM     16  C   UNL     1     113.939 128.906 135.863  0.00  0.00    +0.000 A 
ATOM     17  C   UNL     1     113.765 129.421 136.482  0.00  0.00    +0.000 A 
BRANCH  15  18
ATOM     18  O   UNL     1     112.948 129.785 137.598  0.00  0.00    +0.000 OA
ATOM     19  C   UNL     1     113.369 129.735 138.305  0.00  0.00    +0.000 C 
ENDBRANCH  15  18
BRANCH  16  20
ATOM     20  O   UNL     1     114.581 129.059 135.368  0.00  0.00    +0.000 OA
ATOM     21  C   UNL     1     114.492 129.557 134.716  0.00  0.00    +0.000 C 
ENDBRANCH  16  20
ENDBRANCH   3  12
BRANCH  11  22
ATOM     22  O   UNL     1     112.260 123.794 136.557  0.00  0.00    +0.000 OA
ATOM     23  C   UNL     1     111.960 123.435 137.237  0.00  0.00    +0.000 C 
ENDBRANCH  11  22
TORSDOF 4
ENDMDL
MODEL 6
REMARK VINA RESULT:      -7.2      1.194      4.294
REMARK  Name = 10686879
REMARK  4 active torsions:
REMARK  status: ('A' for Active; 'I' for Inactive)
REMARK    1  A    between atoms: O_3  and  C_17
REMARK    2  A    between atoms: O_4  and  C_18
REMARK    3  A    between atoms: O_5  and  C_19
REMARK    4  A    between atoms: C_6  and  C_10
REMARK                            x       y       z     vdW  Elec       q    Type
REMARK                         _______ _______ _______ _____ _____    ______ ____
ROOT
ATOM      1  O   UNL     1     103.978 124.244 147.520  0.00  0.00    +0.000 OA
ATOM      2  O   UNL     1     103.030 123.117 145.034  0.00  0.00    +0.000 OA
ATOM      3  C   UNL     1     104.652 124.525 147.134  0.00  0.00    +0.000 C 
ATOM      4  C   UNL     1     104.754 124.386 146.327  0.00  0.00    +0.000 C 
ATOM      5  C   UNL     1     104.181 123.967 145.906  0.00  0.00    +0.000 C 
ATOM      6  C   UNL     1     103.508 123.686 146.291  0.00  0.00    +0.000 A 
ATOM      7  C   UNL     1     103.407 123.825 147.098  0.00  0.00    +0.000 A 
ATOM      8  C   UNL     1     102.920 123.251 145.841  0.00  0.00    +0.000 A 
ATOM      9  C   UNL     1     102.710 123.537 147.510  0.00  0.00    +0.000 A 
ATOM     10  C   UNL     1     102.216 122.956 146.236  0.00  0.00    +0.000 A 
ATOM     11  C   UNL     1     102.111 123.100 147.077  0.00  0.00    +0.000 A 
ENDROOT
BRANCH   3  12
ATOM     12  C   UNL     1     105.224 124.944 147.557  0.00  0.00    +0.000 A 
ATOM     13  C   UNL     1     105.137 125.755 147.676  0.00  0.00    +0.000 A 
ATOM     14  C   UNL     1     105.883 124.550 147.860  0.00  0.00    +0.000 A 
ATOM     15  C   UNL     1     106.454 124.969 148.283  0.00  0.00    +0.000 A 
ATOM     16  C   UNL     1     105.709 126.173 148.098  0.00  0.00    +0.000 A 
ATOM     17  C   UNL     1     106.367 125.781 148.402  0.00  0.00    +0.000 A 
BRANCH  15  18
ATOM     18  O   UNL     1     107.114 124.575 148.586  0.00  0.00    +0.000 OA
ATOM     19  C   UNL     1     107.070 124.208 149.324  0.00  0.00    +0.000 C 
ENDBRANCH  15  18
BRANCH  16  20
ATOM     20  O   UNL     1     105.622 126.985 148.217  0.00  0.00    +0.000 OA
ATOM     21  C   UNL     1     105.205 127.264 148.872  0.00  0.00    +0.000 C 
ENDBRANCH  16  20
ENDBRANCH   3  12
BRANCH  11  22
ATOM     22  O   UNL     1     101.438 122.820 147.465  0.00  0.00    +0.000 OA
ATOM     23  C   UNL     1     100.766 123.296 147.519  0.00  0.00    +0.000 C 
ENDBRANCH  11  22
TORSDOF 4
ENDMDL
MODEL 7
REMARK VINA RESULT:      -7.2     12.842     14.359
REMARK  Name = 10686879
REMARK  4 active torsions:
REMARK  status: ('A' for Active; 'I' for Inactive)
REMARK    1  A    between atoms: O_3  and  C_17
REMARK    2  A    between atoms: O_4  and  C_18
REMARK    3  A    between atoms: O_5  and  C_19
REMARK    4  A    between atoms: C_6  and  C_10
REMARK                            x       y       z     vdW  Elec       q    Type
REMARK                         _______ _______ _______ _____ _____    ______ ____
ROOT
ATOM      1  O   UNL     1     112.637 126.670 136.346  0.00  0.00    +0.000 OA
ATOM      2  O   UNL     1     110.195 125.473 135.367  0.00  0.00    +0.000 OA
ATOM      3  C   UNL     1     112.362 127.414 136.117  0.00  0.00    +0.000 C 
ATOM      4  C   UNL     1     111.622 127.489 135.760  0.00  0.00    +0.000 C 
ATOM      5  C   UNL     1     111.156 126.820 135.633  0.00  0.00    +0.000 C 
ATOM      6  C   UNL     1     111.429 126.077 135.862  0.00  0.00    +0.000 A 
ATOM      7  C   UNL     1     112.170 126.002 136.218  0.00  0.00    +0.000 A 
ATOM      8  C   UNL     1     110.934 125.388 135.724  0.00  0.00    +0.000 A 
ATOM      9  C   UNL     1     112.466 125.232 136.461  0.00  0.00    +0.000 A 
ATOM     10  C   UNL     1     111.214 124.611 135.960  0.00  0.00    +0.000 A 
ATOM     11  C   UNL     1     111.985 124.532 136.331  0.00  0.00    +0.000 A 
ENDROOT
BRANCH   3  12
ATOM     12  C   UNL     1     112.829 128.082 136.244  0.00  0.00    +0.000 A 
ATOM     13  C   UNL     1     112.662 128.589 136.873  0.00  0.00    +0.000 A 
ATOM     14  C   UNL     1     113.464 128.243 135.742  0.00  0.00    +0.000 A 
ATOM     15  C   UNL     1     113.931 128.911 135.869  0.00  0.00    +0.000 A 
ATOM     16  C   UNL     1     113.129 129.257 137.000  0.00  0.00    +0.000 A 
ATOM     17  C   UNL     1     113.763 129.418 136.498  0.00  0.00    +0.000 A 
BRANCH  15  18
ATOM     18  O   UNL     1     114.566 129.072 135.367  0.00  0.00    +0.000 OA
ATOM     19  C   UNL     1     114.457 129.557 134.708  0.00  0.00    +0.000 C 
ENDBRANCH  15  18
BRANCH  16  20
ATOM     20  O   UNL     1     112.962 129.764 137.629  0.00  0.00    +0.000 OA
ATOM     21  C   UNL     1     113.375 129.690 138.339  0.00  0.00    +0.000 C 
ENDBRANCH  16  20
ENDBRANCH   3  12
BRANCH  11  22
ATOM     22  O   UNL     1     112.262 123.790 136.561  0.00  0.00    +0.000 OA
ATOM     23  C   UNL     1     111.958 123.428 137.237  0.00  0.00    +0.000 C 
ENDBRANCH  11  22
TORSDOF 4
ENDMDL
MODEL 8
REMARK VINA RESULT:      -7.2     13.045     14.094
REMARK  Name = 10686879
REMARK  4 active torsions:
REMARK  status: ('A' for Active; 'I' for Inactive)
REMARK    1  A    between atoms: O_3  and  C_17
REMARK    2  A    between atoms: O_4  and  C_18
REMARK    3  A    between atoms: O_5  and  C_19
REMARK    4  A    between atoms: C_6  and  C_10
REMARK                            x       y       z     vdW  Elec       q    Type
REMARK                         _______ _______ _______ _____ _____    ______ ____
ROOT
ATOM      1  O   UNL     1     112.681 127.505 135.896  0.00  0.00    +0.000 OA
ATOM      2  O   UNL     1     113.449 129.516 137.823  0.00  0.00    +0.000 OA
ATOM      3  C   UNL     1     112.323 127.067 136.498  0.00  0.00    +0.000 C 
ATOM      4  C   UNL     1     112.335 127.345 137.274  0.00  0.00    +0.000 C 
ATOM      5  C   UNL     1     112.704 128.062 137.449  0.00  0.00    +0.000 C 
ATOM      6  C   UNL     1     113.061 128.500 136.848  0.00  0.00    +0.000 A 
ATOM      7  C   UNL     1     113.049 128.221 136.072  0.00  0.00    +0.000 A 
ATOM      8  C   UNL     1     113.442 129.245 137.044  0.00  0.00    +0.000 A 
ATOM      9  C   UNL     1     113.418 128.669 135.437  0.00  0.00    +0.000 A 
ATOM     10  C   UNL     1     113.816 129.706 136.422  0.00  0.00    +0.000 A 
ATOM     11  C   UNL     1     113.804 129.416 135.614  0.00  0.00    +0.000 A 
ENDROOT
BRANCH   3  12
ATOM     12  C   UNL     1     111.955 126.350 136.321  0.00  0.00    +0.000 A 
ATOM     13  C   UNL     1     112.352 125.638 136.450  0.00  0.00    +0.000 A 
ATOM     14  C   UNL     1     111.187 126.345 136.016  0.00  0.00    +0.000 A 
ATOM     15  C   UNL     1     110.819 125.629 135.840  0.00  0.00    +0.000 A 
ATOM     16  C   UNL     1     111.982 124.922 136.273  0.00  0.00    +0.000 A 
ATOM     17  C   UNL     1     111.216 124.917 135.969  0.00  0.00    +0.000 A 
BRANCH  15  18
ATOM     18  O   UNL     1     110.051 125.624 135.535  0.00  0.00    +0.000 OA
ATOM     19  C   UNL     1     109.925 125.789 134.737  0.00  0.00    +0.000 C 
ENDBRANCH  15  18
BRANCH  16  20
ATOM     20  O   UNL     1     112.379 124.211 136.402  0.00  0.00    +0.000 OA
ATOM     21  C   UNL     1     112.065 123.650 136.918  0.00  0.00    +0.000 C 
ENDBRANCH  16  20
ENDBRANCH   3  12
BRANCH  11  22
ATOM     22  O   UNL     1     114.160 129.851 135.010  0.00  0.00    +0.000 OA
ATOM     23  C   UNL     1     114.948 129.710 134.810  0.00  0.00    +0.000 C 
ENDBRANCH  11  22
TORSDOF 4
ENDMDL
MODEL 9
REMARK VINA RESULT:      -7.2      9.311     10.333
REMARK  Name = 10686879
REMARK  4 active torsions:
REMARK  status: ('A' for Active; 'I' for Inactive)
REMARK    1  A    between atoms: O_3  and  C_17
REMARK    2  A    between atoms: O_4  and  C_18
REMARK    3  A    between atoms: O_5  and  C_19
REMARK    4  A    between atoms: C_6  and  C_10
REMARK                            x       y       z     vdW  Elec       q    Type
REMARK                         _______ _______ _______ _____ _____    ______ ____
ROOT
ATOM      1  O   UNL     1     102.823 132.349 141.300  0.00  0.00    +0.000 OA
ATOM      2  O   UNL     1     100.710 134.157 142.086  0.00  0.00    +0.000 OA
ATOM      3  C   UNL     1     102.355 131.707 141.524  0.00  0.00    +0.000 C 
ATOM      4  C   UNL     1     101.599 131.834 141.830  0.00  0.00    +0.000 C 
ATOM      5  C   UNL     1     101.312 132.603 141.912  0.00  0.00    +0.000 C 
ATOM      6  C   UNL     1     101.779 133.244 141.689  0.00  0.00    +0.000 A 
ATOM      7  C   UNL     1     102.534 133.118 141.382  0.00  0.00    +0.000 A 
ATOM      8  C   UNL     1     101.467 134.041 141.779  0.00  0.00    +0.000 A 
ATOM      9  C   UNL     1     103.030 133.778 141.145  0.00  0.00    +0.000 A 
ATOM     10  C   UNL     1     101.949 134.713 141.548  0.00  0.00    +0.000 A 
ATOM     11  C   UNL     1     102.736 134.581 141.229  0.00  0.00    +0.000 A 
ENDROOT
BRANCH   3  12
ATOM     12  C   UNL     1     102.644 130.939 141.442  0.00  0.00    +0.000 A 
ATOM     13  C   UNL     1     102.626 130.567 140.705  0.00  0.00    +0.000 A 
ATOM     14  C   UNL     1     102.951 130.541 142.097  0.00  0.00    +0.000 A 
ATOM     15  C   UNL     1     103.240 129.773 142.015  0.00  0.00    +0.000 A 
ATOM     16  C   UNL     1     102.915 129.799 140.624  0.00  0.00    +0.000 A 
ATOM     17  C   UNL     1     103.222 129.402 141.278  0.00  0.00    +0.000 A 
BRANCH  15  18
ATOM     18  O   UNL     1     103.547 129.376 142.670  0.00  0.00    +0.000 OA
ATOM     19  C   UNL     1     104.363 129.290 142.754  0.00  0.00    +0.000 C 
ENDBRANCH  15  18
BRANCH  16  20
ATOM     20  O   UNL     1     102.897 129.427 139.888  0.00  0.00    +0.000 OA
ATOM     21  C   UNL     1     102.207 129.054 139.630  0.00  0.00    +0.000 C 
ENDBRANCH  16  20
ENDBRANCH   3  12
BRANCH  11  22
ATOM     22  O   UNL     1     103.206 135.221 141.004  0.00  0.00    +0.000 OA
ATOM     23  C   UNL     1     103.374 135.348 140.206  0.00  0.00    +0.000 C 
ENDBRANCH  11  22
TORSDOF 4
ENDMDL
MODEL 10
REMARK VINA RESULT:      -7.2     13.035     14.131
REMARK  Name = 10686879
REMARK  4 active torsions:
REMARK  status: ('A' for Active; 'I' for Inactive)
REMARK    1  A    between atoms: O_3  and  C_17
REMARK    2  A    between atoms: O_4  and  C_18
REMARK    3  A    between atoms: O_5  and  C_19
REMARK    4  A    between atoms: C_6  and  C_10
REMARK                            x       y       z     vdW  Elec       q    Type
REMARK                         _______ _______ _______ _____ _____    ______ ____
ROOT
ATOM      1  O   UNL     1     112.697 127.554 135.844  0.00  0.00    +0.000 OA
ATOM      2  O   UNL     1     113.497 129.536 137.789  0.00  0.00    +0.000 OA
ATOM      3  C   UNL     1     112.323 127.122 136.440  0.00  0.00    +0.000 C 
ATOM      4  C   UNL     1     112.334 127.396 137.218  0.00  0.00    +0.000 C 
ATOM      5  C   UNL     1     112.720 128.103 137.400  0.00  0.00    +0.000 C 
ATOM      6  C   UNL     1     113.093 128.535 136.805  0.00  0.00    +0.000 A 
ATOM      7  C   UNL     1     113.082 128.261 136.027  0.00  0.00    +0.000 A 
ATOM      8  C   UNL     1     113.491 129.270 137.008  0.00  0.00    +0.000 A 
ATOM      9  C   UNL     1     113.467 128.702 135.398  0.00  0.00    +0.000 A 
ATOM     10  C   UNL     1     113.882 129.724 136.392  0.00  0.00    +0.000 A 
ATOM     11  C   UNL     1     113.870 129.438 135.582  0.00  0.00    +0.000 A 
ENDROOT
BRANCH   3  12
ATOM     12  C   UNL     1     111.938 126.416 136.257  0.00  0.00    +0.000 A 
ATOM     13  C   UNL     1     111.179 126.431 135.934  0.00  0.00    +0.000 A 
ATOM     14  C   UNL     1     112.314 125.694 136.397  0.00  0.00    +0.000 A 
ATOM     15  C   UNL     1     111.929 124.987 136.213  0.00  0.00    +0.000 A 
ATOM     16  C   UNL     1     110.795 125.723 135.751  0.00  0.00    +0.000 A 
ATOM     17  C   UNL     1     111.170 125.002 135.891  0.00  0.00    +0.000 A 
BRANCH  15  18
ATOM     18  O   UNL     1     112.304 124.265 136.353  0.00  0.00    +0.000 OA
ATOM     19  C   UNL     1     112.017 123.759 136.937  0.00  0.00    +0.000 C 
ENDBRANCH  15  18
BRANCH  16  20
ATOM     20  O   UNL     1     110.036 125.738 135.428  0.00  0.00    +0.000 OA
ATOM     21  C   UNL     1     109.935 125.811 134.613  0.00  0.00    +0.000 C 
ENDBRANCH  16  20
ENDBRANCH   3  12
BRANCH  11  22
ATOM     22  O   UNL     1     114.242 129.868 134.984  0.00  0.00    +0.000 OA
ATOM     23  C   UNL     1     114.976 129.623 134.698  0.00  0.00    +0.000 C 
ENDBRANCH  11  22
TORSDOF 4
ENDMDL
