MODEL 1
REMARK VINA RESULT:      -8.9      0.000      0.000
REMARK  Name = 21676181
REMARK  4 active torsions:
REMARK  status: ('A' for Active; 'I' for Inactive)
REMARK    1  A    between atoms: O_2  and  C_14
REMARK    2  A    between atoms: C_6  and  C_8
REMARK    3  A    between atoms: C_10  and  C_11
REMARK    4  A    between atoms: C_10  and  C_20
REMARK                            x       y       z     vdW  Elec       q    Type
REMARK                         _______ _______ _______ _____ _____    ______ ____
ROOT
ATOM      1  O   UNL     1     112.217 125.276 136.711  0.00  0.00    +0.000 OA
ATOM      2  O   UNL     1     111.328 126.477 136.012  0.00  0.00    +0.000 OA
ATOM      3  C   UNL     1     113.212 127.518 136.377  0.00  0.00    +0.000 A 
ATOM      4  C   UNL     1     113.325 126.170 136.839  0.00  0.00    +0.000 A 
ATOM      5  C   UNL     1     113.656 126.917 136.727  0.00  0.00    +0.000 A 
ATOM      6  C   UNL     1     112.436 127.371 136.139  0.00  0.00    +0.000 A 
ATOM      7  C   UNL     1     112.549 126.024 136.600  0.00  0.00    +0.000 A 
ATOM      8  C   UNL     1     112.104 126.624 136.250  0.00  0.00    +0.000 A 
ENDROOT
BRANCH   3  11
ATOM      9  O   UNL     1     113.737 129.611 136.706  0.00  0.00    +0.000 OA
ATOM     10  O   UNL     1     115.364 131.452 135.143  0.00  0.00    +0.000 OA
ATOM     11  C   UNL     1     113.543 128.265 136.266  0.00  0.00    +0.000 C 
ATOM     12  C   UNL     1     114.012 128.415 135.604  0.00  0.00    +0.000 C 
ATOM     13  C   UNL     1     113.405 128.863 136.817  0.00  0.00    +0.000 C 
ATOM     14  C   UNL     1     114.343 129.161 135.493  0.00  0.00    +0.000 A 
ATOM     15  C   UNL     1     114.205 129.760 136.044  0.00  0.00    +0.000 A 
ATOM     16  C   UNL     1     114.829 129.304 134.799  0.00  0.00    +0.000 A 
ATOM     17  C   UNL     1     114.545 130.542 135.939  0.00  0.00    +0.000 A 
ATOM     18  C   UNL     1     115.177 130.081 134.677  0.00  0.00    +0.000 A 
ATOM     19  C   UNL     1     115.034 130.704 135.252  0.00  0.00    +0.000 A 
ENDBRANCH   3  11
BRANCH   4  20
ATOM     20  C   UNL     1     113.769 125.569 137.189  0.00  0.00    +0.000 C 
ATOM     21  C   UNL     1     113.487 125.794 137.931  0.00  0.00    +0.000 C 
ATOM     22  C   UNL     1     114.050 125.345 136.447  0.00  0.00    +0.000 C 
BRANCH  20  23
ATOM     23  C   UNL     1     114.212 124.969 137.540  0.00  0.00    +0.000 C 
ATOM     24  C   UNL     1     114.955 124.773 137.238  0.00  0.00    +0.000 C 
ENDBRANCH  20  23
ENDBRANCH   4  20
BRANCH   6  25
ATOM     25  O   UNL     1     111.991 127.971 135.789  0.00  0.00    +0.000 OA
ATOM     26  C   UNL     1     111.280 127.792 135.410  0.00  0.00    +0.000 C 
ENDBRANCH   6  25
TORSDOF 4
ENDMDL
MODEL 2
REMARK VINA RESULT:      -8.7     12.690     14.613
REMARK  Name = 21676181
REMARK  4 active torsions:
REMARK  status: ('A' for Active; 'I' for Inactive)
REMARK    1  A    between atoms: O_2  and  C_14
REMARK    2  A    between atoms: C_6  and  C_8
REMARK    3  A    between atoms: C_10  and  C_11
REMARK    4  A    between atoms: C_10  and  C_20
REMARK                            x       y       z     vdW  Elec       q    Type
REMARK                         _______ _______ _______ _____ _____    ______ ____
ROOT
ATOM      1  O   UNL     1     107.457 125.767 146.958  0.00  0.00    +0.000 OA
ATOM      2  O   UNL     1     106.774 125.681 145.458  0.00  0.00    +0.000 OA
ATOM      3  C   UNL     1     105.236 124.712 146.667  0.00  0.00    +0.000 A 
ATOM      4  C   UNL     1     106.317 125.107 147.514  0.00  0.00    +0.000 A 
ATOM      5  C   UNL     1     105.578 124.756 147.417  0.00  0.00    +0.000 A 
ATOM      6  C   UNL     1     105.635 125.021 146.014  0.00  0.00    +0.000 A 
ATOM      7  C   UNL     1     106.716 125.415 146.861  0.00  0.00    +0.000 A 
ATOM      8  C   UNL     1     106.375 125.373 146.111  0.00  0.00    +0.000 A 
ENDROOT
BRANCH   3  11
ATOM      9  O   UNL     1     103.693 123.276 146.101  0.00  0.00    +0.000 OA
ATOM     10  O   UNL     1     100.803 123.320 146.455  0.00  0.00    +0.000 OA
ATOM     11  C   UNL     1     104.497 124.361 146.570  0.00  0.00    +0.000 C 
ATOM     12  C   UNL     1     103.818 124.743 146.845  0.00  0.00    +0.000 C 
ATOM     13  C   UNL     1     104.434 123.628 146.198  0.00  0.00    +0.000 C 
ATOM     14  C   UNL     1     103.079 124.392 146.748  0.00  0.00    +0.000 A 
ATOM     15  C   UNL     1     103.016 123.658 146.376  0.00  0.00    +0.000 A 
ATOM     16  C   UNL     1     102.380 124.799 147.039  0.00  0.00    +0.000 A 
ATOM     17  C   UNL     1     102.251 123.282 146.269  0.00  0.00    +0.000 A 
ATOM     18  C   UNL     1     101.607 124.438 146.941  0.00  0.00    +0.000 A 
ATOM     19  C   UNL     1     101.542 123.674 146.553  0.00  0.00    +0.000 A 
ENDBRANCH   3  11
BRANCH   4  20
ATOM     20  C   UNL     1     106.659 125.150 148.264  0.00  0.00    +0.000 C 
ATOM     21  C   UNL     1     106.301 125.885 148.384  0.00  0.00    +0.000 C 
ATOM     22  C   UNL     1     107.017 124.417 148.144  0.00  0.00    +0.000 C 
BRANCH  20  23
ATOM     23  C   UNL     1     107.001 125.195 149.013  0.00  0.00    +0.000 C 
ATOM     24  C   UNL     1     107.096 124.511 149.465  0.00  0.00    +0.000 C 
ENDBRANCH  20  23
ENDBRANCH   4  20
BRANCH   6  25
ATOM     25  O   UNL     1     105.294 124.978 145.264  0.00  0.00    +0.000 OA
ATOM     26  C   UNL     1     105.693 125.286 144.611  0.00  0.00    +0.000 C 
ENDBRANCH   6  25
TORSDOF 4
ENDMDL
MODEL 3
REMARK VINA RESULT:      -8.5      1.225      2.485
REMARK  Name = 21676181
REMARK  4 active torsions:
REMARK  status: ('A' for Active; 'I' for Inactive)
REMARK    1  A    between atoms: O_2  and  C_14
REMARK    2  A    between atoms: C_6  and  C_8
REMARK    3  A    between atoms: C_10  and  C_11
REMARK    4  A    between atoms: C_10  and  C_20
REMARK                            x       y       z     vdW  Elec       q    Type
REMARK                         _______ _______ _______ _____ _____    ______ ____
ROOT
ATOM      1  O   UNL     1     111.538 124.444 136.136  0.00  0.00    +0.000 OA
ATOM      2  O   UNL     1     113.037 124.608 136.807  0.00  0.00    +0.000 OA
ATOM      3  C   UNL     1     112.520 126.697 136.436  0.00  0.00    +0.000 A 
ATOM      4  C   UNL     1     111.443 125.864 136.001  0.00  0.00    +0.000 A 
ATOM      5  C   UNL     1     111.770 126.614 136.101  0.00  0.00    +0.000 A 
ATOM      6  C   UNL     1     112.942 126.028 136.672  0.00  0.00    +0.000 A 
ATOM      7  C   UNL     1     111.865 125.196 136.236  0.00  0.00    +0.000 A 
ATOM      8  C   UNL     1     112.615 125.277 136.572  0.00  0.00    +0.000 A 
ENDROOT
BRANCH   3  11
ATOM      9  O   UNL     1     113.084 128.595 137.355  0.00  0.00    +0.000 OA
ATOM     10  O   UNL     1     114.599 130.856 136.318  0.00  0.00    +0.000 OA
ATOM     11  C   UNL     1     112.847 127.447 136.537  0.00  0.00    +0.000 C 
ATOM     12  C   UNL     1     113.264 127.802 135.919  0.00  0.00    +0.000 C 
ATOM     13  C   UNL     1     112.757 127.844 137.254  0.00  0.00    +0.000 C 
ATOM     14  C   UNL     1     113.591 128.552 136.019  0.00  0.00    +0.000 A 
ATOM     15  C   UNL     1     113.501 128.949 136.737  0.00  0.00    +0.000 A 
ATOM     16  C   UNL     1     114.023 128.911 135.368  0.00  0.00    +0.000 A 
ATOM     17  C   UNL     1     113.837 129.731 136.854  0.00  0.00    +0.000 A 
ATOM     18  C   UNL     1     114.366 129.692 135.467  0.00  0.00    +0.000 A 
ATOM     19  C   UNL     1     114.272 130.105 136.215  0.00  0.00    +0.000 A 
ENDBRANCH   3  11
BRANCH   4  20
ATOM     20  C   UNL     1     110.694 125.781 135.666  0.00  0.00    +0.000 C 
ATOM     21  C   UNL     1     110.355 125.806 136.418  0.00  0.00    +0.000 C 
ATOM     22  C   UNL     1     111.032 125.756 134.914  0.00  0.00    +0.000 C 
BRANCH  20  23
ATOM     23  C   UNL     1     109.944 125.698 135.332  0.00  0.00    +0.000 C 
ATOM     24  C   UNL     1     109.770 126.063 134.612  0.00  0.00    +0.000 C 
ENDBRANCH  20  23
ENDBRANCH   4  20
BRANCH   6  25
ATOM     25  O   UNL     1     113.691 126.110 137.007  0.00  0.00    +0.000 OA
ATOM     26  C   UNL     1     114.123 125.440 137.221  0.00  0.00    +0.000 C 
ENDBRANCH   6  25
TORSDOF 4
ENDMDL
MODEL 4
REMARK VINA RESULT:      -8.4      2.868      3.568
REMARK  Name = 21676181
REMARK  4 active torsions:
REMARK  status: ('A' for Active; 'I' for Inactive)
REMARK    1  A    between atoms: O_2  and  C_14
REMARK    2  A    between atoms: C_6  and  C_8
REMARK    3  A    between atoms: C_10  and  C_11
REMARK    4  A    between atoms: C_10  and  C_20
REMARK                            x       y       z     vdW  Elec       q    Type
REMARK                         _______ _______ _______ _____ _____    ______ ____
ROOT
ATOM      1  O   UNL     1     112.982 124.119 136.705  0.00  0.00    +0.000 OA
ATOM      2  O   UNL     1     111.678 124.546 137.621  0.00  0.00    +0.000 OA
ATOM      3  C   UNL     1     113.084 126.133 138.142  0.00  0.00    +0.000 A 
ATOM      4  C   UNL     1     113.702 125.249 137.205  0.00  0.00    +0.000 A 
ATOM      5  C   UNL     1     113.736 125.919 137.684  0.00  0.00    +0.000 A 
ATOM      6  C   UNL     1     112.398 125.675 138.122  0.00  0.00    +0.000 A 
ATOM      7  C   UNL     1     113.016 124.791 137.185  0.00  0.00    +0.000 A 
ATOM      8  C   UNL     1     112.364 125.003 137.642  0.00  0.00    +0.000 A 
ENDROOT
BRANCH   3  11
ATOM      9  O   UNL     1     112.837 128.189 138.832  0.00  0.00    +0.000 OA
ATOM     10  O   UNL     1     113.605 129.486 141.323  0.00  0.00    +0.000 OA
ATOM     11  C   UNL     1     113.117 126.803 138.621  0.00  0.00    +0.000 C 
ATOM     12  C   UNL     1     113.465 126.761 139.368  0.00  0.00    +0.000 C 
ATOM     13  C   UNL     1     112.803 127.517 138.353  0.00  0.00    +0.000 C 
ATOM     14  C   UNL     1     113.498 127.431 139.847  0.00  0.00    +0.000 A 
ATOM     15  C   UNL     1     113.184 128.145 139.579  0.00  0.00    +0.000 A 
ATOM     16  C   UNL     1     113.863 127.373 140.623  0.00  0.00    +0.000 A 
ATOM     17  C   UNL     1     113.213 128.851 140.068  0.00  0.00    +0.000 A 
ATOM     18  C   UNL     1     113.900 128.069 141.126  0.00  0.00    +0.000 A 
ATOM     19  C   UNL     1     113.573 128.813 140.847  0.00  0.00    +0.000 A 
ENDBRANCH   3  11
BRANCH   4  20
ATOM     20  C   UNL     1     114.354 125.035 136.747  0.00  0.00    +0.000 C 
ATOM     21  C   UNL     1     114.640 124.574 137.370  0.00  0.00    +0.000 C 
ATOM     22  C   UNL     1     114.068 125.495 136.125  0.00  0.00    +0.000 C 
BRANCH  20  23
ATOM     23  C   UNL     1     115.006 124.821 136.290  0.00  0.00    +0.000 C 
ATOM     24  C   UNL     1     115.405 125.390 135.846  0.00  0.00    +0.000 C 
ENDBRANCH  20  23
ENDBRANCH   4  20
BRANCH   6  25
ATOM     25  O   UNL     1     111.745 125.888 138.579  0.00  0.00    +0.000 OA
ATOM     26  C   UNL     1     111.021 125.509 138.467  0.00  0.00    +0.000 C 
ENDBRANCH   6  25
TORSDOF 4
ENDMDL
MODEL 5
REMARK VINA RESULT:      -8.3     13.335     14.963
REMARK  Name = 21676181
REMARK  4 active torsions:
REMARK  status: ('A' for Active; 'I' for Inactive)
REMARK    1  A    between atoms: O_2  and  C_14
REMARK    2  A    between atoms: C_6  and  C_8
REMARK    3  A    between atoms: C_10  and  C_11
REMARK    4  A    between atoms: C_10  and  C_20
REMARK                            x       y       z     vdW  Elec       q    Type
REMARK                         _______ _______ _______ _____ _____    ______ ____
ROOT
ATOM      1  O   UNL     1     101.606 123.240 146.801  0.00  0.00    +0.000 OA
ATOM      2  O   UNL     1     102.735 122.745 145.705  0.00  0.00    +0.000 OA
ATOM      3  C   UNL     1     103.868 124.246 146.813  0.00  0.00    +0.000 A 
ATOM      4  C   UNL     1     102.550 124.159 147.357  0.00  0.00    +0.000 A 
ATOM      5  C   UNL     1     103.303 124.494 147.361  0.00  0.00    +0.000 A 
ATOM      6  C   UNL     1     103.679 123.663 146.261  0.00  0.00    +0.000 A 
ATOM      7  C   UNL     1     102.360 123.576 146.805  0.00  0.00    +0.000 A 
ATOM      8  C   UNL     1     102.924 123.328 146.257  0.00  0.00    +0.000 A 
ENDROOT
BRANCH   3  11
ATOM      9  O   UNL     1     105.606 125.421 146.210  0.00  0.00    +0.000 OA
ATOM     10  O   UNL     1     108.214 125.772 147.456  0.00  0.00    +0.000 OA
ATOM     11  C   UNL     1     104.621 124.581 146.817  0.00  0.00    +0.000 C 
ATOM     12  C   UNL     1     105.145 124.413 147.432  0.00  0.00    +0.000 C 
ATOM     13  C   UNL     1     104.852 125.085 146.206  0.00  0.00    +0.000 C 
ATOM     14  C   UNL     1     105.898 124.748 147.436  0.00  0.00    +0.000 A 
ATOM     15  C   UNL     1     106.129 125.252 146.825  0.00  0.00    +0.000 A 
ATOM     16  C   UNL     1     106.435 124.565 148.083  0.00  0.00    +0.000 A 
ATOM     17  C   UNL     1     106.912 125.607 146.818  0.00  0.00    +0.000 A 
ATOM     18  C   UNL     1     107.221 124.911 148.092  0.00  0.00    +0.000 A 
ATOM     19  C   UNL     1     107.461 125.436 147.455  0.00  0.00    +0.000 A 
ENDBRANCH   3  11
BRANCH   4  20
ATOM     20  C   UNL     1     101.984 124.406 147.905  0.00  0.00    +0.000 C 
ATOM     21  C   UNL     1     101.736 124.995 147.382  0.00  0.00    +0.000 C 
ATOM     22  C   UNL     1     102.232 123.819 148.427  0.00  0.00    +0.000 C 
BRANCH  20  23
ATOM     23  C   UNL     1     101.419 124.655 148.452  0.00  0.00    +0.000 C 
ATOM     24  C   UNL     1     101.640 125.132 149.087  0.00  0.00    +0.000 C 
ENDBRANCH  20  23
ENDBRANCH   4  20
BRANCH   6  25
ATOM     25  O   UNL     1     104.243 123.415 145.713  0.00  0.00    +0.000 OA
ATOM     26  C   UNL     1     104.094 122.759 145.236  0.00  0.00    +0.000 C 
ENDBRANCH   6  25
TORSDOF 4
ENDMDL
MODEL 6
REMARK VINA RESULT:      -8.3      1.022      4.365
REMARK  Name = 21676181
REMARK  4 active torsions:
REMARK  status: ('A' for Active; 'I' for Inactive)
REMARK    1  A    between atoms: O_2  and  C_14
REMARK    2  A    between atoms: C_6  and  C_8
REMARK    3  A    between atoms: C_10  and  C_11
REMARK    4  A    between atoms: C_10  and  C_20
REMARK                            x       y       z     vdW  Elec       q    Type
REMARK                         _______ _______ _______ _____ _____    ______ ____
ROOT
ATOM      1  O   UNL     1     113.308 130.537 136.398  0.00  0.00    +0.000 OA
ATOM      2  O   UNL     1     112.356 129.848 137.556  0.00  0.00    +0.000 OA
ATOM      3  C   UNL     1     113.050 128.077 136.485  0.00  0.00    +0.000 A 
ATOM      4  C   UNL     1     113.612 129.241 135.877  0.00  0.00    +0.000 A 
ATOM      5  C   UNL     1     113.526 128.422 135.906  0.00  0.00    +0.000 A 
ATOM      6  C   UNL     1     112.660 128.552 137.035  0.00  0.00    +0.000 A 
ATOM      7  C   UNL     1     113.222 129.717 136.427  0.00  0.00    +0.000 A 
ATOM      8  C   UNL     1     112.746 129.373 137.006  0.00  0.00    +0.000 A 
ENDROOT
BRANCH   3  11
ATOM      9  O   UNL     1     112.199 126.082 136.237  0.00  0.00    +0.000 OA
ATOM     10  O   UNL     1     113.215 123.454 136.972  0.00  0.00    +0.000 OA
ATOM     11  C   UNL     1     112.964 127.257 136.514  0.00  0.00    +0.000 C 
ATOM     12  C   UNL     1     113.557 126.791 136.850  0.00  0.00    +0.000 C 
ATOM     13  C   UNL     1     112.285 126.903 136.207  0.00  0.00    +0.000 C 
ATOM     14  C   UNL     1     113.471 125.972 136.879  0.00  0.00    +0.000 A 
ATOM     15  C   UNL     1     112.792 125.617 136.572  0.00  0.00    +0.000 A 
ATOM     16  C   UNL     1     114.095 125.498 137.231  0.00  0.00    +0.000 A 
ATOM     17  C   UNL     1     112.690 124.764 136.597  0.00  0.00    +0.000 A 
ATOM     18  C   UNL     1     114.011 124.643 137.264  0.00  0.00    +0.000 A 
ATOM     19  C   UNL     1     113.303 124.274 136.945  0.00  0.00    +0.000 A 
ENDBRANCH   3  11
BRANCH   4  20
ATOM     20  C   UNL     1     114.087 129.587 135.297  0.00  0.00    +0.000 C 
ATOM     21  C   UNL     1     113.474 129.512 134.750  0.00  0.00    +0.000 C 
ATOM     22  C   UNL     1     114.700 129.661 135.844  0.00  0.00    +0.000 C 
BRANCH  20  23
ATOM     23  C   UNL     1     114.562 129.932 134.718  0.00  0.00    +0.000 C 
ATOM     24  C   UNL     1     115.338 129.674 134.612  0.00  0.00    +0.000 C 
ENDBRANCH  20  23
ENDBRANCH   4  20
BRANCH   6  25
ATOM     25  O   UNL     1     112.184 128.208 137.614  0.00  0.00    +0.000 OA
ATOM     26  C   UNL     1     111.871 128.672 138.220  0.00  0.00    +0.000 C 
ENDBRANCH   6  25
TORSDOF 4
ENDMDL
MODEL 7
REMARK VINA RESULT:      -8.2      1.913      2.354
REMARK  Name = 21676181
REMARK  4 active torsions:
REMARK  status: ('A' for Active; 'I' for Inactive)
REMARK    1  A    between atoms: O_2  and  C_14
REMARK    2  A    between atoms: C_6  and  C_8
REMARK    3  A    between atoms: C_10  and  C_11
REMARK    4  A    between atoms: C_10  and  C_20
REMARK                            x       y       z     vdW  Elec       q    Type
REMARK                         _______ _______ _______ _____ _____    ______ ____
ROOT
ATOM      1  O   UNL     1     112.283 123.941 136.456  0.00  0.00    +0.000 OA
ATOM      2  O   UNL     1     110.938 124.619 135.783  0.00  0.00    +0.000 OA
ATOM      3  C   UNL     1     112.103 126.402 136.261  0.00  0.00    +0.000 A 
ATOM      4  C   UNL     1     112.836 125.243 136.662  0.00  0.00    +0.000 A 
ATOM      5  C   UNL     1     112.776 126.063 136.598  0.00  0.00    +0.000 A 
ATOM      6  C   UNL     1     111.490 125.921 135.990  0.00  0.00    +0.000 A 
ATOM      7  C   UNL     1     112.223 124.762 136.391  0.00  0.00    +0.000 A 
ATOM      8  C   UNL     1     111.550 125.100 136.055  0.00  0.00    +0.000 A 
ENDROOT
BRANCH   3  11
ATOM      9  O   UNL     1     112.174 128.416 135.421  0.00  0.00    +0.000 OA
ATOM     10  O   UNL     1     111.543 131.008 136.587  0.00  0.00    +0.000 OA
ATOM     11  C   UNL     1     112.043 127.222 136.197  0.00  0.00    +0.000 C 
ATOM     12  C   UNL     1     111.791 127.670 136.842  0.00  0.00    +0.000 C 
ATOM     13  C   UNL     1     112.235 127.595 135.486  0.00  0.00    +0.000 C 
ATOM     14  C   UNL     1     111.731 128.490 136.777  0.00  0.00    +0.000 A 
ATOM     15  C   UNL     1     111.922 128.863 136.067  0.00  0.00    +0.000 A 
ATOM     16  C   UNL     1     111.467 128.945 137.457  0.00  0.00    +0.000 A 
ATOM     17  C   UNL     1     111.864 129.717 135.987  0.00  0.00    +0.000 A 
ATOM     18  C   UNL     1     111.402 129.800 137.396  0.00  0.00    +0.000 A 
ATOM     19  C   UNL     1     111.602 130.188 136.655  0.00  0.00    +0.000 A 
ENDBRANCH   3  11
BRANCH   4  20
ATOM     20  C   UNL     1     113.508 124.903 136.999  0.00  0.00    +0.000 C 
ATOM     21  C   UNL     1     113.168 124.972 137.748  0.00  0.00    +0.000 C 
ATOM     22  C   UNL     1     113.848 124.834 136.251  0.00  0.00    +0.000 C 
BRANCH  20  23
ATOM     23  C   UNL     1     114.180 124.564 137.336  0.00  0.00    +0.000 C 
ATOM     24  C   UNL     1     114.878 124.999 137.395  0.00  0.00    +0.000 C 
ENDBRANCH  20  23
ENDBRANCH   4  20
BRANCH   6  25
ATOM     25  O   UNL     1     110.818 126.260 135.654  0.00  0.00    +0.000 OA
ATOM     26  C   UNL     1     110.239 125.779 135.314  0.00  0.00    +0.000 C 
ENDBRANCH   6  25
TORSDOF 4
ENDMDL
