MODEL 1
REMARK VINA RESULT:     -10.4      0.000      0.000
REMARK  Name = 44257070
REMARK  5 active torsions:
REMARK  status: ('A' for Active; 'I' for Inactive)
REMARK    1  A    between atoms: O_1  and  C_14
REMARK    2  A    between atoms: O_1  and  C_15
REMARK    3  A    between atoms: C_18  and  C_27
REMARK    4  A    between atoms: C_21  and  C_28
REMARK    5  A    between atoms: C_24  and  C_25
REMARK                            x       y       z     vdW  Elec       q    Type
REMARK                         _______ _______ _______ _____ _____    ______ ____
ROOT
ATOM      1  O   UNL     1     112.771 126.854 136.372  0.00  0.00    +0.000 OA
ATOM      2  O   UNL     1     110.161 125.766 135.774  0.00  0.00    +0.000 OA
ATOM      3  O   UNL     1     112.312 123.991 136.643  0.00  0.00    +0.000 OA
ATOM      4  C   UNL     1     111.715 127.719 135.947  0.00  0.00    +0.000 C 
ATOM      5  C   UNL     1     112.498 127.610 136.187  0.00  0.00    +0.000 C 
ATOM      6  C   UNL     1     111.208 127.071 135.892  0.00  0.00    +0.000 C 
ATOM      7  C   UNL     1     111.481 126.315 136.077  0.00  0.00    +0.000 A 
ATOM      8  C   UNL     1     112.262 126.207 136.317  0.00  0.00    +0.000 A 
ATOM      9  C   UNL     1     112.560 125.425 136.513  0.00  0.00    +0.000 A 
ATOM     10  C   UNL     1     110.942 125.648 136.016  0.00  0.00    +0.000 A 
ATOM     11  C   UNL     1     112.036 124.746 136.457  0.00  0.00    +0.000 A 
ATOM     12  C   UNL     1     111.221 124.859 136.207  0.00  0.00    +0.000 A 
ENDROOT
BRANCH   5  15
ATOM     13  O   UNL     1     113.727 129.665 137.748  0.00  0.00    +0.000 OA
ATOM     14  O   UNL     1     114.528 130.202 136.410  0.00  0.00    +0.000 OA
ATOM     15  C   UNL     1     113.005 128.258 136.242  0.00  0.00    +0.000 A 
ATOM     16  C   UNL     1     113.112 128.637 136.968  0.00  0.00    +0.000 A 
ATOM     17  C   UNL     1     113.406 128.527 135.573  0.00  0.00    +0.000 A 
ATOM     18  C   UNL     1     113.620 129.285 137.023  0.00  0.00    +0.000 A 
ATOM     19  C   UNL     1     113.913 129.175 135.629  0.00  0.00    +0.000 A 
ATOM     20  C   UNL     1     114.020 129.554 136.353  0.00  0.00    +0.000 A 
ENDBRANCH   5  15
BRANCH   9  23
ATOM     21  O   UNL     1     114.943 125.260 138.164  0.00  0.00    +0.000 OA
ATOM     22  N   UNL     1     113.625 125.392 137.524  0.00  0.00    +0.000 NA
ATOM     23  C   UNL     1     113.343 125.325 136.752  0.00  0.00    +0.000 C 
ATOM     24  C   UNL     1     113.981 125.141 136.263  0.00  0.00    +0.000 C 
ATOM     25  C   UNL     1     114.657 125.094 136.732  0.00  0.00    +0.000 C 
ATOM     26  C   UNL     1     114.438 125.250 137.512  0.00  0.00    +0.000 C 
ENDBRANCH   9  23
BRANCH   4  27
ATOM     27  O   UNL     1     111.442 128.475 135.762  0.00  0.00    +0.000 OA
BRANCH  27  32
ATOM     28  O   UNL     1     110.453 128.668 136.776  0.00  0.00    +0.000 OA
ATOM     29  O   UNL     1     110.374 129.003 134.620  0.00  0.00    +0.000 OA
ATOM     30  O   UNL     1     108.852 129.461 135.064  0.00  0.00    +0.000 OA
ATOM     31  O   UNL     1     108.398 129.390 136.648  0.00  0.00    +0.000 OA
ATOM     32  C   UNL     1     110.681 128.703 135.983  0.00  0.00    +0.000 C 
ATOM     33  C   UNL     1     110.147 128.968 135.413  0.00  0.00    +0.000 C 
ATOM     34  C   UNL     1     109.386 129.197 135.634  0.00  0.00    +0.000 C 
ATOM     35  C   UNL     1     109.159 129.161 136.427  0.00  0.00    +0.000 C 
ATOM     36  C   UNL     1     109.693 128.897 136.997  0.00  0.00    +0.000 C 
BRANCH  36  38
ATOM     37  O   UNL     1     109.976 129.133 138.378  0.00  0.00    +0.000 OA
ATOM     38  C   UNL     1     109.466 128.862 137.789  0.00  0.00    +0.000 C 
ENDBRANCH  36  38
ENDBRANCH  27  32
ENDBRANCH   4  27
TORSDOF 5
ENDMDL
MODEL 2
REMARK VINA RESULT:      -9.7      2.371      4.726
REMARK  Name = 44257070
REMARK  5 active torsions:
REMARK  status: ('A' for Active; 'I' for Inactive)
REMARK    1  A    between atoms: O_1  and  C_14
REMARK    2  A    between atoms: O_1  and  C_15
REMARK    3  A    between atoms: C_18  and  C_27
REMARK    4  A    between atoms: C_21  and  C_28
REMARK    5  A    between atoms: C_24  and  C_25
REMARK                            x       y       z     vdW  Elec       q    Type
REMARK                         _______ _______ _______ _____ _____    ______ ____
ROOT
ATOM      1  O   UNL     1     113.192 127.918 136.879  0.00  0.00    +0.000 OA
ATOM      2  O   UNL     1     112.057 129.630 138.913  0.00  0.00    +0.000 OA
ATOM      3  O   UNL     1     113.155 130.802 136.473  0.00  0.00    +0.000 OA
ATOM      4  C   UNL     1     112.653 127.349 138.075  0.00  0.00    +0.000 C 
ATOM      5  C   UNL     1     113.020 127.257 137.341  0.00  0.00    +0.000 C 
ATOM      6  C   UNL     1     112.459 128.104 138.346  0.00  0.00    +0.000 C 
ATOM      7  C   UNL     1     112.631 128.766 137.884  0.00  0.00    +0.000 A 
ATOM      8  C   UNL     1     112.997 128.672 137.151  0.00  0.00    +0.000 A 
ATOM      9  C   UNL     1     113.182 129.353 136.661  0.00  0.00    +0.000 A 
ATOM     10  C   UNL     1     112.423 129.546 138.178  0.00  0.00    +0.000 A 
ATOM     11  C   UNL     1     112.982 130.142 136.937  0.00  0.00    +0.000 A 
ATOM     12  C   UNL     1     112.600 130.238 137.701  0.00  0.00    +0.000 A 
ENDROOT
BRANCH   5  15
ATOM     13  O   UNL     1     114.927 125.148 137.048  0.00  0.00    +0.000 OA
ATOM     14  O   UNL     1     113.799 124.238 136.259  0.00  0.00    +0.000 OA
ATOM     15  C   UNL     1     113.214 126.502 137.071  0.00  0.00    +0.000 A 
ATOM     16  C   UNL     1     113.973 126.202 137.195  0.00  0.00    +0.000 A 
ATOM     17  C   UNL     1     112.650 126.047 136.677  0.00  0.00    +0.000 A 
ATOM     18  C   UNL     1     114.167 125.448 136.924  0.00  0.00    +0.000 A 
ATOM     19  C   UNL     1     112.845 125.292 136.406  0.00  0.00    +0.000 A 
ATOM     20  C   UNL     1     113.604 124.993 136.530  0.00  0.00    +0.000 A 
ENDBRANCH   5  15
BRANCH   9  23
ATOM     21  O   UNL     1     115.214 129.023 134.612  0.00  0.00    +0.000 OA
ATOM     22  N   UNL     1     114.361 129.200 135.798  0.00  0.00    +0.000 NA
ATOM     23  C   UNL     1     113.549 129.251 135.928  0.00  0.00    +0.000 C 
ATOM     24  C   UNL     1     113.168 129.184 135.200  0.00  0.00    +0.000 C 
ATOM     25  C   UNL     1     113.745 129.090 134.619  0.00  0.00    +0.000 C 
ATOM     26  C   UNL     1     114.483 129.100 134.987  0.00  0.00    +0.000 C 
ENDBRANCH   9  23
BRANCH   4  27
ATOM     27  O   UNL     1     112.481 126.688 138.537  0.00  0.00    +0.000 OA
BRANCH  27  32
ATOM     28  O   UNL     1     113.242 126.976 139.712  0.00  0.00    +0.000 OA
ATOM     29  O   UNL     1     111.183 126.291 139.476  0.00  0.00    +0.000 OA
ATOM     30  O   UNL     1     111.295 126.381 141.119  0.00  0.00    +0.000 OA
ATOM     31  O   UNL     1     112.705 126.867 141.824  0.00  0.00    +0.000 OA
ATOM     32  C   UNL     1     112.537 126.733 139.358  0.00  0.00    +0.000 C 
ATOM     33  C   UNL     1     111.888 126.534 139.828  0.00  0.00    +0.000 C 
ATOM     34  C   UNL     1     111.944 126.579 140.650  0.00  0.00    +0.000 C 
ATOM     35  C   UNL     1     112.649 126.823 141.002  0.00  0.00    +0.000 C 
ATOM     36  C   UNL     1     113.298 127.021 140.533  0.00  0.00    +0.000 C 
BRANCH  36  38
ATOM     37  O   UNL     1     114.719 126.925 140.655  0.00  0.00    +0.000 OA
ATOM     38  C   UNL     1     114.002 127.264 140.885  0.00  0.00    +0.000 C 
ENDBRANCH  36  38
ENDBRANCH  27  32
ENDBRANCH   4  27
TORSDOF 5
ENDMDL
MODEL 3
REMARK VINA RESULT:      -9.6      2.379      5.231
REMARK  Name = 44257070
REMARK  5 active torsions:
REMARK  status: ('A' for Active; 'I' for Inactive)
REMARK    1  A    between atoms: O_1  and  C_14
REMARK    2  A    between atoms: O_1  and  C_15
REMARK    3  A    between atoms: C_18  and  C_27
REMARK    4  A    between atoms: C_21  and  C_28
REMARK    5  A    between atoms: C_24  and  C_25
REMARK                            x       y       z     vdW  Elec       q    Type
REMARK                         _______ _______ _______ _____ _____    ______ ____
ROOT
ATOM      1  O   UNL     1     112.363 128.278 138.481  0.00  0.00    +0.000 OA
ATOM      2  O   UNL     1     113.851 127.993 136.020  0.00  0.00    +0.000 OA
ATOM      3  O   UNL     1     112.329 130.434 136.524  0.00  0.00    +0.000 OA
ATOM      4  C   UNL     1     113.110 127.085 138.230  0.00  0.00    +0.000 C 
ATOM      5  C   UNL     1     112.616 127.530 138.720  0.00  0.00    +0.000 C 
ATOM      6  C   UNL     1     113.351 127.390 137.502  0.00  0.00    +0.000 C 
ATOM      7  C   UNL     1     113.099 128.138 137.264  0.00  0.00    +0.000 A 
ATOM      8  C   UNL     1     112.605 128.582 137.753  0.00  0.00    +0.000 A 
ATOM      9  C   UNL     1     112.335 129.363 137.517  0.00  0.00    +0.000 A 
ATOM     10  C   UNL     1     113.357 128.444 136.503  0.00  0.00    +0.000 A 
ATOM     11  C   UNL     1     112.583 129.686 136.760  0.00  0.00    +0.000 A 
ATOM     12  C   UNL     1     113.097 129.223 136.250  0.00  0.00    +0.000 A 
ENDROOT
BRANCH   5  15
ATOM     13  O   UNL     1     110.683 126.142 140.303  0.00  0.00    +0.000 OA
ATOM     14  O   UNL     1     111.650 126.309 141.629  0.00  0.00    +0.000 OA
ATOM     15  C   UNL     1     112.375 127.225 139.447  0.00  0.00    +0.000 A 
ATOM     16  C   UNL     1     111.649 126.836 139.511  0.00  0.00    +0.000 A 
ATOM     17  C   UNL     1     112.858 127.308 140.110  0.00  0.00    +0.000 A 
ATOM     18  C   UNL     1     111.408 126.531 140.239  0.00  0.00    +0.000 A 
ATOM     19  C   UNL     1     112.616 127.003 140.838  0.00  0.00    +0.000 A 
ATOM     20  C   UNL     1     111.892 126.614 140.902  0.00  0.00    +0.000 A 
ENDBRANCH   5  15
BRANCH   9  23
ATOM     21  O   UNL     1     111.402 131.154 139.604  0.00  0.00    +0.000 OA
ATOM     22  N   UNL     1     112.087 130.299 138.621  0.00  0.00    +0.000 NA
ATOM     23  C   UNL     1     111.841 129.800 138.013  0.00  0.00    +0.000 C 
ATOM     24  C   UNL     1     111.017 129.815 137.987  0.00  0.00    +0.000 C 
ATOM     25  C   UNL     1     110.753 130.324 138.579  0.00  0.00    +0.000 C 
ATOM     26  C   UNL     1     111.413 130.624 138.972  0.00  0.00    +0.000 C 
ENDBRANCH   9  23
BRANCH   4  27
ATOM     27  O   UNL     1     113.363 126.337 138.468  0.00  0.00    +0.000 OA
BRANCH  27  32
ATOM     28  O   UNL     1     112.793 125.500 137.459  0.00  0.00    +0.000 OA
ATOM     29  O   UNL     1     114.820 125.591 138.263  0.00  0.00    +0.000 OA
ATOM     30  O   UNL     1     114.979 124.382 137.152  0.00  0.00    +0.000 OA
ATOM     31  O   UNL     1     113.681 123.919 136.246  0.00  0.00    +0.000 OA
ATOM     32  C   UNL     1     113.442 125.732 137.913  0.00  0.00    +0.000 C 
ATOM     33  C   UNL     1     114.171 125.360 137.810  0.00  0.00    +0.000 C 
ATOM     34  C   UNL     1     114.251 124.755 137.254  0.00  0.00    +0.000 C 
ATOM     35  C   UNL     1     113.601 124.523 136.801  0.00  0.00    +0.000 C 
ATOM     36  C   UNL     1     112.872 124.896 136.904  0.00  0.00    +0.000 C 
BRANCH  36  38
ATOM     37  O   UNL     1     111.483 124.579 136.803  0.00  0.00    +0.000 OA
ATOM     38  C   UNL     1     112.224 124.664 136.451  0.00  0.00    +0.000 C 
ENDBRANCH  36  38
ENDBRANCH  27  32
ENDBRANCH   4  27
TORSDOF 5
ENDMDL
MODEL 4
REMARK VINA RESULT:      -9.6      2.059      3.323
REMARK  Name = 44257070
REMARK  5 active torsions:
REMARK  status: ('A' for Active; 'I' for Inactive)
REMARK    1  A    between atoms: O_1  and  C_14
REMARK    2  A    between atoms: O_1  and  C_15
REMARK    3  A    between atoms: C_18  and  C_27
REMARK    4  A    between atoms: C_21  and  C_28
REMARK    5  A    between atoms: C_24  and  C_25
REMARK                            x       y       z     vdW  Elec       q    Type
REMARK                         _______ _______ _______ _____ _____    ______ ____
ROOT
ATOM      1  O   UNL     1     112.022 126.557 137.695  0.00  0.00    +0.000 OA
ATOM      2  O   UNL     1     110.645 128.371 135.915  0.00  0.00    +0.000 OA
ATOM      3  O   UNL     1     111.072 125.594 135.116  0.00  0.00    +0.000 OA
ATOM      4  C   UNL     1     111.811 127.917 138.081  0.00  0.00    +0.000 C 
ATOM      5  C   UNL     1     112.108 127.165 138.246  0.00  0.00    +0.000 C 
ATOM      6  C   UNL     1     111.427 128.061 137.365  0.00  0.00    +0.000 C 
ATOM      7  C   UNL     1     111.341 127.453 136.814  0.00  0.00    +0.000 A 
ATOM      8  C   UNL     1     111.638 126.702 136.979  0.00  0.00    +0.000 A 
ATOM      9  C   UNL     1     111.555 126.060 136.413  0.00  0.00    +0.000 A 
ATOM     10  C   UNL     1     110.939 127.616 136.071  0.00  0.00    +0.000 A 
ATOM     11  C   UNL     1     111.156 126.204 135.665  0.00  0.00    +0.000 A 
ATOM     12  C   UNL     1     110.847 126.987 135.494  0.00  0.00    +0.000 A 
ENDROOT
BRANCH   5  15
ATOM     13  O   UNL     1     112.002 126.418 141.002  0.00  0.00    +0.000 OA
ATOM     14  O   UNL     1     113.640 126.591 141.112  0.00  0.00    +0.000 OA
ATOM     15  C   UNL     1     112.492 127.022 138.962  0.00  0.00    +0.000 A 
ATOM     16  C   UNL     1     112.055 126.791 139.624  0.00  0.00    +0.000 A 
ATOM     17  C   UNL     1     113.310 127.108 139.017  0.00  0.00    +0.000 A 
ATOM     18  C   UNL     1     112.439 126.648 140.340  0.00  0.00    +0.000 A 
ATOM     19  C   UNL     1     113.693 126.965 139.734  0.00  0.00    +0.000 A 
ATOM     20  C   UNL     1     113.257 126.735 140.395  0.00  0.00    +0.000 A 
ENDBRANCH   5  15
BRANCH   9  23
ATOM     21  O   UNL     1     111.783 123.334 137.385  0.00  0.00    +0.000 OA
ATOM     22  N   UNL     1     111.454 124.709 136.980  0.00  0.00    +0.000 NA
ATOM     23  C   UNL     1     111.855 125.311 136.586  0.00  0.00    +0.000 C 
ATOM     24  C   UNL     1     112.608 125.034 136.395  0.00  0.00    +0.000 C 
ATOM     25  C   UNL     1     112.673 124.260 136.671  0.00  0.00    +0.000 C 
ATOM     26  C   UNL     1     111.959 124.058 137.033  0.00  0.00    +0.000 C 
ENDBRANCH   9  23
BRANCH   4  27
ATOM     27  O   UNL     1     111.897 128.525 138.632  0.00  0.00    +0.000 OA
BRANCH  27  32
ATOM     28  O   UNL     1     112.634 129.484 137.872  0.00  0.00    +0.000 OA
ATOM     29  O   UNL     1     110.863 129.712 139.128  0.00  0.00    +0.000 OA
ATOM     30  O   UNL     1     111.084 131.265 138.616  0.00  0.00    +0.000 OA
ATOM     31  O   UNL     1     112.338 131.630 137.609  0.00  0.00    +0.000 OA
ATOM     32  C   UNL     1     112.007 129.301 138.376  0.00  0.00    +0.000 C 
ATOM     33  C   UNL     1     111.491 129.894 138.624  0.00  0.00    +0.000 C 
ATOM     34  C   UNL     1     111.601 130.671 138.368  0.00  0.00    +0.000 C 
ATOM     35  C   UNL     1     112.228 130.854 137.864  0.00  0.00    +0.000 C 
ATOM     36  C   UNL     1     112.745 130.260 137.616  0.00  0.00    +0.000 C 
BRANCH  36  38
ATOM     37  O   UNL     1     114.118 130.118 137.247  0.00  0.00    +0.000 OA
ATOM     38  C   UNL     1     113.372 130.443 137.113  0.00  0.00    +0.000 C 
ENDBRANCH  36  38
ENDBRANCH  27  32
ENDBRANCH   4  27
TORSDOF 5
ENDMDL
MODEL 5
REMARK VINA RESULT:      -9.6      2.129      4.450
REMARK  Name = 44257070
REMARK  5 active torsions:
REMARK  status: ('A' for Active; 'I' for Inactive)
REMARK    1  A    between atoms: O_1  and  C_14
REMARK    2  A    between atoms: O_1  and  C_15
REMARK    3  A    between atoms: C_18  and  C_27
REMARK    4  A    between atoms: C_21  and  C_28
REMARK    5  A    between atoms: C_24  and  C_25
REMARK                            x       y       z     vdW  Elec       q    Type
REMARK                         _______ _______ _______ _____ _____    ______ ____
ROOT
ATOM      1  O   UNL     1     112.903 128.368 138.241  0.00  0.00    +0.000 OA
ATOM      2  O   UNL     1     112.153 126.056 139.804  0.00  0.00    +0.000 OA
ATOM      3  O   UNL     1     112.875 128.547 141.148  0.00  0.00    +0.000 OA
ATOM      4  C   UNL     1     112.548 127.146 137.588  0.00  0.00    +0.000 C 
ATOM      5  C   UNL     1     112.790 127.934 137.548  0.00  0.00    +0.000 C 
ATOM      6  C   UNL     1     112.420 126.792 138.322  0.00  0.00    +0.000 C 
ATOM      7  C   UNL     1     112.532 127.225 139.015  0.00  0.00    +0.000 A 
ATOM      8  C   UNL     1     112.774 128.012 138.974  0.00  0.00    +0.000 A 
ATOM      9  C   UNL     1     112.895 128.474 139.688  0.00  0.00    +0.000 A 
ATOM     10  C   UNL     1     112.395 126.844 139.773  0.00  0.00    +0.000 A 
ATOM     11  C   UNL     1     112.762 128.111 140.456  0.00  0.00    +0.000 A 
ATOM     12  C   UNL     1     112.510 127.290 140.498  0.00  0.00    +0.000 A 
ENDROOT
BRANCH   5  15
ATOM     13  O   UNL     1     114.569 128.680 135.439  0.00  0.00    +0.000 OA
ATOM     14  O   UNL     1     113.308 129.350 134.612  0.00  0.00    +0.000 OA
ATOM     15  C   UNL     1     112.919 128.288 136.814  0.00  0.00    +0.000 A 
ATOM     16  C   UNL     1     113.680 128.307 136.493  0.00  0.00    +0.000 A 
ATOM     17  C   UNL     1     112.289 128.623 136.400  0.00  0.00    +0.000 A 
ATOM     18  C   UNL     1     113.809 128.661 135.760  0.00  0.00    +0.000 A 
ATOM     19  C   UNL     1     112.419 128.977 135.666  0.00  0.00    +0.000 A 
ATOM     20  C   UNL     1     113.178 128.996 135.346  0.00  0.00    +0.000 A 
ENDBRANCH   5  15
BRANCH   9  23
ATOM     21  O   UNL     1     114.563 130.846 139.534  0.00  0.00    +0.000 OA
ATOM     22  N   UNL     1     113.917 129.527 139.618  0.00  0.00    +0.000 NA
ATOM     23  C   UNL     1     113.136 129.262 139.639  0.00  0.00    +0.000 C 
ATOM     24  C   UNL     1     112.642 129.920 139.602  0.00  0.00    +0.000 C 
ATOM     25  C   UNL     1     113.115 130.593 139.558  0.00  0.00    +0.000 C 
ATOM     26  C   UNL     1     113.904 130.352 139.568  0.00  0.00    +0.000 C 
ENDBRANCH   9  23
BRANCH   4  27
ATOM     27  O   UNL     1     112.436 126.713 136.895  0.00  0.00    +0.000 OA
BRANCH  27  32
ATOM     28  O   UNL     1     113.374 125.648 137.062  0.00  0.00    +0.000 OA
ATOM     29  O   UNL     1     111.266 125.619 136.498  0.00  0.00    +0.000 OA
ATOM     30  O   UNL     1     111.620 124.008 136.465  0.00  0.00    +0.000 OA
ATOM     31  O   UNL     1     113.143 123.491 136.831  0.00  0.00    +0.000 OA
ATOM     32  C   UNL     1     112.613 125.908 136.879  0.00  0.00    +0.000 C 
ATOM     33  C   UNL     1     112.028 125.361 136.680  0.00  0.00    +0.000 C 
ATOM     34  C   UNL     1     112.205 124.555 136.664  0.00  0.00    +0.000 C 
ATOM     35  C   UNL     1     112.966 124.296 136.847  0.00  0.00    +0.000 C 
ATOM     36  C   UNL     1     113.551 124.843 137.046  0.00  0.00    +0.000 C 
BRANCH  36  38
ATOM     37  O   UNL     1     114.968 125.007 136.960  0.00  0.00    +0.000 OA
ATOM     38  C   UNL     1     114.312 124.584 137.228  0.00  0.00    +0.000 C 
ENDBRANCH  36  38
ENDBRANCH  27  32
ENDBRANCH   4  27
TORSDOF 5
ENDMDL
MODEL 6
REMARK VINA RESULT:      -9.4      1.554      3.231
REMARK  Name = 44257070
REMARK  5 active torsions:
REMARK  status: ('A' for Active; 'I' for Inactive)
REMARK    1  A    between atoms: O_1  and  C_14
REMARK    2  A    between atoms: O_1  and  C_15
REMARK    3  A    between atoms: C_18  and  C_27
REMARK    4  A    between atoms: C_21  and  C_28
REMARK    5  A    between atoms: C_24  and  C_25
REMARK                            x       y       z     vdW  Elec       q    Type
REMARK                         _______ _______ _______ _____ _____    ______ ____
ROOT
ATOM      1  O   UNL     1     111.905 126.036 136.507  0.00  0.00    +0.000 OA
ATOM      2  O   UNL     1     114.473 127.360 136.434  0.00  0.00    +0.000 OA
ATOM      3  O   UNL     1     114.341 124.460 136.753  0.00  0.00    +0.000 OA
ATOM      4  C   UNL     1     111.975 127.456 136.352  0.00  0.00    +0.000 C 
ATOM      5  C   UNL     1     111.528 126.764 136.416  0.00  0.00    +0.000 C 
ATOM      6  C   UNL     1     112.798 127.418 136.380  0.00  0.00    +0.000 C 
ATOM      7  C   UNL     1     113.175 126.690 136.471  0.00  0.00    +0.000 A 
ATOM      8  C   UNL     1     112.729 126.000 136.535  0.00  0.00    +0.000 A 
ATOM      9  C   UNL     1     113.109 125.235 136.631  0.00  0.00    +0.000 A 
ATOM     10  C   UNL     1     114.034 126.664 136.499  0.00  0.00    +0.000 A 
ATOM     11  C   UNL     1     113.967 125.189 136.661  0.00  0.00    +0.000 A 
ATOM     12  C   UNL     1     114.432 125.909 136.594  0.00  0.00    +0.000 A 
ENDROOT
BRANCH   5  15
ATOM     13  O   UNL     1     109.007 126.826 137.761  0.00  0.00    +0.000 OA
ATOM     14  O   UNL     1     108.233 126.916 136.306  0.00  0.00    +0.000 OA
ATOM     15  C   UNL     1     110.704 126.802 136.388  0.00  0.00    +0.000 A 
ATOM     16  C   UNL     1     110.267 126.795 137.088  0.00  0.00    +0.000 A 
ATOM     17  C   UNL     1     110.317 126.847 135.660  0.00  0.00    +0.000 A 
ATOM     18  C   UNL     1     109.444 126.833 137.060  0.00  0.00    +0.000 A 
ATOM     19  C   UNL     1     109.494 126.885 135.634  0.00  0.00    +0.000 A 
ATOM     20  C   UNL     1     109.057 126.878 136.333  0.00  0.00    +0.000 A 
ENDBRANCH   5  15
BRANCH   9  23
ATOM     21  O   UNL     1     111.572 123.033 137.736  0.00  0.00    +0.000 OA
ATOM     22  N   UNL     1     112.376 124.217 137.396  0.00  0.00    +0.000 NA
ATOM     23  C   UNL     1     112.655 124.549 136.694  0.00  0.00    +0.000 C 
ATOM     24  C   UNL     1     112.401 124.075 136.069  0.00  0.00    +0.000 C 
ATOM     25  C   UNL     1     111.965 123.451 136.383  0.00  0.00    +0.000 C 
ATOM     26  C   UNL     1     111.948 123.537 137.203  0.00  0.00    +0.000 C 
ENDBRANCH   9  23
BRANCH   4  27
ATOM     27  O   UNL     1     111.598 128.184 136.260  0.00  0.00    +0.000 OA
BRANCH  27  32
ATOM     28  O   UNL     1     111.981 128.855 137.462  0.00  0.00    +0.000 OA
ATOM     29  O   UNL     1     112.016 129.517 135.382  0.00  0.00    +0.000 OA
ATOM     30  O   UNL     1     112.608 130.855 136.145  0.00  0.00    +0.000 OA
ATOM     31  O   UNL     1     112.782 130.859 137.785  0.00  0.00    +0.000 OA
ATOM     32  C   UNL     1     111.894 128.852 136.641  0.00  0.00    +0.000 C 
ATOM     33  C   UNL     1     112.103 129.518 136.202  0.00  0.00    +0.000 C 
ATOM     34  C   UNL     1     112.399 130.188 136.584  0.00  0.00    +0.000 C 
ATOM     35  C   UNL     1     112.486 130.190 137.404  0.00  0.00    +0.000 C 
ATOM     36  C   UNL     1     112.277 129.523 137.843  0.00  0.00    +0.000 C 
BRANCH  36  38
ATOM     37  O   UNL     1     111.774 129.204 139.142  0.00  0.00    +0.000 OA
ATOM     38  C   UNL     1     112.364 129.525 138.663  0.00  0.00    +0.000 C 
ENDBRANCH  36  38
ENDBRANCH  27  32
ENDBRANCH   4  27
TORSDOF 5
ENDMDL
MODEL 7
REMARK VINA RESULT:      -9.3      2.285      4.969
REMARK  Name = 44257070
REMARK  5 active torsions:
REMARK  status: ('A' for Active; 'I' for Inactive)
REMARK    1  A    between atoms: O_1  and  C_14
REMARK    2  A    between atoms: O_1  and  C_15
REMARK    3  A    between atoms: C_18  and  C_27
REMARK    4  A    between atoms: C_21  and  C_28
REMARK    5  A    between atoms: C_24  and  C_25
REMARK                            x       y       z     vdW  Elec       q    Type
REMARK                         _______ _______ _______ _____ _____    ______ ____
ROOT
ATOM      1  O   UNL     1     111.739 126.795 136.888  0.00  0.00    +0.000 OA
ATOM      2  O   UNL     1     112.587 129.183 138.278  0.00  0.00    +0.000 OA
ATOM      3  O   UNL     1     110.834 129.400 135.951  0.00  0.00    +0.000 OA
ATOM      4  C   UNL     1     112.597 126.694 138.027  0.00  0.00    +0.000 C 
ATOM      5  C   UNL     1     112.171 126.334 137.418  0.00  0.00    +0.000 C 
ATOM      6  C   UNL     1     112.589 127.515 138.105  0.00  0.00    +0.000 C 
ATOM      7  C   UNL     1     112.157 127.977 137.574  0.00  0.00    +0.000 A 
ATOM      8  C   UNL     1     111.733 127.616 136.966  0.00  0.00    +0.000 A 
ATOM      9  C   UNL     1     111.279 128.085 136.407  0.00  0.00    +0.000 A 
ATOM     10  C   UNL     1     112.158 128.831 137.666  0.00  0.00    +0.000 A 
ATOM     11  C   UNL     1     111.267 128.941 136.483  0.00  0.00    +0.000 A 
ATOM     12  C   UNL     1     111.710 129.316 137.117  0.00  0.00    +0.000 A 
ENDROOT
BRANCH   5  15
ATOM     13  O   UNL     1     113.423 123.951 136.458  0.00  0.00    +0.000 OA
ATOM     14  O   UNL     1     112.203 123.049 137.107  0.00  0.00    +0.000 OA
ATOM     15  C   UNL     1     112.179 125.513 137.341  0.00  0.00    +0.000 A 
ATOM     16  C   UNL     1     112.797 125.142 136.938  0.00  0.00    +0.000 A 
ATOM     17  C   UNL     1     111.569 125.062 137.665  0.00  0.00    +0.000 A 
ATOM     18  C   UNL     1     112.804 124.321 136.861  0.00  0.00    +0.000 A 
ATOM     19  C   UNL     1     111.577 124.240 137.587  0.00  0.00    +0.000 A 
ATOM     20  C   UNL     1     112.195 123.870 137.185  0.00  0.00    +0.000 A 
ENDBRANCH   5  15
BRANCH   9  23
ATOM     21  O   UNL     1     109.177 126.718 134.942  0.00  0.00    +0.000 OA
ATOM     22  N   UNL     1     110.097 127.401 135.864  0.00  0.00    +0.000 NA
ATOM     23  C   UNL     1     110.856 127.717 135.801  0.00  0.00    +0.000 C 
ATOM     24  C   UNL     1     111.118 127.600 135.028  0.00  0.00    +0.000 C 
ATOM     25  C   UNL     1     110.521 127.212 134.613  0.00  0.00    +0.000 C 
ATOM     26  C   UNL     1     109.889 127.089 135.129  0.00  0.00    +0.000 C 
ENDBRANCH   9  23
BRANCH   4  27
ATOM     27  O   UNL     1     113.029 126.233 138.558  0.00  0.00    +0.000 OA
BRANCH  27  32
ATOM     28  O   UNL     1     112.397 126.529 139.805  0.00  0.00    +0.000 OA
ATOM     29  O   UNL     1     114.504 126.534 139.234  0.00  0.00    +0.000 OA
ATOM     30  O   UNL     1     114.609 126.980 140.819  0.00  0.00    +0.000 OA
ATOM     31  O   UNL     1     113.240 127.126 141.727  0.00  0.00    +0.000 OA
ATOM     32  C   UNL     1     113.081 126.456 139.349  0.00  0.00    +0.000 C 
ATOM     33  C   UNL     1     113.819 126.606 139.688  0.00  0.00    +0.000 C 
ATOM     34  C   UNL     1     113.872 126.830 140.481  0.00  0.00    +0.000 C 
ATOM     35  C   UNL     1     113.187 126.903 140.934  0.00  0.00    +0.000 C 
ATOM     36  C   UNL     1     112.449 126.752 140.596  0.00  0.00    +0.000 C 
BRANCH  36  38
ATOM     37  O   UNL     1     111.195 126.229 141.037  0.00  0.00    +0.000 OA
ATOM     38  C   UNL     1     111.765 126.825 141.051  0.00  0.00    +0.000 C 
ENDBRANCH  36  38
ENDBRANCH  27  32
ENDBRANCH   4  27
TORSDOF 5
ENDMDL
