MODEL 1
REMARK VINA RESULT:     -10.5      0.000      0.000
REMARK  Name = 44260058
REMARK  12 active torsions:
REMARK  status: ('A' for Active; 'I' for Inactive)
REMARK    1  A    between atoms: O_2  and  C_24
REMARK    2  A    between atoms: O_2  and  C_30
REMARK    3  A    between atoms: O_3  and  C_29
REMARK    4  A    between atoms: O_3  and  C_31
REMARK    5  A    between atoms: O_8  and  C_28
REMARK    6  A    between atoms: O_8  and  C_41
REMARK    7  A    between atoms: O_19  and  C_48
REMARK    8  A    between atoms: O_20  and  C_51
REMARK    9  A    between atoms: O_22  and  C_53
REMARK   10  A    between atoms: C_26  and  C_29
REMARK   11  A    between atoms: C_36  and  C_40
REMARK   12  A    between atoms: C_42  and  C_46
REMARK                            x       y       z     vdW  Elec       q    Type
REMARK                         _______ _______ _______ _____ _____    ______ ____
ROOT
ATOM      1  O   UNL     1     111.053 128.237 137.393  0.00  0.00    +0.000 OA
ATOM      2  O   UNL     1     109.049 128.851 137.997  0.00  0.00    +0.000 OA
ATOM      3  O   UNL     1     110.305 128.829 135.430  0.00  0.00    +0.000 OA
ATOM      4  C   UNL     1     109.676 128.840 136.713  0.00  0.00    +0.000 C 
ATOM      5  C   UNL     1     109.707 128.694 137.525  0.00  0.00    +0.000 C 
ATOM      6  C   UNL     1     110.395 128.393 137.865  0.00  0.00    +0.000 C 
ATOM      7  C   UNL     1     110.334 128.684 136.242  0.00  0.00    +0.000 C 
ATOM      8  C   UNL     1     111.024 128.382 136.581  0.00  0.00    +0.000 C 
ENDROOT
BRANCH   4   9
ATOM      9  O   UNL     1     108.988 129.142 136.374  0.00  0.00    +0.000 OA
BRANCH   9  14
ATOM     10  O   UNL     1     109.507 130.468 136.489  0.00  0.00    +0.000 OA
ATOM     11  O   UNL     1     107.558 129.751 135.820  0.00  0.00    +0.000 OA
ATOM     12  O   UNL     1     107.363 131.381 135.658  0.00  0.00    +0.000 OA
ATOM     13  O   UNL     1     108.598 132.403 136.050  0.00  0.00    +0.000 OA
ATOM     14  C   UNL     1     108.890 129.957 136.293  0.00  0.00    +0.000 C 
ATOM     15  C   UNL     1     108.176 130.261 136.016  0.00  0.00    +0.000 C 
ATOM     16  C   UNL     1     108.078 131.077 135.935  0.00  0.00    +0.000 C 
ATOM     17  C   UNL     1     108.695 131.587 136.131  0.00  0.00    +0.000 C 
ATOM     18  C   UNL     1     109.411 131.283 136.408  0.00  0.00    +0.000 C 
ENDBRANCH   9  14
ENDBRANCH   4   9
BRANCH   8  19
ATOM     19  O   UNL     1     111.682 128.226 136.109  0.00  0.00    +0.000 OA
BRANCH  19  24
ATOM     20  O   UNL     1     113.423 127.001 136.594  0.00  0.00    +0.000 OA
ATOM     21  O   UNL     1     111.023 126.714 136.062  0.00  0.00    +0.000 OA
ATOM     22  O   UNL     1     111.137 125.282 136.187  0.00  0.00    +0.000 OA
ATOM     23  O   UNL     1     113.729 124.118 136.863  0.00  0.00    +0.000 OA
ATOM     24  C   UNL     1     112.152 127.566 136.263  0.00  0.00    +0.000 A 
ATOM     25  C   UNL     1     112.952 127.662 136.441  0.00  0.00    +0.000 A 
ATOM     26  C   UNL     1     111.823 126.810 136.239  0.00  0.00    +0.000 A 
ATOM     27  C   UNL     1     112.293 126.150 136.393  0.00  0.00    +0.000 A 
ATOM     28  C   UNL     1     113.093 126.246 136.570  0.00  0.00    +0.000 A 
ATOM     29  C   UNL     1     111.938 125.368 136.365  0.00  0.00    +0.000 A 
ATOM     30  C   UNL     1     113.593 125.566 136.732  0.00  0.00    +0.000 A 
ATOM     31  C   UNL     1     112.422 124.676 136.524  0.00  0.00    +0.000 A 
ATOM     32  C   UNL     1     113.256 124.776 136.709  0.00  0.00    +0.000 A 
BRANCH  25  34
ATOM     33  O   UNL     1     114.273 130.685 136.534  0.00  0.00    +0.000 OA
ATOM     34  C   UNL     1     113.282 128.417 136.464  0.00  0.00    +0.000 A 
ATOM     35  C   UNL     1     113.410 128.789 137.190  0.00  0.00    +0.000 A 
ATOM     36  C   UNL     1     113.484 128.801 135.762  0.00  0.00    +0.000 A 
ATOM     37  C   UNL     1     113.741 129.545 137.212  0.00  0.00    +0.000 A 
ATOM     38  C   UNL     1     113.815 129.557 135.786  0.00  0.00    +0.000 A 
ATOM     39  C   UNL     1     113.943 129.929 136.511  0.00  0.00    +0.000 A 
BRANCH  37  40
ATOM     40  O   UNL     1     113.869 129.917 137.937  0.00  0.00    +0.000 OA
ATOM     41  C   UNL     1     113.890 129.472 138.632  0.00  0.00    +0.000 C 
ENDBRANCH  37  40
ENDBRANCH  25  34
BRANCH  30  42
ATOM     42  O   UNL     1     114.392 125.671 136.909  0.00  0.00    +0.000 OA
ATOM     43  C   UNL     1     114.968 125.297 136.452  0.00  0.00    +0.000 C 
ENDBRANCH  30  42
BRANCH  31  44
ATOM     44  O   UNL     1     112.090 123.922 136.500  0.00  0.00    +0.000 OA
ATOM     45  C   UNL     1     111.875 123.543 137.200  0.00  0.00    +0.000 C 
ENDBRANCH  31  44
ENDBRANCH  19  24
ENDBRANCH   8  19
BRANCH   6  46
ATOM     46  C   UNL     1     110.426 128.247 138.676  0.00  0.00    +0.000 C 
BRANCH  46  47
ATOM     47  O   UNL     1     110.810 127.575 138.960  0.00  0.00    +0.000 OA
BRANCH  47  52
ATOM     48  O   UNL     1     110.992 128.130 140.264  0.00  0.00    +0.000 OA
ATOM     49  O   UNL     1     110.879 126.054 139.597  0.00  0.00    +0.000 OA
ATOM     50  O   UNL     1     111.095 125.849 141.220  0.00  0.00    +0.000 OA
ATOM     51  O   UNL     1     111.242 127.164 142.205  0.00  0.00    +0.000 OA
ATOM     52  C   UNL     1     110.918 127.471 139.771  0.00  0.00    +0.000 C 
ATOM     53  C   UNL     1     110.952 126.711 140.090  0.00  0.00    +0.000 C 
ATOM     54  C   UNL     1     111.060 126.609 140.901  0.00  0.00    +0.000 C 
ATOM     55  C   UNL     1     111.134 127.266 141.394  0.00  0.00    +0.000 C 
ATOM     56  C   UNL     1     111.099 128.026 141.075  0.00  0.00    +0.000 C 
BRANCH  56  58
ATOM     57  O   UNL     1     111.673 129.305 141.355  0.00  0.00    +0.000 OA
ATOM     58  C   UNL     1     111.173 128.684 141.567  0.00  0.00    +0.000 C 
ENDBRANCH  56  58
ENDBRANCH  47  52
ENDBRANCH  46  47
ENDBRANCH   6  46
TORSDOF 12
ENDMDL
MODEL 2
REMARK VINA RESULT:     -10.2      1.071      5.122
REMARK  Name = 44260058
REMARK  12 active torsions:
REMARK  status: ('A' for Active; 'I' for Inactive)
REMARK    1  A    between atoms: O_2  and  C_24
REMARK    2  A    between atoms: O_2  and  C_30
REMARK    3  A    between atoms: O_3  and  C_29
REMARK    4  A    between atoms: O_3  and  C_31
REMARK    5  A    between atoms: O_8  and  C_28
REMARK    6  A    between atoms: O_8  and  C_41
REMARK    7  A    between atoms: O_19  and  C_48
REMARK    8  A    between atoms: O_20  and  C_51
REMARK    9  A    between atoms: O_22  and  C_53
REMARK   10  A    between atoms: C_26  and  C_29
REMARK   11  A    between atoms: C_36  and  C_40
REMARK   12  A    between atoms: C_42  and  C_46
REMARK                            x       y       z     vdW  Elec       q    Type
REMARK                         _______ _______ _______ _____ _____    ______ ____
ROOT
ATOM      1  O   UNL     1     111.599 127.998 138.255  0.00  0.00    +0.000 OA
ATOM      2  O   UNL     1     110.095 128.232 139.819  0.00  0.00    +0.000 OA
ATOM      3  O   UNL     1     112.691 127.038 139.883  0.00  0.00    +0.000 OA
ATOM      4  C   UNL     1     111.392 127.635 139.852  0.00  0.00    +0.000 C 
ATOM      5  C   UNL     1     110.795 128.024 139.436  0.00  0.00    +0.000 C 
ATOM      6  C   UNL     1     110.898 128.205 138.638  0.00  0.00    +0.000 C 
ATOM      7  C   UNL     1     112.093 127.427 139.469  0.00  0.00    +0.000 C 
ATOM      8  C   UNL     1     112.197 127.608 138.670  0.00  0.00    +0.000 C 
ENDROOT
BRANCH   4   9
ATOM      9  O   UNL     1     111.289 127.454 140.649  0.00  0.00    +0.000 OA
BRANCH   9  14
ATOM     10  O   UNL     1     111.914 128.685 141.017  0.00  0.00    +0.000 OA
ATOM     11  O   UNL     1     110.909 127.176 142.231  0.00  0.00    +0.000 OA
ATOM     12  O   UNL     1     111.343 128.268 143.388  0.00  0.00    +0.000 OA
ATOM     13  O   UNL     1     112.158 129.639 142.964  0.00  0.00    +0.000 OA
ATOM     14  C   UNL     1     111.506 128.000 141.229  0.00  0.00    +0.000 C 
ATOM     15  C   UNL     1     111.316 127.861 142.019  0.00  0.00    +0.000 C 
ATOM     16  C   UNL     1     111.533 128.407 142.598  0.00  0.00    +0.000 C 
ATOM     17  C   UNL     1     111.941 129.092 142.386  0.00  0.00    +0.000 C 
ATOM     18  C   UNL     1     112.131 129.232 141.595  0.00  0.00    +0.000 C 
ENDBRANCH   9  14
ENDBRANCH   4   9
BRANCH   8  19
ATOM     19  O   UNL     1     112.897 127.401 138.287  0.00  0.00    +0.000 OA
BRANCH  19  24
ATOM     20  O   UNL     1     113.563 127.954 136.283  0.00  0.00    +0.000 OA
ATOM     21  O   UNL     1     113.208 129.008 138.494  0.00  0.00    +0.000 OA
ATOM     22  O   UNL     1     113.637 130.287 137.986  0.00  0.00    +0.000 OA
ATOM     23  O   UNL     1     114.440 130.505 135.186  0.00  0.00    +0.000 OA
ATOM     24  C   UNL     1     113.171 127.853 137.654  0.00  0.00    +0.000 A 
ATOM     25  C   UNL     1     113.289 127.501 136.917  0.00  0.00    +0.000 A 
ATOM     26  C   UNL     1     113.326 128.656 137.757  0.00  0.00    +0.000 A 
ATOM     27  C   UNL     1     113.600 129.109 137.125  0.00  0.00    +0.000 A 
ATOM     28  C   UNL     1     113.718 128.757 136.388  0.00  0.00    +0.000 A 
ATOM     29  C   UNL     1     113.759 129.945 137.245  0.00  0.00    +0.000 A 
ATOM     30  C   UNL     1     114.003 129.218 135.720  0.00  0.00    +0.000 A 
ATOM     31  C   UNL     1     114.044 130.421 136.589  0.00  0.00    +0.000 A 
ATOM     32  C   UNL     1     114.167 130.055 135.821  0.00  0.00    +0.000 A 
BRANCH  25  34
ATOM     33  O   UNL     1     112.669 124.287 136.501  0.00  0.00    +0.000 OA
ATOM     34  C   UNL     1     113.133 126.698 136.813  0.00  0.00    +0.000 A 
ATOM     35  C   UNL     1     112.434 126.457 136.447  0.00  0.00    +0.000 A 
ATOM     36  C   UNL     1     113.678 126.136 137.075  0.00  0.00    +0.000 A 
ATOM     37  C   UNL     1     112.280 125.653 136.343  0.00  0.00    +0.000 A 
ATOM     38  C   UNL     1     113.523 125.332 136.970  0.00  0.00    +0.000 A 
ATOM     39  C   UNL     1     112.824 125.091 136.605  0.00  0.00    +0.000 A 
BRANCH  37  40
ATOM     40  O   UNL     1     111.581 125.411 135.978  0.00  0.00    +0.000 OA
ATOM     41  C   UNL     1     111.264 125.856 135.358  0.00  0.00    +0.000 C 
ENDBRANCH  37  40
ENDBRANCH  25  34
BRANCH  30  42
ATOM     42  O   UNL     1     114.118 128.858 134.987  0.00  0.00    +0.000 OA
ATOM     43  C   UNL     1     114.854 128.905 134.615  0.00  0.00    +0.000 C 
ENDBRANCH  30  42
BRANCH  31  44
ATOM     44  O   UNL     1     114.198 131.224 136.696  0.00  0.00    +0.000 OA
ATOM     45  C   UNL     1     113.611 131.782 136.539  0.00  0.00    +0.000 C 
ENDBRANCH  31  44
ENDBRANCH  19  24
ENDBRANCH   8  19
BRANCH   6  46
ATOM     46  C   UNL     1     110.301 128.595 138.222  0.00  0.00    +0.000 C 
BRANCH  46  47
ATOM     47  O   UNL     1     110.049 128.302 137.493  0.00  0.00    +0.000 OA
BRANCH  47  52
ATOM     48  O   UNL     1     109.903 129.571 136.853  0.00  0.00    +0.000 OA
ATOM     49  O   UNL     1     108.737 127.735 136.670  0.00  0.00    +0.000 OA
ATOM     50  O   UNL     1     107.934 128.721 135.618  0.00  0.00    +0.000 OA
ATOM     51  O   UNL     1     108.443 130.273 135.390  0.00  0.00    +0.000 OA
ATOM     52  C   UNL     1     109.647 128.794 136.967  0.00  0.00    +0.000 C 
ATOM     53  C   UNL     1     108.991 128.511 136.556  0.00  0.00    +0.000 C 
ATOM     54  C   UNL     1     108.590 129.004 136.030  0.00  0.00    +0.000 C 
ATOM     55  C   UNL     1     108.844 129.780 135.916  0.00  0.00    +0.000 C 
ATOM     56  C   UNL     1     109.501 130.064 136.327  0.00  0.00    +0.000 C 
BRANCH  56  58
ATOM     57  O   UNL     1     110.558 130.999 136.104  0.00  0.00    +0.000 OA
ATOM     58  C   UNL     1     109.756 130.840 136.214  0.00  0.00    +0.000 C 
ENDBRANCH  56  58
ENDBRANCH  47  52
ENDBRANCH  46  47
ENDBRANCH   6  46
TORSDOF 12
ENDMDL
MODEL 3
REMARK VINA RESULT:     -10.0      1.588      4.713
REMARK  Name = 44260058
REMARK  12 active torsions:
REMARK  status: ('A' for Active; 'I' for Inactive)
REMARK    1  A    between atoms: O_2  and  C_24
REMARK    2  A    between atoms: O_2  and  C_30
REMARK    3  A    between atoms: O_3  and  C_29
REMARK    4  A    between atoms: O_3  and  C_31
REMARK    5  A    between atoms: O_8  and  C_28
REMARK    6  A    between atoms: O_8  and  C_41
REMARK    7  A    between atoms: O_19  and  C_48
REMARK    8  A    between atoms: O_20  and  C_51
REMARK    9  A    between atoms: O_22  and  C_53
REMARK   10  A    between atoms: C_26  and  C_29
REMARK   11  A    between atoms: C_36  and  C_40
REMARK   12  A    between atoms: C_42  and  C_46
REMARK                            x       y       z     vdW  Elec       q    Type
REMARK                         _______ _______ _______ _____ _____    ______ ____
ROOT
ATOM      1  O   UNL     1     111.969 127.171 139.072  0.00  0.00    +0.000 OA
ATOM      2  O   UNL     1     111.394 127.245 141.176  0.00  0.00    +0.000 OA
ATOM      3  O   UNL     1     110.684 125.407 139.106  0.00  0.00    +0.000 OA
ATOM      4  C   UNL     1     111.039 126.326 140.142  0.00  0.00    +0.000 C 
ATOM      5  C   UNL     1     111.449 126.997 140.391  0.00  0.00    +0.000 C 
ATOM      6  C   UNL     1     111.914 127.419 139.857  0.00  0.00    +0.000 C 
ATOM      7  C   UNL     1     111.094 126.078 139.357  0.00  0.00    +0.000 C 
ATOM      8  C   UNL     1     111.559 126.501 138.821  0.00  0.00    +0.000 C 
ENDROOT
BRANCH   4   9
ATOM      9  O   UNL     1     110.575 125.903 140.676  0.00  0.00    +0.000 OA
BRANCH   9  14
ATOM     10  O   UNL     1     109.515 126.859 140.612  0.00  0.00    +0.000 OA
ATOM     11  O   UNL     1     109.506 124.753 141.184  0.00  0.00    +0.000 OA
ATOM     12  O   UNL     1     107.912 125.135 141.374  0.00  0.00    +0.000 OA
ATOM     13  O   UNL     1     107.387 126.666 141.055  0.00  0.00    +0.000 OA
ATOM     14  C   UNL     1     109.777 126.093 140.771  0.00  0.00    +0.000 C 
ATOM     15  C   UNL     1     109.243 125.519 141.025  0.00  0.00    +0.000 C 
ATOM     16  C   UNL     1     108.446 125.709 141.120  0.00  0.00    +0.000 C 
ATOM     17  C   UNL     1     108.183 126.475 140.961  0.00  0.00    +0.000 C 
ATOM     18  C   UNL     1     108.718 127.050 140.706  0.00  0.00    +0.000 C 
ENDBRANCH   9  14
ENDBRANCH   4   9
BRANCH   8  19
ATOM     19  O   UNL     1     111.614 126.253 138.036  0.00  0.00    +0.000 OA
BRANCH  19  24
ATOM     20  O   UNL     1     112.537 127.297 136.357  0.00  0.00    +0.000 OA
ATOM     21  O   UNL     1     110.535 127.479 137.801  0.00  0.00    +0.000 OA
ATOM     22  O   UNL     1     110.097 128.658 137.095  0.00  0.00    +0.000 OA
ATOM     23  O   UNL     1     111.714 129.672 134.885  0.00  0.00    +0.000 OA
ATOM     24  C   UNL     1     111.741 126.805 137.438  0.00  0.00    +0.000 A 
ATOM     25  C   UNL     1     112.408 126.744 136.956  0.00  0.00    +0.000 A 
ATOM     26  C   UNL     1     111.202 127.419 137.320  0.00  0.00    +0.000 A 
ATOM     27  C   UNL     1     111.330 127.971 136.721  0.00  0.00    +0.000 A 
ATOM     28  C   UNL     1     111.997 127.910 136.240  0.00  0.00    +0.000 A 
ATOM     29  C   UNL     1     110.761 128.605 136.609  0.00  0.00    +0.000 A 
ATOM     30  C   UNL     1     112.141 128.480 135.612  0.00  0.00    +0.000 A 
ATOM     31  C   UNL     1     110.889 129.184 135.987  0.00  0.00    +0.000 A 
ATOM     32  C   UNL     1     111.584 129.121 135.484  0.00  0.00    +0.000 A 
BRANCH  25  34
ATOM     33  O   UNL     1     114.569 124.294 137.425  0.00  0.00    +0.000 OA
ATOM     34  C   UNL     1     112.948 126.132 137.073  0.00  0.00    +0.000 A 
ATOM     35  C   UNL     1     112.772 125.370 136.809  0.00  0.00    +0.000 A 
ATOM     36  C   UNL     1     113.665 126.281 137.455  0.00  0.00    +0.000 A 
ATOM     37  C   UNL     1     113.312 124.758 136.926  0.00  0.00    +0.000 A 
ATOM     38  C   UNL     1     114.204 125.668 137.572  0.00  0.00    +0.000 A 
ATOM     39  C   UNL     1     114.028 124.906 137.308  0.00  0.00    +0.000 A 
BRANCH  37  40
ATOM     40  O   UNL     1     113.136 123.997 136.662  0.00  0.00    +0.000 OA
ATOM     41  C   UNL     1     112.384 123.825 136.370  0.00  0.00    +0.000 C 
ENDBRANCH  37  40
ENDBRANCH  25  34
BRANCH  30  42
ATOM     42  O   UNL     1     112.811 128.411 135.135  0.00  0.00    +0.000 OA
ATOM     43  C   UNL     1     113.347 129.037 135.084  0.00  0.00    +0.000 C 
ENDBRANCH  30  42
BRANCH  31  44
ATOM     44  O   UNL     1     110.348 129.796 135.871  0.00  0.00    +0.000 OA
ATOM     45  C   UNL     1     109.747 129.716 135.311  0.00  0.00    +0.000 C 
ENDBRANCH  31  44
ENDBRANCH  19  24
ENDBRANCH   8  19
BRANCH   6  46
ATOM     46  C   UNL     1     112.324 128.090 140.107  0.00  0.00    +0.000 C 
BRANCH  46  47
ATOM     47  O   UNL     1     113.139 128.141 139.992  0.00  0.00    +0.000 OA
BRANCH  47  52
ATOM     48  O   UNL     1     113.219 129.399 139.319  0.00  0.00    +0.000 OA
ATOM     49  O   UNL     1     114.412 128.573 140.949  0.00  0.00    +0.000 OA
ATOM     50  O   UNL     1     115.129 130.046 140.754  0.00  0.00    +0.000 OA
ATOM     51  O   UNL     1     114.572 131.087 139.602  0.00  0.00    +0.000 OA
ATOM     52  C   UNL     1     113.498 128.877 139.895  0.00  0.00    +0.000 C 
ATOM     53  C   UNL     1     114.134 129.093 140.374  0.00  0.00    +0.000 C 
ATOM     54  C   UNL     1     114.492 129.830 140.275  0.00  0.00    +0.000 C 
ATOM     55  C   UNL     1     114.214 130.351 139.700  0.00  0.00    +0.000 C 
ATOM     56  C   UNL     1     113.578 130.135 139.221  0.00  0.00    +0.000 C 
BRANCH  56  58
ATOM     57  O   UNL     1     112.495 130.836 138.606  0.00  0.00    +0.000 OA
ATOM     58  C   UNL     1     113.299 130.655 138.645  0.00  0.00    +0.000 C 
ENDBRANCH  56  58
ENDBRANCH  47  52
ENDBRANCH  46  47
ENDBRANCH   6  46
TORSDOF 12
ENDMDL
MODEL 4
REMARK VINA RESULT:      -9.9      1.802      4.498
REMARK  Name = 44260058
REMARK  12 active torsions:
REMARK  status: ('A' for Active; 'I' for Inactive)
REMARK    1  A    between atoms: O_2  and  C_24
REMARK    2  A    between atoms: O_2  and  C_30
REMARK    3  A    between atoms: O_3  and  C_29
REMARK    4  A    between atoms: O_3  and  C_31
REMARK    5  A    between atoms: O_8  and  C_28
REMARK    6  A    between atoms: O_8  and  C_41
REMARK    7  A    between atoms: O_19  and  C_48
REMARK    8  A    between atoms: O_20  and  C_51
REMARK    9  A    between atoms: O_22  and  C_53
REMARK   10  A    between atoms: C_26  and  C_29
REMARK   11  A    between atoms: C_36  and  C_40
REMARK   12  A    between atoms: C_42  and  C_46
REMARK                            x       y       z     vdW  Elec       q    Type
REMARK                         _______ _______ _______ _____ _____    ______ ____
ROOT
ATOM      1  O   UNL     1     110.921 127.739 139.332  0.00  0.00    +0.000 OA
ATOM      2  O   UNL     1     108.927 128.487 139.807  0.00  0.00    +0.000 OA
ATOM      3  O   UNL     1     110.826 127.075 141.409  0.00  0.00    +0.000 OA
ATOM      4  C   UNL     1     109.876 127.781 140.608  0.00  0.00    +0.000 C 
ATOM      5  C   UNL     1     109.663 128.123 139.888  0.00  0.00    +0.000 C 
ATOM      6  C   UNL     1     110.185 128.102 139.251  0.00  0.00    +0.000 C 
ATOM      7  C   UNL     1     110.612 127.418 140.690  0.00  0.00    +0.000 C 
ATOM      8  C   UNL     1     111.135 127.396 140.051  0.00  0.00    +0.000 C 
ENDROOT
BRANCH   4   9
ATOM      9  O   UNL     1     109.354 127.802 141.246  0.00  0.00    +0.000 OA
BRANCH   9  14
ATOM     10  O   UNL     1     108.735 126.598 140.789  0.00  0.00    +0.000 OA
ATOM     11  O   UNL     1     108.449 127.743 142.625  0.00  0.00    +0.000 OA
ATOM     12  O   UNL     1     107.379 126.509 142.856  0.00  0.00    +0.000 OA
ATOM     13  O   UNL     1     107.212 125.334 141.709  0.00  0.00    +0.000 OA
ATOM     14  C   UNL     1     108.818 127.185 141.362  0.00  0.00    +0.000 C 
ATOM     15  C   UNL     1     108.366 127.155 142.051  0.00  0.00    +0.000 C 
ATOM     16  C   UNL     1     107.831 126.539 142.168  0.00  0.00    +0.000 C 
ATOM     17  C   UNL     1     107.748 125.951 141.594  0.00  0.00    +0.000 C 
ATOM     18  C   UNL     1     108.200 125.981 140.904  0.00  0.00    +0.000 C 
ENDBRANCH   9  14
ENDBRANCH   4   9
BRANCH   8  19
ATOM     19  O   UNL     1     111.871 127.033 140.133  0.00  0.00    +0.000 OA
BRANCH  19  24
ATOM     20  O   UNL     1     113.353 126.648 138.578  0.00  0.00    +0.000 OA
ATOM     21  O   UNL     1     111.136 125.816 139.296  0.00  0.00    +0.000 OA
ATOM     22  O   UNL     1     111.114 124.858 138.218  0.00  0.00    +0.000 OA
ATOM     23  O   UNL     1     113.380 124.740 136.378  0.00  0.00    +0.000 OA
ATOM     24  C   UNL     1     112.242 126.702 139.475  0.00  0.00    +0.000 A 
ATOM     25  C   UNL     1     112.981 126.979 139.236  0.00  0.00    +0.000 A 
ATOM     26  C   UNL     1     111.875 126.093 139.056  0.00  0.00    +0.000 A 
ATOM     27  C   UNL     1     112.246 125.762 138.399  0.00  0.00    +0.000 A 
ATOM     28  C   UNL     1     112.986 126.040 138.160  0.00  0.00    +0.000 A 
ATOM     29  C   UNL     1     111.853 125.129 137.971  0.00  0.00    +0.000 A 
ATOM     30  C   UNL     1     113.383 125.703 137.476  0.00  0.00    +0.000 A 
ATOM     31  C   UNL     1     112.236 124.780 137.285  0.00  0.00    +0.000 A 
ATOM     32  C   UNL     1     113.006 125.069 137.035  0.00  0.00    +0.000 A 
BRANCH  25  34
ATOM     33  O   UNL     1     114.454 129.412 140.911  0.00  0.00    +0.000 OA
ATOM     34  C   UNL     1     113.349 127.588 139.654  0.00  0.00    +0.000 A 
ATOM     35  C   UNL     1     113.339 128.358 139.358  0.00  0.00    +0.000 A 
ATOM     36  C   UNL     1     113.728 127.425 140.370  0.00  0.00    +0.000 A 
ATOM     37  C   UNL     1     113.707 128.965 139.777  0.00  0.00    +0.000 A 
ATOM     38  C   UNL     1     114.096 128.034 140.788  0.00  0.00    +0.000 A 
ATOM     39  C   UNL     1     114.086 128.804 140.492  0.00  0.00    +0.000 A 
BRANCH  37  40
ATOM     40  O   UNL     1     113.697 129.735 139.481  0.00  0.00    +0.000 OA
ATOM     41  C   UNL     1     113.763 129.866 138.669  0.00  0.00    +0.000 C 
ENDBRANCH  37  40
ENDBRANCH  25  34
BRANCH  30  42
ATOM     42  O   UNL     1     114.122 125.987 137.244  0.00  0.00    +0.000 OA
ATOM     43  C   UNL     1     114.234 126.264 136.475  0.00  0.00    +0.000 C 
ENDBRANCH  30  42
BRANCH  31  44
ATOM     44  O   UNL     1     111.866 124.172 136.868  0.00  0.00    +0.000 OA
ATOM     45  C   UNL     1     112.055 123.385 137.031  0.00  0.00    +0.000 C 
ENDBRANCH  31  44
ENDBRANCH  19  24
ENDBRANCH   8  19
BRANCH   6  46
ATOM     46  C   UNL     1     109.972 128.444 138.530  0.00  0.00    +0.000 C 
BRANCH  46  47
ATOM     47  O   UNL     1     110.446 129.031 138.197  0.00  0.00    +0.000 OA
BRANCH  47  52
ATOM     48  O   UNL     1     110.402 128.557 136.849  0.00  0.00    +0.000 OA
ATOM     49  O   UNL     1     110.373 130.587 137.653  0.00  0.00    +0.000 OA
ATOM     50  O   UNL     1     110.292 130.891 136.033  0.00  0.00    +0.000 OA
ATOM     51  O   UNL     1     110.285 129.640 134.958  0.00  0.00    +0.000 OA
ATOM     52  C   UNL     1     110.406 129.184 137.387  0.00  0.00    +0.000 C 
ATOM     53  C   UNL     1     110.369 129.962 137.115  0.00  0.00    +0.000 C 
ATOM     54  C   UNL     1     110.329 130.113 136.305  0.00  0.00    +0.000 C 
ATOM     55  C   UNL     1     110.325 129.488 135.768  0.00  0.00    +0.000 C 
ATOM     56  C   UNL     1     110.362 128.710 136.040  0.00  0.00    +0.000 C 
BRANCH  56  58
ATOM     57  O   UNL     1     110.909 127.475 135.575  0.00  0.00    +0.000 OA
ATOM     58  C   UNL     1     110.359 128.084 135.502  0.00  0.00    +0.000 C 
ENDBRANCH  56  58
ENDBRANCH  47  52
ENDBRANCH  46  47
ENDBRANCH   6  46
TORSDOF 12
ENDMDL
MODEL 5
REMARK VINA RESULT:      -9.9      2.529      5.781
REMARK  Name = 44260058
REMARK  12 active torsions:
REMARK  status: ('A' for Active; 'I' for Inactive)
REMARK    1  A    between atoms: O_2  and  C_24
REMARK    2  A    between atoms: O_2  and  C_30
REMARK    3  A    between atoms: O_3  and  C_29
REMARK    4  A    between atoms: O_3  and  C_31
REMARK    5  A    between atoms: O_8  and  C_28
REMARK    6  A    between atoms: O_8  and  C_41
REMARK    7  A    between atoms: O_19  and  C_48
REMARK    8  A    between atoms: O_20  and  C_51
REMARK    9  A    between atoms: O_22  and  C_53
REMARK   10  A    between atoms: C_26  and  C_29
REMARK   11  A    between atoms: C_36  and  C_40
REMARK   12  A    between atoms: C_42  and  C_46
REMARK                            x       y       z     vdW  Elec       q    Type
REMARK                         _______ _______ _______ _____ _____    ______ ____
ROOT
ATOM      1  O   UNL     1     111.372 130.088 141.328  0.00  0.00    +0.000 OA
ATOM      2  O   UNL     1     110.084 131.442 142.455  0.00  0.00    +0.000 OA
ATOM      3  O   UNL     1     112.305 129.848 143.286  0.00  0.00    +0.000 OA
ATOM      4  C   UNL     1     111.195 130.645 142.871  0.00  0.00    +0.000 C 
ATOM      5  C   UNL     1     110.684 130.904 142.277  0.00  0.00    +0.000 C 
ATOM      6  C   UNL     1     110.772 130.626 141.506  0.00  0.00    +0.000 C 
ATOM      7  C   UNL     1     111.794 130.107 142.693  0.00  0.00    +0.000 C 
ATOM      8  C   UNL     1     111.883 129.828 141.921  0.00  0.00    +0.000 C 
ENDROOT
BRANCH   4   9
ATOM      9  O   UNL     1     111.106 130.924 143.642  0.00  0.00    +0.000 OA
BRANCH   9  14
ATOM     10  O   UNL     1     112.013 131.991 143.362  0.00  0.00    +0.000 OA
ATOM     11  O   UNL     1     110.980 131.441 145.204  0.00  0.00    +0.000 OA
ATOM     12  O   UNL     1     111.824 132.767 145.704  0.00  0.00    +0.000 OA
ATOM     13  O   UNL     1     112.794 133.577 144.643  0.00  0.00    +0.000 OA
ATOM     14  C   UNL     1     111.528 131.587 143.893  0.00  0.00    +0.000 C 
ATOM     15  C   UNL     1     111.465 131.846 144.673  0.00  0.00    +0.000 C 
ATOM     16  C   UNL     1     111.887 132.509 144.924  0.00  0.00    +0.000 C 
ATOM     17  C   UNL     1     112.372 132.913 144.393  0.00  0.00    +0.000 C 
ATOM     18  C   UNL     1     112.435 132.655 143.612  0.00  0.00    +0.000 C 
ENDBRANCH   9  14
ENDBRANCH   4   9
BRANCH   8  19
ATOM     19  O   UNL     1     112.483 129.291 141.743  0.00  0.00    +0.000 OA
BRANCH  19  24
ATOM     20  O   UNL     1     112.666 128.008 139.987  0.00  0.00    +0.000 OA
ATOM     21  O   UNL     1     111.282 128.196 142.030  0.00  0.00    +0.000 OA
ATOM     22  O   UNL     1     110.519 127.031 141.656  0.00  0.00    +0.000 OA
ATOM     23  O   UNL     1     111.169 125.648 139.166  0.00  0.00    +0.000 OA
ATOM     24  C   UNL     1     112.344 128.681 141.206  0.00  0.00    +0.000 A 
ATOM     25  C   UNL     1     112.805 128.618 140.525  0.00  0.00    +0.000 A 
ATOM     26  C   UNL     1     111.743 128.133 141.349  0.00  0.00    +0.000 A 
ATOM     27  C   UNL     1     111.604 127.524 140.812  0.00  0.00    +0.000 A 
ATOM     28  C   UNL     1     112.065 127.461 140.131  0.00  0.00    +0.000 A 
ATOM     29  C   UNL     1     110.975 126.960 140.972  0.00  0.00    +0.000 A 
ATOM     30  C   UNL     1     111.930 126.830 139.563  0.00  0.00    +0.000 A 
ATOM     31  C   UNL     1     110.825 126.323 140.416  0.00  0.00    +0.000 A 
ATOM     32  C   UNL     1     111.306 126.257 139.706  0.00  0.00    +0.000 A 
BRANCH  25  34
ATOM     33  O   UNL     1     115.210 130.804 139.952  0.00  0.00    +0.000 OA
ATOM     34  C   UNL     1     113.406 129.165 140.381  0.00  0.00    +0.000 A 
ATOM     35  C   UNL     1     113.319 129.726 139.783  0.00  0.00    +0.000 A 
ATOM     36  C   UNL     1     114.095 129.150 140.837  0.00  0.00    +0.000 A 
ATOM     37  C   UNL     1     113.921 130.273 139.640  0.00  0.00    +0.000 A 
ATOM     38  C   UNL     1     114.695 129.696 140.693  0.00  0.00    +0.000 A 
ATOM     39  C   UNL     1     114.608 130.258 140.095  0.00  0.00    +0.000 A 
BRANCH  37  40
ATOM     40  O   UNL     1     113.834 130.834 139.042  0.00  0.00    +0.000 OA
ATOM     41  C   UNL     1     113.489 130.621 138.322  0.00  0.00    +0.000 C 
ENDBRANCH  37  40
ENDBRANCH  25  34
BRANCH  30  42
ATOM     42  O   UNL     1     112.396 126.775 138.885  0.00  0.00    +0.000 OA
ATOM     43  C   UNL     1     112.828 126.087 138.735  0.00  0.00    +0.000 C 
ENDBRANCH  30  42
BRANCH  31  44
ATOM     44  O   UNL     1     110.224 125.777 140.561  0.00  0.00    +0.000 OA
ATOM     45  C   UNL     1     109.469 125.903 140.254  0.00  0.00    +0.000 C 
ENDBRANCH  31  44
ENDBRANCH  19  24
ENDBRANCH   8  19
BRANCH   6  46
ATOM     46  C   UNL     1     110.262 130.885 140.912  0.00  0.00    +0.000 C 
BRANCH  46  47
ATOM     47  O   UNL     1     110.566 131.252 140.238  0.00  0.00    +0.000 OA
BRANCH  47  52
ATOM     48  O   UNL     1     109.882 130.505 139.229  0.00  0.00    +0.000 OA
ATOM     49  O   UNL     1     110.247 132.649 139.420  0.00  0.00    +0.000 OA
ATOM     50  O   UNL     1     109.404 132.600 138.002  0.00  0.00    +0.000 OA
ATOM     51  O   UNL     1     108.881 131.155 137.403  0.00  0.00    +0.000 OA
ATOM     52  C   UNL     1     110.144 131.228 139.529  0.00  0.00    +0.000 C 
ATOM     53  C   UNL     1     109.985 131.927 139.120  0.00  0.00    +0.000 C 
ATOM     54  C   UNL     1     109.564 131.902 138.411  0.00  0.00    +0.000 C 
ATOM     55  C   UNL     1     109.302 131.180 138.111  0.00  0.00    +0.000 C 
ATOM     56  C   UNL     1     109.461 130.481 138.521  0.00  0.00    +0.000 C 
BRANCH  56  58
ATOM     57  O   UNL     1     109.295 129.069 138.664  0.00  0.00    +0.000 OA
ATOM     58  C   UNL     1     109.200 129.758 138.221  0.00  0.00    +0.000 C 
ENDBRANCH  56  58
ENDBRANCH  47  52
ENDBRANCH  46  47
ENDBRANCH   6  46
TORSDOF 12
ENDMDL
MODEL 6
REMARK VINA RESULT:      -9.9      1.677      5.138
REMARK  Name = 44260058
REMARK  12 active torsions:
REMARK  status: ('A' for Active; 'I' for Inactive)
REMARK    1  A    between atoms: O_2  and  C_24
REMARK    2  A    between atoms: O_2  and  C_30
REMARK    3  A    between atoms: O_3  and  C_29
REMARK    4  A    between atoms: O_3  and  C_31
REMARK    5  A    between atoms: O_8  and  C_28
REMARK    6  A    between atoms: O_8  and  C_41
REMARK    7  A    between atoms: O_19  and  C_48
REMARK    8  A    between atoms: O_20  and  C_51
REMARK    9  A    between atoms: O_22  and  C_53
REMARK   10  A    between atoms: C_26  and  C_29
REMARK   11  A    between atoms: C_36  and  C_40
REMARK   12  A    between atoms: C_42  and  C_46
REMARK                            x       y       z     vdW  Elec       q    Type
REMARK                         _______ _______ _______ _____ _____    ______ ____
ROOT
ATOM      1  O   UNL     1     111.690 128.317 138.276  0.00  0.00    +0.000 OA
ATOM      2  O   UNL     1     112.161 126.533 139.442  0.00  0.00    +0.000 OA
ATOM      3  O   UNL     1     110.895 126.824 136.896  0.00  0.00    +0.000 OA
ATOM      4  C   UNL     1     111.528 126.678 138.169  0.00  0.00    +0.000 C 
ATOM      5  C   UNL     1     111.885 127.015 138.832  0.00  0.00    +0.000 C 
ATOM      6  C   UNL     1     111.966 127.834 138.886  0.00  0.00    +0.000 C 
ATOM      7  C   UNL     1     111.252 127.160 137.559  0.00  0.00    +0.000 C 
ATOM      8  C   UNL     1     111.333 127.980 137.613  0.00  0.00    +0.000 C 
ENDROOT
BRANCH   4   9
ATOM      9  O   UNL     1     111.447 125.859 138.115  0.00  0.00    +0.000 OA
BRANCH   9  14
ATOM     10  O   UNL     1     112.665 125.785 137.372  0.00  0.00    +0.000 OA
ATOM     11  O   UNL     1     111.229 124.235 137.921  0.00  0.00    +0.000 OA
ATOM     12  O   UNL     1     112.339 123.349 137.080  0.00  0.00    +0.000 OA
ATOM     13  O   UNL     1     113.666 124.087 136.434  0.00  0.00    +0.000 OA
ATOM     14  C   UNL     1     112.001 125.416 137.695  0.00  0.00    +0.000 C 
ATOM     15  C   UNL     1     111.893 124.604 137.598  0.00  0.00    +0.000 C 
ATOM     16  C   UNL     1     112.447 124.161 137.177  0.00  0.00    +0.000 C 
ATOM     17  C   UNL     1     113.111 124.529 136.855  0.00  0.00    +0.000 C 
ATOM     18  C   UNL     1     113.220 125.342 136.952  0.00  0.00    +0.000 C 
ENDBRANCH   9  14
ENDBRANCH   4   9
BRANCH   8  19
ATOM     19  O   UNL     1     111.057 128.463 137.003  0.00  0.00    +0.000 OA
BRANCH  19  24
ATOM     20  O   UNL     1     110.904 130.640 136.986  0.00  0.00    +0.000 OA
ATOM     21  O   UNL     1     109.788 128.694 138.031  0.00  0.00    +0.000 OA
ATOM     22  O   UNL     1     108.869 129.560 138.729  0.00  0.00    +0.000 OA
ATOM     23  O   UNL     1     109.084 132.449 138.362  0.00  0.00    +0.000 OA
ATOM     24  C   UNL     1     110.795 129.227 137.169  0.00  0.00    +0.000 A 
ATOM     25  C   UNL     1     111.167 129.875 136.820  0.00  0.00    +0.000 A 
ATOM     26  C   UNL     1     110.160 129.343 137.683  0.00  0.00    +0.000 A 
ATOM     27  C   UNL     1     109.897 130.107 137.848  0.00  0.00    +0.000 A 
ATOM     28  C   UNL     1     110.270 130.755 137.500  0.00  0.00    +0.000 A 
ATOM     29  C   UNL     1     109.235 130.215 138.385  0.00  0.00    +0.000 A 
ATOM     30  C   UNL     1     110.005 131.557 137.665  0.00  0.00    +0.000 A 
ATOM     31  C   UNL     1     108.957 131.008 138.562  0.00  0.00    +0.000 A 
ATOM     32  C   UNL     1     109.345 131.684 138.199  0.00  0.00    +0.000 A 
BRANCH  25  34
ATOM     33  O   UNL     1     113.705 129.414 134.762  0.00  0.00    +0.000 OA
ATOM     34  C   UNL     1     111.802 129.760 136.306  0.00  0.00    +0.000 A 
ATOM     35  C   UNL     1     112.568 129.946 136.548  0.00  0.00    +0.000 A 
ATOM     36  C   UNL     1     111.670 129.459 135.549  0.00  0.00    +0.000 A 
ATOM     37  C   UNL     1     113.202 129.830 136.033  0.00  0.00    +0.000 A 
ATOM     38  C   UNL     1     112.304 129.344 135.035  0.00  0.00    +0.000 A 
ATOM     39  C   UNL     1     113.071 129.530 135.277  0.00  0.00    +0.000 A 
BRANCH  37  40
ATOM     40  O   UNL     1     113.969 130.016 136.275  0.00  0.00    +0.000 OA
ATOM     41  C   UNL     1     114.109 130.701 136.715  0.00  0.00    +0.000 C 
ENDBRANCH  37  40
ENDBRANCH  25  34
BRANCH  30  42
ATOM     42  O   UNL     1     110.384 132.199 137.312  0.00  0.00    +0.000 OA
ATOM     43  C   UNL     1     109.946 132.748 136.878  0.00  0.00    +0.000 C 
ENDBRANCH  30  42
BRANCH  31  44
ATOM     44  O   UNL     1     108.322 131.121 139.076  0.00  0.00    +0.000 OA
ATOM     45  C   UNL     1     108.434 131.056 139.891  0.00  0.00    +0.000 C 
ENDBRANCH  31  44
ENDBRANCH  19  24
ENDBRANCH   8  19
BRANCH   6  46
ATOM     46  C   UNL     1     112.323 128.172 139.549  0.00  0.00    +0.000 C 
BRANCH  46  47
ATOM     47  O   UNL     1     112.953 128.696 139.455  0.00  0.00    +0.000 OA
BRANCH  47  52
ATOM     48  O   UNL     1     112.484 129.622 140.437  0.00  0.00    +0.000 OA
ATOM     49  O   UNL     1     114.510 129.109 139.810  0.00  0.00    +0.000 OA
ATOM     50  O   UNL     1     114.820 130.242 140.969  0.00  0.00    +0.000 OA
ATOM     51  O   UNL     1     113.572 130.961 141.773  0.00  0.00    +0.000 OA
ATOM     52  C   UNL     1     113.108 129.262 140.034  0.00  0.00    +0.000 C 
ATOM     53  C   UNL     1     113.887 129.469 140.212  0.00  0.00    +0.000 C 
ATOM     54  C   UNL     1     114.041 130.035 140.792  0.00  0.00    +0.000 C 
ATOM     55  C   UNL     1     113.418 130.395 141.194  0.00  0.00    +0.000 C 
ATOM     56  C   UNL     1     112.639 130.188 141.017  0.00  0.00    +0.000 C 
BRANCH  56  58
ATOM     57  O   UNL     1     111.482 131.028 141.010  0.00  0.00    +0.000 OA
ATOM     58  C   UNL     1     112.015 130.548 141.419  0.00  0.00    +0.000 C 
ENDBRANCH  56  58
ENDBRANCH  47  52
ENDBRANCH  46  47
ENDBRANCH   6  46
TORSDOF 12
ENDMDL
MODEL 7
REMARK VINA RESULT:      -9.8      1.520      5.013
REMARK  Name = 44260058
REMARK  12 active torsions:
REMARK  status: ('A' for Active; 'I' for Inactive)
REMARK    1  A    between atoms: O_2  and  C_24
REMARK    2  A    between atoms: O_2  and  C_30
REMARK    3  A    between atoms: O_3  and  C_29
REMARK    4  A    between atoms: O_3  and  C_31
REMARK    5  A    between atoms: O_8  and  C_28
REMARK    6  A    between atoms: O_8  and  C_41
REMARK    7  A    between atoms: O_19  and  C_48
REMARK    8  A    between atoms: O_20  and  C_51
REMARK    9  A    between atoms: O_22  and  C_53
REMARK   10  A    between atoms: C_26  and  C_29
REMARK   11  A    between atoms: C_36  and  C_40
REMARK   12  A    between atoms: C_42  and  C_46
REMARK                            x       y       z     vdW  Elec       q    Type
REMARK                         _______ _______ _______ _____ _____    ______ ____
ROOT
ATOM      1  O   UNL     1     111.294 128.290 138.421  0.00  0.00    +0.000 OA
ATOM      2  O   UNL     1     111.034 126.126 138.517  0.00  0.00    +0.000 OA
ATOM      3  O   UNL     1     112.315 127.771 136.563  0.00  0.00    +0.000 OA
ATOM      4  C   UNL     1     111.675 126.948 137.540  0.00  0.00    +0.000 C 
ATOM      5  C   UNL     1     111.259 126.873 138.249  0.00  0.00    +0.000 C 
ATOM      6  C   UNL     1     111.069 127.543 138.689  0.00  0.00    +0.000 C 
ATOM      7  C   UNL     1     111.900 127.695 137.271  0.00  0.00    +0.000 C 
ATOM      8  C   UNL     1     111.709 128.367 137.712  0.00  0.00    +0.000 C 
ENDROOT
BRANCH   4   9
ATOM      9  O   UNL     1     111.865 126.277 137.100  0.00  0.00    +0.000 OA
BRANCH   9  14
ATOM     10  O   UNL     1     113.118 126.186 137.780  0.00  0.00    +0.000 OA
ATOM     11  O   UNL     1     112.251 124.943 136.209  0.00  0.00    +0.000 OA
ATOM     12  O   UNL     1     113.697 124.184 136.444  0.00  0.00    +0.000 OA
ATOM     13  O   UNL     1     114.758 124.760 137.570  0.00  0.00    +0.000 OA
ATOM     14  C   UNL     1     112.588 125.898 137.217  0.00  0.00    +0.000 C 
ATOM     15  C   UNL     1     112.781 125.231 136.772  0.00  0.00    +0.000 C 
ATOM     16  C   UNL     1     113.504 124.851 136.889  0.00  0.00    +0.000 C 
ATOM     17  C   UNL     1     114.034 125.139 137.452  0.00  0.00    +0.000 C 
ATOM     18  C   UNL     1     113.841 125.807 137.898  0.00  0.00    +0.000 C 
ENDBRANCH   9  14
ENDBRANCH   4   9
BRANCH   8  19
ATOM     19  O   UNL     1     111.934 129.114 137.444  0.00  0.00    +0.000 OA
BRANCH  19  24
ATOM     20  O   UNL     1     111.232 131.071 138.107  0.00  0.00    +0.000 OA
ATOM     21  O   UNL     1     110.384 129.097 136.879  0.00  0.00    +0.000 OA
ATOM     22  O   UNL     1     109.095 129.721 136.708  0.00  0.00    +0.000 OA
ATOM     23  O   UNL     1     108.656 132.394 137.801  0.00  0.00    +0.000 OA
ATOM     24  C   UNL     1     111.442 129.763 137.570  0.00  0.00    +0.000 A 
ATOM     25  C   UNL     1     111.725 130.421 137.980  0.00  0.00    +0.000 A 
ATOM     26  C   UNL     1     110.667 129.755 137.288  0.00  0.00    +0.000 A 
ATOM     27  C   UNL     1     110.175 130.404 137.415  0.00  0.00    +0.000 A 
ATOM     28  C   UNL     1     110.458 131.062 137.825  0.00  0.00    +0.000 A 
ATOM     29  C   UNL     1     109.369 130.383 137.116  0.00  0.00    +0.000 A 
ATOM     30  C   UNL     1     109.954 131.745 137.963  0.00  0.00    +0.000 A 
ATOM     31  C   UNL     1     108.852 131.057 137.245  0.00  0.00    +0.000 A 
ATOM     32  C   UNL     1     109.146 131.743 137.672  0.00  0.00    +0.000 A 
BRANCH  25  34
ATOM     33  O   UNL     1     114.826 130.458 139.107  0.00  0.00    +0.000 OA
ATOM     34  C   UNL     1     112.500 130.430 138.262  0.00  0.00    +0.000 A 
ATOM     35  C   UNL     1     112.651 130.281 139.060  0.00  0.00    +0.000 A 
ATOM     36  C   UNL     1     113.125 130.588 137.746  0.00  0.00    +0.000 A 
ATOM     37  C   UNL     1     113.427 130.290 139.341  0.00  0.00    +0.000 A 
ATOM     38  C   UNL     1     113.900 130.597 138.029  0.00  0.00    +0.000 A 
ATOM     39  C   UNL     1     114.051 130.448 138.826  0.00  0.00    +0.000 A 
BRANCH  37  40
ATOM     40  O   UNL     1     113.577 130.141 140.138  0.00  0.00    +0.000 OA
ATOM     41  C   UNL     1     113.090 130.469 140.719  0.00  0.00    +0.000 C 
ENDBRANCH  37  40
ENDBRANCH  25  34
BRANCH  30  42
ATOM     42  O   UNL     1     110.246 132.399 138.374  0.00  0.00    +0.000 OA
ATOM     43  C   UNL     1     110.261 133.140 138.011  0.00  0.00    +0.000 C 
ENDBRANCH  30  42
BRANCH  31  44
ATOM     44  O   UNL     1     108.077 131.045 136.962  0.00  0.00    +0.000 OA
ATOM     45  C   UNL     1     107.908 131.343 136.211  0.00  0.00    +0.000 C 
ENDBRANCH  31  44
ENDBRANCH  19  24
ENDBRANCH   8  19
BRANCH   6  46
ATOM     46  C   UNL     1     110.653 127.468 139.398  0.00  0.00    +0.000 C 
BRANCH  46  47
ATOM     47  O   UNL     1     110.957 127.798 140.090  0.00  0.00    +0.000 OA
BRANCH  47  52
ATOM     48  O   UNL     1     109.736 128.403 140.520  0.00  0.00    +0.000 OA
ATOM     49  O   UNL     1     111.359 127.494 141.661  0.00  0.00    +0.000 OA
ATOM     50  O   UNL     1     110.339 127.947 142.877  0.00  0.00    +0.000 OA
ATOM     51  O   UNL     1     108.918 128.704 142.521  0.00  0.00    +0.000 OA
ATOM     52  C   UNL     1     110.448 128.024 140.698  0.00  0.00    +0.000 C 
ATOM     53  C   UNL     1     110.649 127.872 141.484  0.00  0.00    +0.000 C 
ATOM     54  C   UNL     1     110.138 128.099 142.091  0.00  0.00    +0.000 C 
ATOM     55  C   UNL     1     109.428 128.477 141.914  0.00  0.00    +0.000 C 
ATOM     56  C   UNL     1     109.227 128.630 141.128  0.00  0.00    +0.000 C 
BRANCH  56  58
ATOM     57  O   UNL     1     108.363 129.257 140.178  0.00  0.00    +0.000 OA
ATOM     58  C   UNL     1     108.516 129.008 140.950  0.00  0.00    +0.000 C 
ENDBRANCH  56  58
ENDBRANCH  47  52
ENDBRANCH  46  47
ENDBRANCH   6  46
TORSDOF 12
ENDMDL
MODEL 8
REMARK VINA RESULT:      -9.8      1.665      5.962
REMARK  Name = 44260058
REMARK  12 active torsions:
REMARK  status: ('A' for Active; 'I' for Inactive)
REMARK    1  A    between atoms: O_2  and  C_24
REMARK    2  A    between atoms: O_2  and  C_30
REMARK    3  A    between atoms: O_3  and  C_29
REMARK    4  A    between atoms: O_3  and  C_31
REMARK    5  A    between atoms: O_8  and  C_28
REMARK    6  A    between atoms: O_8  and  C_41
REMARK    7  A    between atoms: O_19  and  C_48
REMARK    8  A    between atoms: O_20  and  C_51
REMARK    9  A    between atoms: O_22  and  C_53
REMARK   10  A    between atoms: C_26  and  C_29
REMARK   11  A    between atoms: C_36  and  C_40
REMARK   12  A    between atoms: C_42  and  C_46
REMARK                            x       y       z     vdW  Elec       q    Type
REMARK                         _______ _______ _______ _____ _____    ______ ____
ROOT
ATOM      1  O   UNL     1     111.931 128.192 138.647  0.00  0.00    +0.000 OA
ATOM      2  O   UNL     1     112.162 127.818 136.510  0.00  0.00    +0.000 OA
ATOM      3  O   UNL     1     113.267 126.471 138.775  0.00  0.00    +0.000 OA
ATOM      4  C   UNL     1     112.715 127.144 137.642  0.00  0.00    +0.000 C 
ATOM      5  C   UNL     1     112.242 127.743 137.327  0.00  0.00    +0.000 C 
ATOM      6  C   UNL     1     111.851 128.267 137.829  0.00  0.00    +0.000 C 
ATOM      7  C   UNL     1     112.795 127.069 138.459  0.00  0.00    +0.000 C 
ATOM      8  C   UNL     1     112.403 127.594 138.963  0.00  0.00    +0.000 C 
ENDROOT
BRANCH   4   9
ATOM      9  O   UNL     1     113.106 126.621 137.139  0.00  0.00    +0.000 OA
BRANCH   9  14
ATOM     10  O   UNL     1     111.975 125.748 137.130  0.00  0.00    +0.000 OA
ATOM     11  O   UNL     1     114.026 125.434 136.455  0.00  0.00    +0.000 OA
ATOM     12  O   UNL     1     113.354 123.968 136.104  0.00  0.00    +0.000 OA
ATOM     13  O   UNL     1     111.763 123.689 136.438  0.00  0.00    +0.000 OA
ATOM     14  C   UNL     1     112.771 125.888 136.964  0.00  0.00    +0.000 C 
ATOM     15  C   UNL     1     113.230 125.295 136.622  0.00  0.00    +0.000 C 
ATOM     16  C   UNL     1     112.895 124.561 136.446  0.00  0.00    +0.000 C 
ATOM     17  C   UNL     1     112.099 124.422 136.613  0.00  0.00    +0.000 C 
ATOM     18  C   UNL     1     111.639 125.016 136.955  0.00  0.00    +0.000 C 
ENDBRANCH   9  14
ENDBRANCH   4   9
BRANCH   8  19
ATOM     19  O   UNL     1     112.484 127.519 139.780  0.00  0.00    +0.000 OA
BRANCH  19  24
ATOM     20  O   UNL     1     112.067 128.995 141.333  0.00  0.00    +0.000 OA
ATOM     21  O   UNL     1     113.691 128.609 139.506  0.00  0.00    +0.000 OA
ATOM     22  O   UNL     1     114.382 129.835 139.822  0.00  0.00    +0.000 OA
ATOM     23  O   UNL     1     113.411 131.483 142.030  0.00  0.00    +0.000 OA
ATOM     24  C   UNL     1     112.546 128.192 140.252  0.00  0.00    +0.000 A 
ATOM     25  C   UNL     1     112.005 128.321 140.861  0.00  0.00    +0.000 A 
ATOM     26  C   UNL     1     113.150 128.738 140.115  0.00  0.00    +0.000 A 
ATOM     27  C   UNL     1     113.212 129.411 140.586  0.00  0.00    +0.000 A 
ATOM     28  C   UNL     1     112.670 129.540 141.195  0.00  0.00    +0.000 A 
ATOM     29  C   UNL     1     113.845 129.972 140.433  0.00  0.00    +0.000 A 
ATOM     30  C   UNL     1     112.725 130.238 141.694  0.00  0.00    +0.000 A 
ATOM     31  C   UNL     1     113.915 130.676 140.921  0.00  0.00    +0.000 A 
ATOM     32  C   UNL     1     113.351 130.810 141.556  0.00  0.00    +0.000 A 
BRANCH  25  34
ATOM     33  O   UNL     1     109.591 126.139 141.412  0.00  0.00    +0.000 OA
ATOM     34  C   UNL     1     111.401 127.776 140.998  0.00  0.00    +0.000 A 
ATOM     35  C   UNL     1     110.621 127.967 140.810  0.00  0.00    +0.000 A 
ATOM     36  C   UNL     1     111.578 127.038 141.325  0.00  0.00    +0.000 A 
ATOM     37  C   UNL     1     110.017 127.421 140.948  0.00  0.00    +0.000 A 
ATOM     38  C   UNL     1     110.974 126.493 141.462  0.00  0.00    +0.000 A 
ATOM     39  C   UNL     1     110.194 126.685 141.274  0.00  0.00    +0.000 A 
BRANCH  37  40
ATOM     40  O   UNL     1     109.237 127.613 140.760  0.00  0.00    +0.000 OA
ATOM     41  C   UNL     1     108.961 128.382 140.878  0.00  0.00    +0.000 C 
ENDBRANCH  37  40
ENDBRANCH  25  34
BRANCH  30  42
ATOM     42  O   UNL     1     112.179 130.358 142.300  0.00  0.00    +0.000 OA
ATOM     43  C   UNL     1     111.750 131.063 142.336  0.00  0.00    +0.000 C 
ENDBRANCH  30  42
BRANCH  31  44
ATOM     44  O   UNL     1     114.520 131.219 140.782  0.00  0.00    +0.000 OA
ATOM     45  C   UNL     1     115.265 131.102 141.116  0.00  0.00    +0.000 C 
ENDBRANCH  31  44
ENDBRANCH  19  24
ENDBRANCH   8  19
BRANCH   6  46
ATOM     46  C   UNL     1     111.379 128.866 137.515  0.00  0.00    +0.000 C 
BRANCH  46  47
ATOM     47  O   UNL     1     110.588 128.930 137.743  0.00  0.00    +0.000 OA
BRANCH  47  52
ATOM     48  O   UNL     1     110.587 130.337 137.994  0.00  0.00    +0.000 OA
ATOM     49  O   UNL     1     109.067 129.041 137.115  0.00  0.00    +0.000 OA
ATOM     50  O   UNL     1     108.305 130.503 137.051  0.00  0.00    +0.000 OA
ATOM     51  O   UNL     1     109.065 131.854 137.616  0.00  0.00    +0.000 OA
ATOM     52  C   UNL     1     110.207 129.661 137.711  0.00  0.00    +0.000 C 
ATOM     53  C   UNL     1     109.446 129.716 137.397  0.00  0.00    +0.000 C 
ATOM     54  C   UNL     1     109.066 130.448 137.365  0.00  0.00    +0.000 C 
ATOM     55  C   UNL     1     109.445 131.123 137.647  0.00  0.00    +0.000 C 
ATOM     56  C   UNL     1     110.206 131.068 137.962  0.00  0.00    +0.000 C 
BRANCH  56  58
ATOM     57  O   UNL     1     111.080 131.693 138.903  0.00  0.00    +0.000 OA
ATOM     58  C   UNL     1     110.586 131.743 138.244  0.00  0.00    +0.000 C 
ENDBRANCH  56  58
ENDBRANCH  47  52
ENDBRANCH  46  47
ENDBRANCH   6  46
TORSDOF 12
ENDMDL
MODEL 9
REMARK VINA RESULT:      -9.8      5.182      8.519
REMARK  Name = 44260058
REMARK  12 active torsions:
REMARK  status: ('A' for Active; 'I' for Inactive)
REMARK    1  A    between atoms: O_2  and  C_24
REMARK    2  A    between atoms: O_2  and  C_30
REMARK    3  A    between atoms: O_3  and  C_29
REMARK    4  A    between atoms: O_3  and  C_31
REMARK    5  A    between atoms: O_8  and  C_28
REMARK    6  A    between atoms: O_8  and  C_41
REMARK    7  A    between atoms: O_19  and  C_48
REMARK    8  A    between atoms: O_20  and  C_51
REMARK    9  A    between atoms: O_22  and  C_53
REMARK   10  A    between atoms: C_26  and  C_29
REMARK   11  A    between atoms: C_36  and  C_40
REMARK   12  A    between atoms: C_42  and  C_46
REMARK                            x       y       z     vdW  Elec       q    Type
REMARK                         _______ _______ _______ _____ _____    ______ ____
ROOT
ATOM      1  O   UNL     1     106.841 126.604 142.078  0.00  0.00    +0.000 OA
ATOM      2  O   UNL     1     107.713 125.024 140.852  0.00  0.00    +0.000 OA
ATOM      3  O   UNL     1     105.127 125.255 142.046  0.00  0.00    +0.000 OA
ATOM      4  C   UNL     1     106.420 125.139 141.448  0.00  0.00    +0.000 C 
ATOM      5  C   UNL     1     107.172 125.448 141.307  0.00  0.00    +0.000 C 
ATOM      6  C   UNL     1     107.383 126.180 141.622  0.00  0.00    +0.000 C 
ATOM      7  C   UNL     1     105.879 125.563 141.904  0.00  0.00    +0.000 C 
ATOM      8  C   UNL     1     106.090 126.296 142.219  0.00  0.00    +0.000 C 
ENDROOT
BRANCH   4   9
ATOM      9  O   UNL     1     106.209 124.406 141.134  0.00  0.00    +0.000 OA
BRANCH   9  14
ATOM     10  O   UNL     1     105.638 125.057 139.997  0.00  0.00    +0.000 OA
ATOM     11  O   UNL     1     105.757 122.942 140.522  0.00  0.00    +0.000 OA
ATOM     12  O   UNL     1     104.960 122.862 139.079  0.00  0.00    +0.000 OA
ATOM     13  O   UNL     1     104.615 124.245 138.249  0.00  0.00    +0.000 OA
ATOM     14  C   UNL     1     105.811 124.365 140.413  0.00  0.00    +0.000 C 
ATOM     15  C   UNL     1     105.585 123.634 140.107  0.00  0.00    +0.000 C 
ATOM     16  C   UNL     1     105.186 123.593 139.385  0.00  0.00    +0.000 C 
ATOM     17  C   UNL     1     105.014 124.285 138.970  0.00  0.00    +0.000 C 
ATOM     18  C   UNL     1     105.240 125.017 139.276  0.00  0.00    +0.000 C 
ENDBRANCH   9  14
ENDBRANCH   4   9
BRANCH   8  19
ATOM     19  O   UNL     1     105.548 126.720 142.675  0.00  0.00    +0.000 OA
BRANCH  19  24
ATOM     20  O   UNL     1     105.940 128.276 144.155  0.00  0.00    +0.000 OA
ATOM     21  O   UNL     1     106.248 125.836 143.880  0.00  0.00    +0.000 OA
ATOM     22  O   UNL     1     106.853 125.736 145.185  0.00  0.00    +0.000 OA
ATOM     23  O   UNL     1     107.153 128.151 146.800  0.00  0.00    +0.000 OA
ATOM     24  C   UNL     1     105.795 127.091 143.369  0.00  0.00    +0.000 A 
ATOM     25  C   UNL     1     105.693 127.905 143.461  0.00  0.00    +0.000 A 
ATOM     26  C   UNL     1     106.145 126.649 143.972  0.00  0.00    +0.000 A 
ATOM     27  C   UNL     1     106.392 127.020 144.665  0.00  0.00    +0.000 A 
ATOM     28  C   UNL     1     106.289 127.834 144.757  0.00  0.00    +0.000 A 
ATOM     29  C   UNL     1     106.755 126.549 145.286  0.00  0.00    +0.000 A 
ATOM     30  C   UNL     1     106.542 128.232 145.476  0.00  0.00    +0.000 A 
ATOM     31  C   UNL     1     107.014 126.930 146.011  0.00  0.00    +0.000 A 
ATOM     32  C   UNL     1     106.907 127.778 146.107  0.00  0.00    +0.000 A 
BRANCH  25  34
ATOM     33  O   UNL     1     104.292 129.675 141.053  0.00  0.00    +0.000 OA
ATOM     34  C   UNL     1     105.343 128.347 142.859  0.00  0.00    +0.000 A 
ATOM     35  C   UNL     1     105.804 128.850 142.395  0.00  0.00    +0.000 A 
ATOM     36  C   UNL     1     104.531 128.287 142.721  0.00  0.00    +0.000 A 
ATOM     37  C   UNL     1     105.453 129.293 141.793  0.00  0.00    +0.000 A 
ATOM     38  C   UNL     1     104.182 128.729 142.119  0.00  0.00    +0.000 A 
ATOM     39  C   UNL     1     104.643 129.232 141.655  0.00  0.00    +0.000 A 
BRANCH  37  40
ATOM     40  O   UNL     1     105.914 129.796 141.329  0.00  0.00    +0.000 OA
ATOM     41  C   UNL     1     106.492 130.269 141.682  0.00  0.00    +0.000 C 
ENDBRANCH  37  40
ENDBRANCH  25  34
BRANCH  30  42
ATOM     42  O   UNL     1     106.436 129.046 145.558  0.00  0.00    +0.000 OA
ATOM     43  C   UNL     1     107.071 129.525 145.778  0.00  0.00    +0.000 C 
ENDBRANCH  30  42
BRANCH  31  44
ATOM     44  O   UNL     1     107.363 126.485 146.612  0.00  0.00    +0.000 OA
ATOM     45  C   UNL     1     106.902 126.196 147.232  0.00  0.00    +0.000 C 
ENDBRANCH  31  44
ENDBRANCH  19  24
ENDBRANCH   8  19
BRANCH   6  46
ATOM     46  C   UNL     1     108.135 126.490 141.481  0.00  0.00    +0.000 C 
BRANCH  46  47
ATOM     47  O   UNL     1     108.218 127.192 141.056  0.00  0.00    +0.000 OA
BRANCH  47  52
ATOM     48  O   UNL     1     109.121 127.867 141.934  0.00  0.00    +0.000 OA
ATOM     49  O   UNL     1     109.072 127.741 139.755  0.00  0.00    +0.000 OA
ATOM     50  O   UNL     1     110.402 128.690 139.983  0.00  0.00    +0.000 OA
ATOM     51  O   UNL     1     110.878 129.090 141.510  0.00  0.00    +0.000 OA
ATOM     52  C   UNL     1     108.883 127.666 141.169  0.00  0.00    +0.000 C 
ATOM     53  C   UNL     1     109.310 127.941 140.518  0.00  0.00    +0.000 C 
ATOM     54  C   UNL     1     109.975 128.416 140.633  0.00  0.00    +0.000 C 
ATOM     55  C   UNL     1     110.213 128.616 141.396  0.00  0.00    +0.000 C 
ATOM     56  C   UNL     1     109.786 128.342 142.047  0.00  0.00    +0.000 C 
BRANCH  56  58
ATOM     57  O   UNL     1     109.459 128.675 143.397  0.00  0.00    +0.000 OA
ATOM     58  C   UNL     1     110.024 128.542 142.811  0.00  0.00    +0.000 C 
ENDBRANCH  56  58
ENDBRANCH  47  52
ENDBRANCH  46  47
ENDBRANCH   6  46
TORSDOF 12
ENDMDL
MODEL 10
REMARK VINA RESULT:      -9.7      1.280      4.928
REMARK  Name = 44260058
REMARK  12 active torsions:
REMARK  status: ('A' for Active; 'I' for Inactive)
REMARK    1  A    between atoms: O_2  and  C_24
REMARK    2  A    between atoms: O_2  and  C_30
REMARK    3  A    between atoms: O_3  and  C_29
REMARK    4  A    between atoms: O_3  and  C_31
REMARK    5  A    between atoms: O_8  and  C_28
REMARK    6  A    between atoms: O_8  and  C_41
REMARK    7  A    between atoms: O_19  and  C_48
REMARK    8  A    between atoms: O_20  and  C_51
REMARK    9  A    between atoms: O_22  and  C_53
REMARK   10  A    between atoms: C_26  and  C_29
REMARK   11  A    between atoms: C_36  and  C_40
REMARK   12  A    between atoms: C_42  and  C_46
REMARK                            x       y       z     vdW  Elec       q    Type
REMARK                         _______ _______ _______ _____ _____    ______ ____
ROOT
ATOM      1  O   UNL     1     111.458 128.417 137.774  0.00  0.00    +0.000 OA
ATOM      2  O   UNL     1     111.327 126.588 138.957  0.00  0.00    +0.000 OA
ATOM      3  O   UNL     1     111.515 126.981 136.132  0.00  0.00    +0.000 OA
ATOM      4  C   UNL     1     111.421 126.784 137.544  0.00  0.00    +0.000 C 
ATOM      5  C   UNL     1     111.383 127.095 138.308  0.00  0.00    +0.000 C 
ATOM      6  C   UNL     1     111.402 127.911 138.423  0.00  0.00    +0.000 C 
ATOM      7  C   UNL     1     111.477 127.290 136.896  0.00  0.00    +0.000 C 
ATOM      8  C   UNL     1     111.496 128.108 137.011  0.00  0.00    +0.000 C 
ENDROOT
BRANCH   4   9
ATOM      9  O   UNL     1     111.403 125.968 137.429  0.00  0.00    +0.000 OA
BRANCH   9  14
ATOM     10  O   UNL     1     112.828 125.919 137.521  0.00  0.00    +0.000 OA
ATOM     11  O   UNL     1     111.372 124.358 137.067  0.00  0.00    +0.000 OA
ATOM     12  O   UNL     1     112.781 123.505 136.977  0.00  0.00    +0.000 OA
ATOM     13  O   UNL     1     114.222 124.262 137.250  0.00  0.00    +0.000 OA
ATOM     14  C   UNL     1     112.107 125.541 137.384  0.00  0.00    +0.000 C 
ATOM     15  C   UNL     1     112.092 124.737 137.203  0.00  0.00    +0.000 C 
ATOM     16  C   UNL     1     112.797 124.309 137.158  0.00  0.00    +0.000 C 
ATOM     17  C   UNL     1     113.517 124.688 137.294  0.00  0.00    +0.000 C 
ATOM     18  C   UNL     1     113.533 125.493 137.476  0.00  0.00    +0.000 C 
ENDBRANCH   9  14
ENDBRANCH   4   9
BRANCH   8  19
ATOM     19  O   UNL     1     111.552 128.615 136.362  0.00  0.00    +0.000 OA
BRANCH  19  24
ATOM     20  O   UNL     1     111.352 130.788 136.340  0.00  0.00    +0.000 OA
ATOM     21  O   UNL     1     109.929 128.781 136.609  0.00  0.00    +0.000 OA
ATOM     22  O   UNL     1     108.753 129.601 136.771  0.00  0.00    +0.000 OA
ATOM     23  O   UNL     1     109.023 132.507 136.659  0.00  0.00    +0.000 OA
ATOM     24  C   UNL     1     111.215 129.366 136.396  0.00  0.00    +0.000 A 
ATOM     25  C   UNL     1     111.689 130.035 136.306  0.00  0.00    +0.000 A 
ATOM     26  C   UNL     1     110.403 129.450 136.519  0.00  0.00    +0.000 A 
ATOM     27  C   UNL     1     110.066 130.202 136.553  0.00  0.00    +0.000 A 
ATOM     28  C   UNL     1     110.541 130.871 136.464  0.00  0.00    +0.000 A 
ATOM     29  C   UNL     1     109.219 130.276 136.682  0.00  0.00    +0.000 A 
ATOM     30  C   UNL     1     110.201 131.660 136.497  0.00  0.00    +0.000 A 
ATOM     31  C   UNL     1     108.863 131.056 136.718  0.00  0.00    +0.000 A 
ATOM     32  C   UNL     1     109.357 131.754 136.625  0.00  0.00    +0.000 A 
BRANCH  25  34
ATOM     33  O   UNL     1     114.935 129.704 135.810  0.00  0.00    +0.000 OA
ATOM     34  C   UNL     1     112.500 129.952 136.183  0.00  0.00    +0.000 A 
ATOM     35  C   UNL     1     113.031 130.141 136.786  0.00  0.00    +0.000 A 
ATOM     36  C   UNL     1     112.781 129.681 135.455  0.00  0.00    +0.000 A 
ATOM     37  C   UNL     1     113.843 130.057 136.661  0.00  0.00    +0.000 A 
ATOM     38  C   UNL     1     113.592 129.599 135.332  0.00  0.00    +0.000 A 
ATOM     39  C   UNL     1     114.123 129.787 135.935  0.00  0.00    +0.000 A 
BRANCH  37  40
ATOM     40  O   UNL     1     114.374 130.245 137.264  0.00  0.00    +0.000 OA
ATOM     41  C   UNL     1     114.170 130.809 137.832  0.00  0.00    +0.000 C 
ENDBRANCH  37  40
ENDBRANCH  25  34
BRANCH  30  42
ATOM     42  O   UNL     1     110.684 132.323 136.406  0.00  0.00    +0.000 OA
ATOM     43  C   UNL     1     110.683 132.915 136.982  0.00  0.00    +0.000 C 
ENDBRANCH  30  42
BRANCH  31  44
ATOM     44  O   UNL     1     108.051 131.137 136.842  0.00  0.00    +0.000 OA
ATOM     45  C   UNL     1     107.556 131.337 136.213  0.00  0.00    +0.000 C 
ENDBRANCH  31  44
ENDBRANCH  19  24
ENDBRANCH   8  19
BRANCH   6  46
ATOM     46  C   UNL     1     111.364 128.221 139.186  0.00  0.00    +0.000 C 
BRANCH  46  47
ATOM     47  O   UNL     1     111.976 128.699 139.468  0.00  0.00    +0.000 OA
BRANCH  47  52
ATOM     48  O   UNL     1     111.155 129.703 140.066  0.00  0.00    +0.000 OA
ATOM     49  O   UNL     1     113.049 128.833 140.713  0.00  0.00    +0.000 OA
ATOM     50  O   UNL     1     112.764 129.906 141.935  0.00  0.00    +0.000 OA
ATOM     51  O   UNL     1     111.407 130.842 141.910  0.00  0.00    +0.000 OA
ATOM     52  C   UNL     1     111.834 129.234 140.078  0.00  0.00    +0.000 C 
ATOM     53  C   UNL     1     112.371 129.302 140.701  0.00  0.00    +0.000 C 
ATOM     54  C   UNL     1     112.228 129.838 141.312  0.00  0.00    +0.000 C 
ATOM     55  C   UNL     1     111.550 130.307 141.300  0.00  0.00    +0.000 C 
ATOM     56  C   UNL     1     111.013 130.239 140.677  0.00  0.00    +0.000 C 
BRANCH  56  58
ATOM     57  O   UNL     1     110.154 131.156 139.996  0.00  0.00    +0.000 OA
ATOM     58  C   UNL     1     110.334 130.707 140.664  0.00  0.00    +0.000 C 
ENDBRANCH  56  58
ENDBRANCH  47  52
ENDBRANCH  46  47
ENDBRANCH   6  46
TORSDOF 12
ENDMDL
