MODEL 1
REMARK VINA RESULT:      -7.6      0.000      0.000
REMARK  Name = 13942546
REMARK  9 active torsions:
REMARK  status: ('A' for Active; 'I' for Inactive)
REMARK    1  A    between atoms: O_2  and  C_16
REMARK    2  A    between atoms: O_2  and  C_24
REMARK    3  A    between atoms: O_3  and  C_12
REMARK    4  A    between atoms: O_4  and  C_13
REMARK    5  A    between atoms: O_5  and  C_15
REMARK    6  A    between atoms: O_7  and  C_21
REMARK    7  A    between atoms: O_8  and  C_22
REMARK    8  A    between atoms: C_11  and  C_17
REMARK    9  A    between atoms: C_24  and  C_25
REMARK                            x       y       z     vdW  Elec       q    Type
REMARK                         _______ _______ _______ _____ _____    ______ ____
ROOT
ATOM      1  O   UNL     1     111.216 129.115 136.465  0.00  0.00    +0.000 OA
ATOM      2  O   UNL     1     113.075 130.748 136.511  0.00  0.00    +0.000 OA
ATOM      3  C   UNL     1     112.617 129.397 136.449  0.00  0.00    +0.000 A 
ATOM      4  C   UNL     1     111.997 128.852 136.433  0.00  0.00    +0.000 A 
ATOM      5  C   UNL     1     111.054 129.923 136.512  0.00  0.00    +0.000 A 
ATOM      6  C   UNL     1     112.153 128.008 136.384  0.00  0.00    +0.000 A 
ATOM      7  C   UNL     1     113.435 129.135 136.416  0.00  0.00    +0.000 A 
ATOM      8  C   UNL     1     112.455 130.204 136.496  0.00  0.00    +0.000 A 
ATOM      9  C   UNL     1     111.674 130.468 136.528  0.00  0.00    +0.000 A 
ATOM     10  C   UNL     1     112.964 127.728 136.351  0.00  0.00    +0.000 A 
ATOM     11  C   UNL     1     113.609 128.295 136.367  0.00  0.00    +0.000 A 
ENDROOT
BRANCH   5  12
ATOM     12  C   UNL     1     110.273 130.186 136.544  0.00  0.00    +0.000 A 
ATOM     13  C   UNL     1     109.858 130.162 137.257  0.00  0.00    +0.000 A 
ATOM     14  C   UNL     1     109.906 130.472 135.862  0.00  0.00    +0.000 A 
ATOM     15  C   UNL     1     109.076 130.425 137.287  0.00  0.00    +0.000 A 
ATOM     16  C   UNL     1     108.710 130.711 136.606  0.00  0.00    +0.000 A 
ATOM     17  C   UNL     1     109.125 130.735 135.894  0.00  0.00    +0.000 A 
BRANCH  15  18
ATOM     18  O   UNL     1     108.661 130.401 138.000  0.00  0.00    +0.000 OA
ATOM     19  C   UNL     1     109.054 130.215 138.701  0.00  0.00    +0.000 C 
ENDBRANCH  15  18
BRANCH  16  20
ATOM     20  O   UNL     1     107.929 130.974 136.637  0.00  0.00    +0.000 OA
ATOM     21  C   UNL     1     107.618 131.419 136.016  0.00  0.00    +0.000 C 
ENDBRANCH  16  20
ENDBRANCH   5  12
BRANCH   6  22
ATOM     22  O   UNL     1     111.527 127.471 136.370  0.00  0.00    +0.000 OA
ATOM     23  C   UNL     1     111.292 127.130 135.655  0.00  0.00    +0.000 C 
ENDBRANCH   6  22
BRANCH   7  24
ATOM     24  O   UNL     1     114.048 129.687 136.432  0.00  0.00    +0.000 OA
ATOM     25  C   UNL     1     114.622 129.683 135.838  0.00  0.00    +0.000 C 
ENDBRANCH   7  24
BRANCH   9  26
ATOM     26  O   UNL     1     111.512 131.275 136.575  0.00  0.00    +0.000 OA
ATOM     27  C   UNL     1     112.010 131.770 137.007  0.00  0.00    +0.000 C 
ENDBRANCH   9  26
BRANCH  10  28
ATOM     28  O   UNL     1     113.123 126.920 136.304  0.00  0.00    +0.000 OA
BRANCH  28  29
ATOM     29  C   UNL     1     113.649 126.571 136.834  0.00  0.00    +0.000 C 
BRANCH  29  30
ATOM     30  C   UNL     1     114.009 125.853 136.647  0.00  0.00    +0.000 C 
ATOM     31  C   UNL     1     114.302 125.369 137.248  0.00  0.00    +0.000 C 
ATOM     32  C   UNL     1     114.662 124.650 137.059  0.00  0.00    +0.000 C 
ATOM     33  C   UNL     1     114.236 125.604 138.036  0.00  0.00    +0.000 C 
ENDBRANCH  29  30
ENDBRANCH  28  29
ENDBRANCH  10  28
TORSDOF 9
ENDMDL
MODEL 2
REMARK VINA RESULT:      -7.4      9.238     11.521
REMARK  Name = 13942546
REMARK  9 active torsions:
REMARK  status: ('A' for Active; 'I' for Inactive)
REMARK    1  A    between atoms: O_2  and  C_16
REMARK    2  A    between atoms: O_2  and  C_24
REMARK    3  A    between atoms: O_3  and  C_12
REMARK    4  A    between atoms: O_4  and  C_13
REMARK    5  A    between atoms: O_5  and  C_15
REMARK    6  A    between atoms: O_7  and  C_21
REMARK    7  A    between atoms: O_8  and  C_22
REMARK    8  A    between atoms: C_11  and  C_17
REMARK    9  A    between atoms: C_24  and  C_25
REMARK                            x       y       z     vdW  Elec       q    Type
REMARK                         _______ _______ _______ _____ _____    ______ ____
ROOT
ATOM      1  O   UNL     1     106.342 125.217 145.762  0.00  0.00    +0.000 OA
ATOM      2  O   UNL     1     106.648 127.617 145.241  0.00  0.00    +0.000 OA
ATOM      3  C   UNL     1     106.304 126.295 144.825  0.00  0.00    +0.000 A 
ATOM      4  C   UNL     1     106.202 125.495 144.998  0.00  0.00    +0.000 A 
ATOM      5  C   UNL     1     106.583 125.741 146.354  0.00  0.00    +0.000 A 
ATOM      6  C   UNL     1     105.951 124.941 144.391  0.00  0.00    +0.000 A 
ATOM      7  C   UNL     1     106.162 126.596 144.032  0.00  0.00    +0.000 A 
ATOM      8  C   UNL     1     106.546 126.817 145.415  0.00  0.00    +0.000 A 
ATOM      9  C   UNL     1     106.685 126.541 146.180  0.00  0.00    +0.000 A 
ATOM     10  C   UNL     1     105.804 125.223 143.594  0.00  0.00    +0.000 A 
ATOM     11  C   UNL     1     105.911 126.056 143.413  0.00  0.00    +0.000 A 
ENDROOT
BRANCH   5  12
ATOM     12  C   UNL     1     106.723 125.463 147.118  0.00  0.00    +0.000 A 
ATOM     13  C   UNL     1     106.092 125.345 147.636  0.00  0.00    +0.000 A 
ATOM     14  C   UNL     1     107.494 125.302 147.363  0.00  0.00    +0.000 A 
ATOM     15  C   UNL     1     106.232 125.068 148.400  0.00  0.00    +0.000 A 
ATOM     16  C   UNL     1     107.003 124.907 148.646  0.00  0.00    +0.000 A 
ATOM     17  C   UNL     1     107.634 125.024 148.127  0.00  0.00    +0.000 A 
BRANCH  15  18
ATOM     18  O   UNL     1     105.601 124.950 148.918  0.00  0.00    +0.000 OA
ATOM     19  C   UNL     1     104.827 125.060 148.657  0.00  0.00    +0.000 C 
ENDBRANCH  15  18
BRANCH  16  20
ATOM     20  O   UNL     1     107.143 124.629 149.409  0.00  0.00    +0.000 OA
ATOM     21  C   UNL     1     107.885 124.332 149.611  0.00  0.00    +0.000 C 
ENDBRANCH  16  20
ENDBRANCH   5  12
BRANCH   6  22
ATOM     22  O   UNL     1     105.852 124.142 144.574  0.00  0.00    +0.000 OA
ATOM     23  C   UNL     1     105.093 123.836 144.684  0.00  0.00    +0.000 C 
ENDBRANCH   6  22
BRANCH   7  24
ATOM     24  O   UNL     1     106.267 127.398 143.868  0.00  0.00    +0.000 OA
ATOM     25  C   UNL     1     105.707 127.803 143.416  0.00  0.00    +0.000 C 
ENDBRANCH   7  24
BRANCH   9  26
ATOM     26  O   UNL     1     106.927 127.063 146.770  0.00  0.00    +0.000 OA
ATOM     27  C   UNL     1     106.957 127.873 146.617  0.00  0.00    +0.000 C 
ENDBRANCH   9  26
BRANCH  10  28
ATOM     28  O   UNL     1     105.563 124.698 143.005  0.00  0.00    +0.000 OA
BRANCH  28  29
ATOM     29  C   UNL     1     105.927 124.712 142.265  0.00  0.00    +0.000 C 
BRANCH  29  30
ATOM     30  C   UNL     1     105.565 124.347 141.620  0.00  0.00    +0.000 C 
ATOM     31  C   UNL     1     106.021 124.086 140.984  0.00  0.00    +0.000 C 
ATOM     32  C   UNL     1     105.659 123.721 140.338  0.00  0.00    +0.000 C 
ATOM     33  C   UNL     1     106.840 124.191 140.993  0.00  0.00    +0.000 C 
ENDBRANCH  29  30
ENDBRANCH  28  29
ENDBRANCH  10  28
TORSDOF 9
ENDMDL
MODEL 3
REMARK VINA RESULT:      -7.4      1.505      5.556
REMARK  Name = 13942546
REMARK  9 active torsions:
REMARK  status: ('A' for Active; 'I' for Inactive)
REMARK    1  A    between atoms: O_2  and  C_16
REMARK    2  A    between atoms: O_2  and  C_24
REMARK    3  A    between atoms: O_3  and  C_12
REMARK    4  A    between atoms: O_4  and  C_13
REMARK    5  A    between atoms: O_5  and  C_15
REMARK    6  A    between atoms: O_7  and  C_21
REMARK    7  A    between atoms: O_8  and  C_22
REMARK    8  A    between atoms: C_11  and  C_17
REMARK    9  A    between atoms: C_24  and  C_25
REMARK                            x       y       z     vdW  Elec       q    Type
REMARK                         _______ _______ _______ _____ _____    ______ ____
ROOT
ATOM      1  O   UNL     1     112.185 128.194 137.090  0.00  0.00    +0.000 OA
ATOM      2  O   UNL     1     109.857 127.369 136.928  0.00  0.00    +0.000 OA
ATOM      3  C   UNL     1     110.795 128.444 136.867  0.00  0.00    +0.000 A 
ATOM      4  C   UNL     1     111.571 128.719 136.921  0.00  0.00    +0.000 A 
ATOM      5  C   UNL     1     112.022 127.393 137.206  0.00  0.00    +0.000 A 
ATOM      6  C   UNL     1     111.753 129.551 136.802  0.00  0.00    +0.000 A 
ATOM      7  C   UNL     1     110.148 128.981 136.690  0.00  0.00    +0.000 A 
ATOM      8  C   UNL     1     110.633 127.644 136.982  0.00  0.00    +0.000 A 
ATOM      9  C   UNL     1     111.246 127.118 137.152  0.00  0.00    +0.000 A 
ATOM     10  C   UNL     1     111.119 130.102 136.625  0.00  0.00    +0.000 A 
ATOM     11  C   UNL     1     110.311 129.816 136.569  0.00  0.00    +0.000 A 
ENDROOT
BRANCH   5  12
ATOM     12  C   UNL     1     112.635 126.869 137.376  0.00  0.00    +0.000 A 
ATOM     13  C   UNL     1     112.913 126.794 138.149  0.00  0.00    +0.000 A 
ATOM     14  C   UNL     1     112.971 126.418 136.771  0.00  0.00    +0.000 A 
ATOM     15  C   UNL     1     113.527 126.269 138.318  0.00  0.00    +0.000 A 
ATOM     16  C   UNL     1     113.862 125.819 137.714  0.00  0.00    +0.000 A 
ATOM     17  C   UNL     1     113.584 125.893 136.941  0.00  0.00    +0.000 A 
BRANCH  15  18
ATOM     18  O   UNL     1     113.805 126.195 139.091  0.00  0.00    +0.000 OA
ATOM     19  C   UNL     1     113.612 126.764 139.656  0.00  0.00    +0.000 C 
ENDBRANCH  15  18
BRANCH  16  20
ATOM     20  O   UNL     1     114.475 125.294 137.883  0.00  0.00    +0.000 OA
ATOM     21  C   UNL     1     114.727 124.755 137.311  0.00  0.00    +0.000 C 
ENDBRANCH  16  20
ENDBRANCH   5  12
BRANCH   6  22
ATOM     22  O   UNL     1     112.532 129.817 136.859  0.00  0.00    +0.000 OA
ATOM     23  C   UNL     1     112.966 129.970 136.173  0.00  0.00    +0.000 C 
ENDBRANCH   6  22
BRANCH   7  24
ATOM     24  O   UNL     1     109.375 128.697 136.638  0.00  0.00    +0.000 OA
ATOM     25  C   UNL     1     108.890 128.933 136.013  0.00  0.00    +0.000 C 
ENDBRANCH   7  24
BRANCH   9  26
ATOM     26  O   UNL     1     111.083 126.318 137.267  0.00  0.00    +0.000 OA
ATOM     27  C   UNL     1     110.357 126.086 137.581  0.00  0.00    +0.000 C 
ENDBRANCH   9  26
BRANCH  10  28
ATOM     28  O   UNL     1     111.285 130.902 136.510  0.00  0.00    +0.000 OA
BRANCH  28  29
ATOM     29  C   UNL     1     110.806 131.477 136.857  0.00  0.00    +0.000 C 
BRANCH  29  30
ATOM     30  C   UNL     1     110.822 132.253 136.576  0.00  0.00    +0.000 C 
ATOM     31  C   UNL     1     110.546 132.869 137.050  0.00  0.00    +0.000 C 
ATOM     32  C   UNL     1     110.562 133.645 136.768  0.00  0.00    +0.000 C 
ATOM     33  C   UNL     1     110.254 132.710 137.805  0.00  0.00    +0.000 C 
ENDBRANCH  29  30
ENDBRANCH  28  29
ENDBRANCH  10  28
TORSDOF 9
ENDMDL
MODEL 4
REMARK VINA RESULT:      -7.3      2.229      5.091
REMARK  Name = 13942546
REMARK  9 active torsions:
REMARK  status: ('A' for Active; 'I' for Inactive)
REMARK    1  A    between atoms: O_2  and  C_16
REMARK    2  A    between atoms: O_2  and  C_24
REMARK    3  A    between atoms: O_3  and  C_12
REMARK    4  A    between atoms: O_4  and  C_13
REMARK    5  A    between atoms: O_5  and  C_15
REMARK    6  A    between atoms: O_7  and  C_21
REMARK    7  A    between atoms: O_8  and  C_22
REMARK    8  A    between atoms: C_11  and  C_17
REMARK    9  A    between atoms: C_24  and  C_25
REMARK                            x       y       z     vdW  Elec       q    Type
REMARK                         _______ _______ _______ _____ _____    ______ ____
ROOT
ATOM      1  O   UNL     1     112.005 128.105 137.695  0.00  0.00    +0.000 OA
ATOM      2  O   UNL     1     113.707 128.724 139.382  0.00  0.00    +0.000 OA
ATOM      3  C   UNL     1     112.775 129.103 138.369  0.00  0.00    +0.000 A 
ATOM      4  C   UNL     1     112.207 128.897 137.806  0.00  0.00    +0.000 A 
ATOM      5  C   UNL     1     112.370 127.519 138.148  0.00  0.00    +0.000 A 
ATOM      6  C   UNL     1     111.820 129.498 137.330  0.00  0.00    +0.000 A 
ATOM      7  C   UNL     1     112.994 129.925 138.493  0.00  0.00    +0.000 A 
ATOM      8  C   UNL     1     113.139 128.518 138.820  0.00  0.00    +0.000 A 
ATOM      9  C   UNL     1     112.937 127.725 138.710  0.00  0.00    +0.000 A 
ATOM     10  C   UNL     1     112.027 130.325 137.440  0.00  0.00    +0.000 A 
ATOM     11  C   UNL     1     112.617 130.540 138.026  0.00  0.00    +0.000 A 
ENDROOT
BRANCH   5  12
ATOM     12  C   UNL     1     112.167 126.727 138.036  0.00  0.00    +0.000 A 
ATOM     13  C   UNL     1     111.528 126.403 138.444  0.00  0.00    +0.000 A 
ATOM     14  C   UNL     1     112.605 126.259 137.517  0.00  0.00    +0.000 A 
ATOM     15  C   UNL     1     111.326 125.611 138.332  0.00  0.00    +0.000 A 
ATOM     16  C   UNL     1     111.763 125.143 137.813  0.00  0.00    +0.000 A 
ATOM     17  C   UNL     1     112.403 125.467 137.405  0.00  0.00    +0.000 A 
BRANCH  15  18
ATOM     18  O   UNL     1     110.686 125.287 138.740  0.00  0.00    +0.000 OA
ATOM     19  C   UNL     1     110.159 125.780 139.140  0.00  0.00    +0.000 C 
ENDBRANCH  15  18
BRANCH  16  20
ATOM     20  O   UNL     1     111.561 124.352 137.702  0.00  0.00    +0.000 OA
ATOM     21  C   UNL     1     111.969 123.895 137.149  0.00  0.00    +0.000 C 
ENDBRANCH  16  20
ENDBRANCH   5  12
BRANCH   6  22
ATOM     22  O   UNL     1     111.254 129.283 136.770  0.00  0.00    +0.000 OA
ATOM     23  C   UNL     1     111.454 129.260 135.969  0.00  0.00    +0.000 C 
ENDBRANCH   6  22
BRANCH   7  24
ATOM     24  O   UNL     1     113.562 130.122 139.058  0.00  0.00    +0.000 OA
ATOM     25  C   UNL     1     114.189 130.619 138.856  0.00  0.00    +0.000 C 
ENDBRANCH   7  24
BRANCH   9  26
ATOM     26  O   UNL     1     113.302 127.139 139.161  0.00  0.00    +0.000 OA
ATOM     27  C   UNL     1     113.555 127.308 139.928  0.00  0.00    +0.000 C 
ENDBRANCH   9  26
BRANCH  10  28
ATOM     28  O   UNL     1     111.660 130.909 136.987  0.00  0.00    +0.000 OA
BRANCH  28  29
ATOM     29  C   UNL     1     111.349 131.580 137.352  0.00  0.00    +0.000 C 
BRANCH  29  30
ATOM     30  C   UNL     1     111.231 132.270 136.915  0.00  0.00    +0.000 C 
ATOM     31  C   UNL     1     110.664 132.819 137.157  0.00  0.00    +0.000 C 
ATOM     32  C   UNL     1     110.547 133.509 136.719  0.00  0.00    +0.000 C 
ATOM     33  C   UNL     1     110.216 132.678 137.835  0.00  0.00    +0.000 C 
ENDBRANCH  29  30
ENDBRANCH  28  29
ENDBRANCH  10  28
TORSDOF 9
ENDMDL
MODEL 5
REMARK VINA RESULT:      -7.3      1.908      5.160
REMARK  Name = 13942546
REMARK  9 active torsions:
REMARK  status: ('A' for Active; 'I' for Inactive)
REMARK    1  A    between atoms: O_2  and  C_16
REMARK    2  A    between atoms: O_2  and  C_24
REMARK    3  A    between atoms: O_3  and  C_12
REMARK    4  A    between atoms: O_4  and  C_13
REMARK    5  A    between atoms: O_5  and  C_15
REMARK    6  A    between atoms: O_7  and  C_21
REMARK    7  A    between atoms: O_8  and  C_22
REMARK    8  A    between atoms: C_11  and  C_17
REMARK    9  A    between atoms: C_24  and  C_25
REMARK                            x       y       z     vdW  Elec       q    Type
REMARK                         _______ _______ _______ _____ _____    ______ ____
ROOT
ATOM      1  O   UNL     1     111.337 127.064 135.980  0.00  0.00    +0.000 OA
ATOM      2  O   UNL     1     113.593 128.081 135.947  0.00  0.00    +0.000 OA
ATOM      3  C   UNL     1     112.198 128.157 135.652  0.00  0.00    +0.000 A 
ATOM      4  C   UNL     1     111.446 127.818 135.663  0.00  0.00    +0.000 A 
ATOM      5  C   UNL     1     111.981 126.649 136.287  0.00  0.00    +0.000 A 
ATOM      6  C   UNL     1     110.767 128.240 135.347  0.00  0.00    +0.000 A 
ATOM      7  C   UNL     1     112.323 128.941 135.324  0.00  0.00    +0.000 A 
ATOM      8  C   UNL     1     112.841 127.742 135.958  0.00  0.00    +0.000 A 
ATOM      9  C   UNL     1     112.733 126.988 136.276  0.00  0.00    +0.000 A 
ATOM     10  C   UNL     1     110.874 129.025 135.015  0.00  0.00    +0.000 A 
ATOM     11  C   UNL     1     111.657 129.378 135.003  0.00  0.00    +0.000 A 
ENDROOT
BRANCH   5  12
ATOM     12  C   UNL     1     111.872 125.896 136.604  0.00  0.00    +0.000 A 
ATOM     13  C   UNL     1     111.602 125.809 137.379  0.00  0.00    +0.000 A 
ATOM     14  C   UNL     1     112.034 125.228 136.146  0.00  0.00    +0.000 A 
ATOM     15  C   UNL     1     111.493 125.054 137.695  0.00  0.00    +0.000 A 
ATOM     16  C   UNL     1     111.654 124.388 137.238  0.00  0.00    +0.000 A 
ATOM     17  C   UNL     1     111.925 124.475 136.463  0.00  0.00    +0.000 A 
BRANCH  15  18
ATOM     18  O   UNL     1     111.223 124.967 138.470  0.00  0.00    +0.000 OA
ATOM     19  C   UNL     1     110.781 125.568 138.823  0.00  0.00    +0.000 C 
ENDBRANCH  15  18
BRANCH  16  20
ATOM     20  O   UNL     1     111.546 123.634 137.554  0.00  0.00    +0.000 OA
ATOM     21  C   UNL     1     111.952 122.990 137.237  0.00  0.00    +0.000 C 
ENDBRANCH  16  20
ENDBRANCH   5  12
BRANCH   6  22
ATOM     22  O   UNL     1     110.019 127.893 135.362  0.00  0.00    +0.000 OA
ATOM     23  C   UNL     1     109.714 127.539 134.681  0.00  0.00    +0.000 C 
ENDBRANCH   6  22
BRANCH   7  24
ATOM     24  O   UNL     1     113.079 129.272 135.317  0.00  0.00    +0.000 OA
ATOM     25  C   UNL     1     113.379 129.602 134.623  0.00  0.00    +0.000 C 
ENDBRANCH   7  24
BRANCH   9  26
ATOM     26  O   UNL     1     113.376 126.573 136.582  0.00  0.00    +0.000 OA
ATOM     27  C   UNL     1     114.133 126.900 136.547  0.00  0.00    +0.000 C 
ENDBRANCH   9  26
BRANCH  10  28
ATOM     28  O   UNL     1     110.228 129.438 134.709  0.00  0.00    +0.000 OA
BRANCH  28  29
ATOM     29  C   UNL     1     110.003 130.158 135.042  0.00  0.00    +0.000 C 
BRANCH  29  30
ATOM     30  C   UNL     1     109.490 130.659 134.634  0.00  0.00    +0.000 C 
ATOM     31  C   UNL     1     109.146 131.301 135.022  0.00  0.00    +0.000 C 
ATOM     32  C   UNL     1     108.632 131.802 134.613  0.00  0.00    +0.000 C 
ATOM     33  C   UNL     1     109.314 131.442 135.817  0.00  0.00    +0.000 C 
ENDBRANCH  29  30
ENDBRANCH  28  29
ENDBRANCH  10  28
TORSDOF 9
ENDMDL
MODEL 6
REMARK VINA RESULT:      -7.2      2.057      5.551
REMARK  Name = 13942546
REMARK  9 active torsions:
REMARK  status: ('A' for Active; 'I' for Inactive)
REMARK    1  A    between atoms: O_2  and  C_16
REMARK    2  A    between atoms: O_2  and  C_24
REMARK    3  A    between atoms: O_3  and  C_12
REMARK    4  A    between atoms: O_4  and  C_13
REMARK    5  A    between atoms: O_5  and  C_15
REMARK    6  A    between atoms: O_7  and  C_21
REMARK    7  A    between atoms: O_8  and  C_22
REMARK    8  A    between atoms: C_11  and  C_17
REMARK    9  A    between atoms: C_24  and  C_25
REMARK                            x       y       z     vdW  Elec       q    Type
REMARK                         _______ _______ _______ _____ _____    ______ ____
ROOT
ATOM      1  O   UNL     1     110.896 127.768 137.219  0.00  0.00    +0.000 OA
ATOM      2  O   UNL     1     109.237 127.724 139.055  0.00  0.00    +0.000 OA
ATOM      3  C   UNL     1     110.085 128.459 138.172  0.00  0.00    +0.000 A 
ATOM      4  C   UNL     1     110.638 128.473 137.560  0.00  0.00    +0.000 A 
ATOM      5  C   UNL     1     110.600 127.046 137.491  0.00  0.00    +0.000 A 
ATOM      6  C   UNL     1     110.954 129.218 137.268  0.00  0.00    +0.000 A 
ATOM      7  C   UNL     1     109.810 129.188 138.535  0.00  0.00    +0.000 A 
ATOM      8  C   UNL     1     109.790 127.738 138.443  0.00  0.00    +0.000 A 
ATOM      9  C   UNL     1     110.047 127.032 138.103  0.00  0.00    +0.000 A 
ATOM     10  C   UNL     1     110.690 129.956 137.618  0.00  0.00    +0.000 A 
ATOM     11  C   UNL     1     110.114 129.941 138.256  0.00  0.00    +0.000 A 
ENDROOT
BRANCH   5  12
ATOM     12  C   UNL     1     110.857 126.341 137.150  0.00  0.00    +0.000 A 
ATOM     13  C   UNL     1     110.532 126.084 136.437  0.00  0.00    +0.000 A 
ATOM     14  C   UNL     1     111.441 125.892 137.524  0.00  0.00    +0.000 A 
ATOM     15  C   UNL     1     110.791 125.377 136.097  0.00  0.00    +0.000 A 
ATOM     16  C   UNL     1     111.373 124.929 136.470  0.00  0.00    +0.000 A 
ATOM     17  C   UNL     1     111.699 125.186 137.183  0.00  0.00    +0.000 A 
BRANCH  15  18
ATOM     18  O   UNL     1     110.465 125.120 135.384  0.00  0.00    +0.000 OA
ATOM     19  C   UNL     1     110.059 125.651 134.901  0.00  0.00    +0.000 C 
ENDBRANCH  15  18
BRANCH  16  20
ATOM     20  O   UNL     1     111.631 124.224 136.130  0.00  0.00    +0.000 OA
ATOM     21  C   UNL     1     112.136 123.723 136.549  0.00  0.00    +0.000 C 
ENDBRANCH  16  20
ENDBRANCH   5  12
BRANCH   6  22
ATOM     22  O   UNL     1     111.507 129.222 136.655  0.00  0.00    +0.000 OA
ATOM     23  C   UNL     1     112.307 129.335 136.823  0.00  0.00    +0.000 C 
ENDBRANCH   6  22
BRANCH   7  24
ATOM     24  O   UNL     1     109.257 129.163 139.146  0.00  0.00    +0.000 OA
ATOM     25  C   UNL     1     109.297 129.713 139.761  0.00  0.00    +0.000 C 
ENDBRANCH   7  24
BRANCH   9  26
ATOM     26  O   UNL     1     109.751 126.312 138.374  0.00  0.00    +0.000 OA
ATOM     27  C   UNL     1     109.287 126.287 139.056  0.00  0.00    +0.000 C 
ENDBRANCH   9  26
BRANCH  10  28
ATOM     28  O   UNL     1     110.987 130.675 137.345  0.00  0.00    +0.000 OA
BRANCH  28  29
ATOM     29  C   UNL     1     110.475 131.305 137.197  0.00  0.00    +0.000 C 
BRANCH  29  30
ATOM     30  C   UNL     1     110.768 132.075 137.159  0.00  0.00    +0.000 C 
ATOM     31  C   UNL     1     110.337 132.661 136.770  0.00  0.00    +0.000 C 
ATOM     32  C   UNL     1     110.630 133.432 136.732  0.00  0.00    +0.000 C 
ATOM     33  C   UNL     1     109.613 132.477 136.420  0.00  0.00    +0.000 C 
ENDBRANCH  29  30
ENDBRANCH  28  29
ENDBRANCH  10  28
TORSDOF 9
ENDMDL
MODEL 7
REMARK VINA RESULT:      -7.2      2.958      4.137
REMARK  Name = 13942546
REMARK  9 active torsions:
REMARK  status: ('A' for Active; 'I' for Inactive)
REMARK    1  A    between atoms: O_2  and  C_16
REMARK    2  A    between atoms: O_2  and  C_24
REMARK    3  A    between atoms: O_3  and  C_12
REMARK    4  A    between atoms: O_4  and  C_13
REMARK    5  A    between atoms: O_5  and  C_15
REMARK    6  A    between atoms: O_7  and  C_21
REMARK    7  A    between atoms: O_8  and  C_22
REMARK    8  A    between atoms: C_11  and  C_17
REMARK    9  A    between atoms: C_24  and  C_25
REMARK                            x       y       z     vdW  Elec       q    Type
REMARK                         _______ _______ _______ _____ _____    ______ ____
ROOT
ATOM      1  O   UNL     1     112.985 128.472 139.087  0.00  0.00    +0.000 OA
ATOM      2  O   UNL     1     111.815 129.601 137.221  0.00  0.00    +0.000 OA
ATOM      3  C   UNL     1     112.186 128.403 137.905  0.00  0.00    +0.000 A 
ATOM      4  C   UNL     1     112.576 128.027 138.527  0.00  0.00    +0.000 A 
ATOM      5  C   UNL     1     113.005 129.295 139.025  0.00  0.00    +0.000 A 
ATOM      6  C   UNL     1     112.563 127.170 138.602  0.00  0.00    +0.000 A 
ATOM      7  C   UNL     1     111.756 127.949 137.315  0.00  0.00    +0.000 A 
ATOM      8  C   UNL     1     112.205 129.224 137.843  0.00  0.00    +0.000 A 
ATOM      9  C   UNL     1     112.615 129.671 138.403  0.00  0.00    +0.000 A 
ATOM     10  C   UNL     1     112.138 126.700 138.022  0.00  0.00    +0.000 A 
ATOM     11  C   UNL     1     111.732 127.092 137.374  0.00  0.00    +0.000 A 
ENDROOT
BRANCH   5  12
ATOM     12  C   UNL     1     113.414 129.741 139.585  0.00  0.00    +0.000 A 
ATOM     13  C   UNL     1     113.067 129.907 140.315  0.00  0.00    +0.000 A 
ATOM     14  C   UNL     1     114.172 130.021 139.415  0.00  0.00    +0.000 A 
ATOM     15  C   UNL     1     113.478 130.353 140.875  0.00  0.00    +0.000 A 
ATOM     16  C   UNL     1     114.234 130.633 140.706  0.00  0.00    +0.000 A 
ATOM     17  C   UNL     1     114.581 130.467 139.976  0.00  0.00    +0.000 A 
BRANCH  15  18
ATOM     18  O   UNL     1     113.131 130.518 141.605  0.00  0.00    +0.000 OA
ATOM     19  C   UNL     1     112.480 130.081 141.862  0.00  0.00    +0.000 C 
ENDBRANCH  15  18
BRANCH  16  20
ATOM     20  O   UNL     1     114.644 131.078 141.265  0.00  0.00    +0.000 OA
ATOM     21  C   UNL     1     115.405 131.351 141.100  0.00  0.00    +0.000 C 
ENDBRANCH  16  20
ENDBRANCH   5  12
BRANCH   6  22
ATOM     22  O   UNL     1     112.956 126.803 139.228  0.00  0.00    +0.000 OA
ATOM     23  C   UNL     1     112.529 126.534 139.881  0.00  0.00    +0.000 C 
ENDBRANCH   6  22
BRANCH   7  24
ATOM     24  O   UNL     1     111.369 128.334 136.696  0.00  0.00    +0.000 OA
ATOM     25  C   UNL     1     110.635 128.060 136.435  0.00  0.00    +0.000 C 
ENDBRANCH   7  24
BRANCH   9  26
ATOM     26  O   UNL     1     112.634 130.493 138.341  0.00  0.00    +0.000 OA
ATOM     27  C   UNL     1     112.017 130.893 137.967  0.00  0.00    +0.000 C 
ENDBRANCH   9  26
BRANCH  10  28
ATOM     28  O   UNL     1     112.120 125.878 138.086  0.00  0.00    +0.000 OA
BRANCH  28  29
ATOM     29  C   UNL     1     112.299 125.409 137.432  0.00  0.00    +0.000 C 
BRANCH  29  30
ATOM     30  C   UNL     1     112.007 124.639 137.384  0.00  0.00    +0.000 C 
ATOM     31  C   UNL     1     112.425 124.064 136.964  0.00  0.00    +0.000 C 
ATOM     32  C   UNL     1     112.132 123.294 136.916  0.00  0.00    +0.000 C 
ATOM     33  C   UNL     1     113.135 124.260 136.592  0.00  0.00    +0.000 C 
ENDBRANCH  29  30
ENDBRANCH  28  29
ENDBRANCH  10  28
TORSDOF 9
ENDMDL
MODEL 8
REMARK VINA RESULT:      -7.1      7.842     10.135
REMARK  Name = 13942546
REMARK  9 active torsions:
REMARK  status: ('A' for Active; 'I' for Inactive)
REMARK    1  A    between atoms: O_2  and  C_16
REMARK    2  A    between atoms: O_2  and  C_24
REMARK    3  A    between atoms: O_3  and  C_12
REMARK    4  A    between atoms: O_4  and  C_13
REMARK    5  A    between atoms: O_5  and  C_15
REMARK    6  A    between atoms: O_7  and  C_21
REMARK    7  A    between atoms: O_8  and  C_22
REMARK    8  A    between atoms: C_11  and  C_17
REMARK    9  A    between atoms: C_24  and  C_25
REMARK                            x       y       z     vdW  Elec       q    Type
REMARK                         _______ _______ _______ _____ _____    ______ ____
ROOT
ATOM      1  O   UNL     1     106.329 125.680 143.546  0.00  0.00    +0.000 OA
ATOM      2  O   UNL     1     106.487 128.127 143.881  0.00  0.00    +0.000 OA
ATOM      3  C   UNL     1     106.413 126.807 144.421  0.00  0.00    +0.000 A 
ATOM      4  C   UNL     1     106.361 125.991 144.309  0.00  0.00    +0.000 A 
ATOM      5  C   UNL     1     106.351 126.185 142.893  0.00  0.00    +0.000 A 
ATOM      6  C   UNL     1     106.338 125.454 144.980  0.00  0.00    +0.000 A 
ATOM      7  C   UNL     1     106.446 127.142 145.211  0.00  0.00    +0.000 A 
ATOM      8  C   UNL     1     106.434 127.311 143.769  0.00  0.00    +0.000 A 
ATOM      9  C   UNL     1     106.403 127.001 143.005  0.00  0.00    +0.000 A 
ATOM     10  C   UNL     1     106.370 125.772 145.778  0.00  0.00    +0.000 A 
ATOM     11  C   UNL     1     106.425 126.621 145.894  0.00  0.00    +0.000 A 
ENDROOT
BRANCH   5  12
ATOM     12  C   UNL     1     106.319 125.874 142.130  0.00  0.00    +0.000 A 
ATOM     13  C   UNL     1     107.009 125.608 141.764  0.00  0.00    +0.000 A 
ATOM     14  C   UNL     1     105.597 125.830 141.732  0.00  0.00    +0.000 A 
ATOM     15  C   UNL     1     106.976 125.297 141.000  0.00  0.00    +0.000 A 
ATOM     16  C   UNL     1     106.255 125.252 140.603  0.00  0.00    +0.000 A 
ATOM     17  C   UNL     1     105.566 125.519 140.969  0.00  0.00    +0.000 A 
BRANCH  15  18
ATOM     18  O   UNL     1     107.666 125.030 140.634  0.00  0.00    +0.000 OA
ATOM     19  C   UNL     1     108.401 125.305 140.888  0.00  0.00    +0.000 C 
ENDBRANCH  15  18
BRANCH  16  20
ATOM     20  O   UNL     1     106.223 124.941 139.840  0.00  0.00    +0.000 OA
ATOM     21  C   UNL     1     105.495 124.750 139.502  0.00  0.00    +0.000 C 
ENDBRANCH  16  20
ENDBRANCH   5  12
BRANCH   6  22
ATOM     22  O   UNL     1     106.285 124.640 144.859  0.00  0.00    +0.000 OA
ATOM     23  C   UNL     1     105.556 124.259 144.925  0.00  0.00    +0.000 C 
ENDBRANCH   6  22
BRANCH   7  24
ATOM     24  O   UNL     1     106.499 127.959 145.313  0.00  0.00    +0.000 OA
ATOM     25  C   UNL     1     106.077 128.327 145.920  0.00  0.00    +0.000 C 
ENDBRANCH   7  24
BRANCH   9  26
ATOM     26  O   UNL     1     106.424 127.506 142.353  0.00  0.00    +0.000 OA
ATOM     27  C   UNL     1     106.715 128.273 142.436  0.00  0.00    +0.000 C 
ENDBRANCH   9  26
BRANCH  10  28
ATOM     28  O   UNL     1     106.349 125.265 146.428  0.00  0.00    +0.000 OA
BRANCH  28  29
ATOM     29  C   UNL     1     106.906 125.342 147.030  0.00  0.00    +0.000 C 
BRANCH  29  30
ATOM     30  C   UNL     1     106.756 125.022 147.776  0.00  0.00    +0.000 C 
ATOM     31  C   UNL     1     107.382 124.853 148.286  0.00  0.00    +0.000 C 
ATOM     32  C   UNL     1     107.231 124.533 149.032  0.00  0.00    +0.000 C 
ATOM     33  C   UNL     1     108.158 125.004 148.051  0.00  0.00    +0.000 C 
ENDBRANCH  29  30
ENDBRANCH  28  29
ENDBRANCH  10  28
TORSDOF 9
ENDMDL
MODEL 9
REMARK VINA RESULT:      -7.0      1.585      2.580
REMARK  Name = 13942546
REMARK  9 active torsions:
REMARK  status: ('A' for Active; 'I' for Inactive)
REMARK    1  A    between atoms: O_2  and  C_16
REMARK    2  A    between atoms: O_2  and  C_24
REMARK    3  A    between atoms: O_3  and  C_12
REMARK    4  A    between atoms: O_4  and  C_13
REMARK    5  A    between atoms: O_5  and  C_15
REMARK    6  A    between atoms: O_7  and  C_21
REMARK    7  A    between atoms: O_8  and  C_22
REMARK    8  A    between atoms: C_11  and  C_17
REMARK    9  A    between atoms: C_24  and  C_25
REMARK                            x       y       z     vdW  Elec       q    Type
REMARK                         _______ _______ _______ _____ _____    ______ ____
ROOT
ATOM      1  O   UNL     1     111.471 128.892 136.941  0.00  0.00    +0.000 OA
ATOM      2  O   UNL     1     110.381 128.321 134.793  0.00  0.00    +0.000 OA
ATOM      3  C   UNL     1     111.182 127.942 135.913  0.00  0.00    +0.000 A 
ATOM      4  C   UNL     1     111.545 128.132 136.629  0.00  0.00    +0.000 A 
ATOM      5  C   UNL     1     111.032 129.463 136.536  0.00  0.00    +0.000 A 
ATOM      6  C   UNL     1     112.004 127.547 137.060  0.00  0.00    +0.000 A 
ATOM      7  C   UNL     1     111.253 127.153 135.579  0.00  0.00    +0.000 A 
ATOM      8  C   UNL     1     110.745 128.511 135.509  0.00  0.00    +0.000 A 
ATOM      9  C   UNL     1     110.669 129.272 135.820  0.00  0.00    +0.000 A 
ATOM     10  C   UNL     1     112.086 126.753 136.741  0.00  0.00    +0.000 A 
ATOM     11  C   UNL     1     111.708 126.555 135.996  0.00  0.00    +0.000 A 
ENDROOT
BRANCH   5  12
ATOM     12  C   UNL     1     110.958 130.223 136.847  0.00  0.00    +0.000 A 
ATOM     13  C   UNL     1     111.576 130.764 136.768  0.00  0.00    +0.000 A 
ATOM     14  C   UNL     1     110.264 130.442 137.238  0.00  0.00    +0.000 A 
ATOM     15  C   UNL     1     111.500 131.524 137.081  0.00  0.00    +0.000 A 
ATOM     16  C   UNL     1     110.808 131.743 137.471  0.00  0.00    +0.000 A 
ATOM     17  C   UNL     1     110.190 131.202 137.550  0.00  0.00    +0.000 A 
BRANCH  15  18
ATOM     18  O   UNL     1     112.118 132.065 137.002  0.00  0.00    +0.000 OA
ATOM     19  C   UNL     1     112.884 131.798 136.855  0.00  0.00    +0.000 C 
ENDBRANCH  15  18
BRANCH  16  20
ATOM     20  O   UNL     1     110.732 132.502 137.783  0.00  0.00    +0.000 OA
ATOM     21  C   UNL     1     109.986 132.800 137.970  0.00  0.00    +0.000 C 
ENDBRANCH  16  20
ENDBRANCH   5  12
BRANCH   6  22
ATOM     22  O   UNL     1     112.364 127.746 137.775  0.00  0.00    +0.000 OA
ATOM     23  C   UNL     1     112.017 127.519 138.489  0.00  0.00    +0.000 C 
ENDBRANCH   6  22
BRANCH   7  24
ATOM     24  O   UNL     1     110.886 126.972 134.862  0.00  0.00    +0.000 OA
ATOM     25  C   UNL     1     110.511 126.243 134.764  0.00  0.00    +0.000 C 
ENDBRANCH   7  24
BRANCH   9  26
ATOM     26  O   UNL     1     110.232 129.842 135.415  0.00  0.00    +0.000 OA
ATOM     27  C   UNL     1     110.068 129.743 134.613  0.00  0.00    +0.000 C 
ENDBRANCH   9  26
BRANCH  10  28
ATOM     28  O   UNL     1     112.524 126.185 137.148  0.00  0.00    +0.000 OA
BRANCH  28  29
ATOM     29  C   UNL     1     113.158 125.810 136.778  0.00  0.00    +0.000 C 
BRANCH  29  30
ATOM     30  C   UNL     1     113.534 125.174 137.146  0.00  0.00    +0.000 C 
ATOM     31  C   UNL     1     114.307 124.974 136.936  0.00  0.00    +0.000 C 
ATOM     32  C   UNL     1     114.682 124.338 137.305  0.00  0.00    +0.000 C 
ATOM     33  C   UNL     1     114.704 125.410 136.359  0.00  0.00    +0.000 C 
ENDBRANCH  29  30
ENDBRANCH  28  29
ENDBRANCH  10  28
TORSDOF 9
ENDMDL
MODEL 10
REMARK VINA RESULT:      -7.0      1.898      2.335
REMARK  Name = 13942546
REMARK  9 active torsions:
REMARK  status: ('A' for Active; 'I' for Inactive)
REMARK    1  A    between atoms: O_2  and  C_16
REMARK    2  A    between atoms: O_2  and  C_24
REMARK    3  A    between atoms: O_3  and  C_12
REMARK    4  A    between atoms: O_4  and  C_13
REMARK    5  A    between atoms: O_5  and  C_15
REMARK    6  A    between atoms: O_7  and  C_21
REMARK    7  A    between atoms: O_8  and  C_22
REMARK    8  A    between atoms: C_11  and  C_17
REMARK    9  A    between atoms: C_24  and  C_25
REMARK                            x       y       z     vdW  Elec       q    Type
REMARK                         _______ _______ _______ _____ _____    ______ ____
ROOT
ATOM      1  O   UNL     1     111.909 129.546 137.470  0.00  0.00    +0.000 OA
ATOM      2  O   UNL     1     112.305 129.434 139.910  0.00  0.00    +0.000 OA
ATOM      3  C   UNL     1     112.418 128.852 138.611  0.00  0.00    +0.000 A 
ATOM      4  C   UNL     1     112.286 128.890 137.797  0.00  0.00    +0.000 A 
ATOM      5  C   UNL     1     111.663 130.166 137.957  0.00  0.00    +0.000 A 
ATOM      6  C   UNL     1     112.536 128.250 137.280  0.00  0.00    +0.000 A 
ATOM      7  C   UNL     1     112.810 128.173 138.963  0.00  0.00    +0.000 A 
ATOM      8  C   UNL     1     112.173 129.472 139.097  0.00  0.00    +0.000 A 
ATOM      9  C   UNL     1     111.796 130.129 138.770  0.00  0.00    +0.000 A 
ATOM     10  C   UNL     1     112.930 127.564 137.615  0.00  0.00    +0.000 A 
ATOM     11  C   UNL     1     113.067 127.525 138.462  0.00  0.00    +0.000 A 
ENDROOT
BRANCH   5  12
ATOM     12  C   UNL     1     111.286 130.822 137.629  0.00  0.00    +0.000 A 
ATOM     13  C   UNL     1     110.475 130.801 137.481  0.00  0.00    +0.000 A 
ATOM     14  C   UNL     1     111.721 131.501 137.450  0.00  0.00    +0.000 A 
ATOM     15  C   UNL     1     110.099 131.459 137.153  0.00  0.00    +0.000 A 
ATOM     16  C   UNL     1     110.533 132.136 136.974  0.00  0.00    +0.000 A 
ATOM     17  C   UNL     1     111.344 132.157 137.123  0.00  0.00    +0.000 A 
BRANCH  15  18
ATOM     18  O   UNL     1     109.288 131.437 137.004  0.00  0.00    +0.000 OA
ATOM     19  C   UNL     1     108.895 130.713 136.957  0.00  0.00    +0.000 C 
ENDBRANCH  15  18
BRANCH  16  20
ATOM     20  O   UNL     1     110.157 132.793 136.647  0.00  0.00    +0.000 OA
ATOM     21  C   UNL     1     110.563 133.507 136.572  0.00  0.00    +0.000 C 
ENDBRANCH  16  20
ENDBRANCH   5  12
BRANCH   6  22
ATOM     22  O   UNL     1     112.400 128.296 136.468  0.00  0.00    +0.000 OA
ATOM     23  C   UNL     1     113.016 128.498 135.957  0.00  0.00    +0.000 C 
ENDBRANCH   6  22
BRANCH   7  24
ATOM     24  O   UNL     1     112.938 128.145 139.778  0.00  0.00    +0.000 OA
ATOM     25  C   UNL     1     113.660 127.875 140.073  0.00  0.00    +0.000 C 
ENDBRANCH   7  24
BRANCH   9  26
ATOM     26  O   UNL     1     111.551 130.748 139.256  0.00  0.00    +0.000 OA
ATOM     27  C   UNL     1     111.297 130.593 140.026  0.00  0.00    +0.000 C 
ENDBRANCH   9  26
BRANCH  10  28
ATOM     28  O   UNL     1     113.174 126.946 137.126  0.00  0.00    +0.000 OA
BRANCH  28  29
ATOM     29  C   UNL     1     112.985 126.167 137.320  0.00  0.00    +0.000 C 
BRANCH  29  30
ATOM     30  C   UNL     1     113.407 125.543 136.982  0.00  0.00    +0.000 C 
ATOM     31  C   UNL     1     113.067 124.793 136.935  0.00  0.00    +0.000 C 
ATOM     32  C   UNL     1     113.489 124.170 136.597  0.00  0.00    +0.000 C 
ATOM     33  C   UNL     1     112.305 124.666 137.227  0.00  0.00    +0.000 C 
ENDBRANCH  29  30
ENDBRANCH  28  29
ENDBRANCH  10  28
TORSDOF 9
ENDMDL
