MODEL 1
REMARK VINA RESULT:      -8.7      0.000      0.000
REMARK  Name = 44257183
REMARK  2 active torsions:
REMARK  status: ('A' for Active; 'I' for Inactive)
REMARK    1  A    between atoms: O_5  and  C_19
REMARK    2  A    between atoms: C_6  and  C_9
REMARK                            x       y       z     vdW  Elec       q    Type
REMARK                         _______ _______ _______ _____ _____    ______ ____
ROOT
ATOM      1  O   UNL     1     104.523 123.580 138.281  0.00  0.00    +0.000 OA
ATOM      2  C   UNL     1     104.384 123.839 139.053  0.00  0.00    +0.000 C 
ATOM      3  C   UNL     1     103.612 123.976 139.310  0.00  0.00    +0.000 C 
ATOM      4  C   UNL     1     102.979 123.854 138.795  0.00  0.00    +0.000 C 
ATOM      5  C   UNL     1     103.117 123.596 138.025  0.00  0.00    +0.000 A 
ATOM      6  C   UNL     1     103.889 123.459 137.767  0.00  0.00    +0.000 A 
ATOM      7  C   UNL     1     102.448 123.472 137.498  0.00  0.00    +0.000 A 
ATOM      8  C   UNL     1     104.046 123.190 136.966  0.00  0.00    +0.000 A 
ATOM      9  C   UNL     1     103.390 123.061 136.426  0.00  0.00    +0.000 A 
ATOM     10  C   UNL     1     102.586 123.203 136.694  0.00  0.00    +0.000 A 
ENDROOT
BRANCH   2  14
ATOM     11  O   UNL     1     106.679 125.356 140.056  0.00  0.00    +0.000 OA
ATOM     12  O   UNL     1     106.940 124.471 141.010  0.00  0.00    +0.000 OA
ATOM     13  O   UNL     1     104.709 122.739 140.239  0.00  0.00    +0.000 OA
ATOM     14  C   UNL     1     105.018 123.960 139.566  0.00  0.00    +0.000 A 
ATOM     15  C   UNL     1     105.490 124.633 139.486  0.00  0.00    +0.000 A 
ATOM     16  C   UNL     1     105.180 123.410 140.159  0.00  0.00    +0.000 A 
ATOM     17  C   UNL     1     106.124 124.754 140.000  0.00  0.00    +0.000 A 
ATOM     18  C   UNL     1     106.287 124.205 140.593  0.00  0.00    +0.000 A 
ATOM     19  C   UNL     1     105.815 123.533 140.673  0.00  0.00    +0.000 A 
ATOM     20  C   UNL     1     107.182 125.181 140.679  0.00  0.00    +0.000 C 
ENDBRANCH   2  14
BRANCH   9  21
ATOM     21  O   UNL     1     103.532 122.803 135.655  0.00  0.00    +0.000 OA
ATOM     22  C   UNL     1     103.089 123.109 135.030  0.00  0.00    +0.000 C 
ENDBRANCH   9  21
TORSDOF 2
ENDMDL
MODEL 2
REMARK VINA RESULT:      -8.5      7.481      9.358
REMARK  Name = 44257183
REMARK  2 active torsions:
REMARK  status: ('A' for Active; 'I' for Inactive)
REMARK    1  A    between atoms: O_5  and  C_19
REMARK    2  A    between atoms: C_6  and  C_9
REMARK                            x       y       z     vdW  Elec       q    Type
REMARK                         _______ _______ _______ _____ _____    ______ ____
ROOT
ATOM      1  O   UNL     1     105.009 124.328 147.320  0.00  0.00    +0.000 OA
ATOM      2  C   UNL     1     104.657 124.397 146.576  0.00  0.00    +0.000 C 
ATOM      3  C   UNL     1     105.054 124.786 145.967  0.00  0.00    +0.000 C 
ATOM      4  C   UNL     1     105.802 125.107 146.101  0.00  0.00    +0.000 C 
ATOM      5  C   UNL     1     106.154 125.039 146.843  0.00  0.00    +0.000 A 
ATOM      6  C   UNL     1     105.757 124.649 147.453  0.00  0.00    +0.000 A 
ATOM      7  C   UNL     1     106.934 125.377 146.970  0.00  0.00    +0.000 A 
ATOM      8  C   UNL     1     106.113 124.572 148.231  0.00  0.00    +0.000 A 
ATOM      9  C   UNL     1     106.892 124.904 148.376  0.00  0.00    +0.000 A 
ATOM     10  C   UNL     1     107.305 125.309 147.741  0.00  0.00    +0.000 A 
ENDROOT
BRANCH   2  14
ATOM     11  O   UNL     1     101.737 124.402 146.795  0.00  0.00    +0.000 OA
ATOM     12  O   UNL     1     101.612 123.257 146.134  0.00  0.00    +0.000 OA
ATOM     13  O   UNL     1     104.503 122.974 145.755  0.00  0.00    +0.000 OA
ATOM     14  C   UNL     1     103.909 124.076 146.444  0.00  0.00    +0.000 A 
ATOM     15  C   UNL     1     103.237 124.467 146.722  0.00  0.00    +0.000 A 
ATOM     16  C   UNL     1     103.832 123.364 146.033  0.00  0.00    +0.000 A 
ATOM     17  C   UNL     1     102.489 124.146 146.590  0.00  0.00    +0.000 A 
ATOM     18  C   UNL     1     102.412 123.435 146.179  0.00  0.00    +0.000 A 
ATOM     19  C   UNL     1     103.083 123.044 145.901  0.00  0.00    +0.000 A 
ATOM     20  C   UNL     1     101.197 123.853 146.513  0.00  0.00    +0.000 C 
ENDBRANCH   2  14
BRANCH   9  21
ATOM     21  O   UNL     1     107.241 124.833 149.121  0.00  0.00    +0.000 OA
ATOM     22  C   UNL     1     107.950 124.420 149.206  0.00  0.00    +0.000 C 
ENDBRANCH   9  21
TORSDOF 2
ENDMDL
MODEL 3
REMARK VINA RESULT:      -8.2      6.613      7.879
REMARK  Name = 44257183
REMARK  2 active torsions:
REMARK  status: ('A' for Active; 'I' for Inactive)
REMARK    1  A    between atoms: O_5  and  C_19
REMARK    2  A    between atoms: C_6  and  C_9
REMARK                            x       y       z     vdW  Elec       q    Type
REMARK                         _______ _______ _______ _____ _____    ______ ____
ROOT
ATOM      1  O   UNL     1     111.107 126.038 136.564  0.00  0.00    +0.000 OA
ATOM      2  C   UNL     1     111.477 125.403 136.186  0.00  0.00    +0.000 C 
ATOM      3  C   UNL     1     111.142 125.075 135.508  0.00  0.00    +0.000 C 
ATOM      4  C   UNL     1     110.437 125.381 135.207  0.00  0.00    +0.000 C 
ATOM      5  C   UNL     1     110.068 126.014 135.584  0.00  0.00    +0.000 A 
ATOM      6  C   UNL     1     110.403 126.343 136.262  0.00  0.00    +0.000 A 
ATOM      7  C   UNL     1     109.334 126.324 135.261  0.00  0.00    +0.000 A 
ATOM      8  C   UNL     1     110.027 127.003 136.664  0.00  0.00    +0.000 A 
ATOM      9  C   UNL     1     109.294 127.326 136.355  0.00  0.00    +0.000 A 
ATOM     10  C   UNL     1     108.944 126.984 135.649  0.00  0.00    +0.000 A 
ENDROOT
BRANCH   2  14
ATOM     11  O   UNL     1     114.366 125.481 136.658  0.00  0.00    +0.000 OA
ATOM     12  O   UNL     1     114.363 124.330 137.320  0.00  0.00    +0.000 OA
ATOM     13  O   UNL     1     111.473 123.973 137.009  0.00  0.00    +0.000 OA
ATOM     14  C   UNL     1     112.182 125.098 136.488  0.00  0.00    +0.000 A 
ATOM     15  C   UNL     1     112.889 125.509 136.377  0.00  0.00    +0.000 A 
ATOM     16  C   UNL     1     112.180 124.383 136.899  0.00  0.00    +0.000 A 
ATOM     17  C   UNL     1     113.594 125.204 136.679  0.00  0.00    +0.000 A 
ATOM     18  C   UNL     1     113.592 124.489 137.091  0.00  0.00    +0.000 A 
ATOM     19  C   UNL     1     112.885 124.079 137.201  0.00  0.00    +0.000 A 
ATOM     20  C   UNL     1     114.840 124.941 137.053  0.00  0.00    +0.000 C 
ENDBRANCH   2  14
BRANCH   9  21
ATOM     21  O   UNL     1     108.927 127.960 136.735  0.00  0.00    +0.000 OA
ATOM     22  C   UNL     1     108.955 128.713 136.400  0.00  0.00    +0.000 C 
ENDBRANCH   9  21
TORSDOF 2
ENDMDL
MODEL 4
REMARK VINA RESULT:      -8.0      6.916      8.121
REMARK  Name = 44257183
REMARK  2 active torsions:
REMARK  status: ('A' for Active; 'I' for Inactive)
REMARK    1  A    between atoms: O_5  and  C_19
REMARK    2  A    between atoms: C_6  and  C_9
REMARK                            x       y       z     vdW  Elec       q    Type
REMARK                         _______ _______ _______ _____ _____    ______ ____
ROOT
ATOM      1  O   UNL     1     110.587 126.890 136.111  0.00  0.00    +0.000 OA
ATOM      2  C   UNL     1     110.022 127.051 135.531  0.00  0.00    +0.000 C 
ATOM      3  C   UNL     1     109.792 126.460 135.003  0.00  0.00    +0.000 C 
ATOM      4  C   UNL     1     110.127 125.708 135.055  0.00  0.00    +0.000 C 
ATOM      5  C   UNL     1     110.691 125.546 135.634  0.00  0.00    +0.000 A 
ATOM      6  C   UNL     1     110.921 126.137 136.162  0.00  0.00    +0.000 A 
ATOM      7  C   UNL     1     111.033 124.758 135.678  0.00  0.00    +0.000 A 
ATOM      8  C   UNL     1     111.509 125.981 136.770  0.00  0.00    +0.000 A 
ATOM      9  C   UNL     1     111.861 125.200 136.829  0.00  0.00    +0.000 A 
ATOM     10  C   UNL     1     111.621 124.585 136.279  0.00  0.00    +0.000 A 
ENDROOT
BRANCH   2  14
ATOM     11  O   UNL     1     109.976 129.831 134.612  0.00  0.00    +0.000 OA
ATOM     12  O   UNL     1     108.828 130.092 135.227  0.00  0.00    +0.000 OA
ATOM     13  O   UNL     1     108.596 127.375 136.295  0.00  0.00    +0.000 OA
ATOM     14  C   UNL     1     109.688 127.803 135.479  0.00  0.00    +0.000 A 
ATOM     15  C   UNL     1     110.067 128.394 135.045  0.00  0.00    +0.000 A 
ATOM     16  C   UNL     1     108.975 127.965 135.861  0.00  0.00    +0.000 A 
ATOM     17  C   UNL     1     109.733 129.147 134.994  0.00  0.00    +0.000 A 
ATOM     18  C   UNL     1     109.020 129.309 135.376  0.00  0.00    +0.000 A 
ATOM     19  C   UNL     1     108.641 128.718 135.809  0.00  0.00    +0.000 A 
ATOM     20  C   UNL     1     109.417 130.414 134.756  0.00  0.00    +0.000 C 
ENDBRANCH   2  14
BRANCH   9  21
ATOM     21  O   UNL     1     112.425 125.042 137.410  0.00  0.00    +0.000 OA
ATOM     22  C   UNL     1     113.195 124.838 137.192  0.00  0.00    +0.000 C 
ENDBRANCH   9  21
TORSDOF 2
ENDMDL
MODEL 5
REMARK VINA RESULT:      -8.0      7.414      8.708
REMARK  Name = 44257183
REMARK  2 active torsions:
REMARK  status: ('A' for Active; 'I' for Inactive)
REMARK    1  A    between atoms: O_5  and  C_19
REMARK    2  A    between atoms: C_6  and  C_9
REMARK                            x       y       z     vdW  Elec       q    Type
REMARK                         _______ _______ _______ _____ _____    ______ ____
ROOT
ATOM      1  O   UNL     1     104.721 124.170 146.971  0.00  0.00    +0.000 OA
ATOM      2  C   UNL     1     105.008 124.792 147.431  0.00  0.00    +0.000 C 
ATOM      3  C   UNL     1     104.484 125.341 147.756  0.00  0.00    +0.000 C 
ATOM      4  C   UNL     1     103.673 125.267 147.620  0.00  0.00    +0.000 C 
ATOM      5  C   UNL     1     103.387 124.645 147.161  0.00  0.00    +0.000 A 
ATOM      6  C   UNL     1     103.911 124.097 146.836  0.00  0.00    +0.000 A 
ATOM      7  C   UNL     1     102.540 124.579 147.027  0.00  0.00    +0.000 A 
ATOM      8  C   UNL     1     103.624 123.444 146.355  0.00  0.00    +0.000 A 
ATOM      9  C   UNL     1     102.781 123.363 146.211  0.00  0.00    +0.000 A 
ATOM     10  C   UNL     1     102.236 123.934 146.549  0.00  0.00    +0.000 A 
ENDROOT
BRANCH   2  14
ATOM     11  O   UNL     1     107.439 124.388 149.013  0.00  0.00    +0.000 OA
ATOM     12  O   UNL     1     108.210 124.998 148.120  0.00  0.00    +0.000 OA
ATOM     13  O   UNL     1     105.965 125.551 146.322  0.00  0.00    +0.000 OA
ATOM     14  C   UNL     1     105.818 124.865 147.566  0.00  0.00    +0.000 A 
ATOM     15  C   UNL     1     106.150 124.558 148.257  0.00  0.00    +0.000 A 
ATOM     16  C   UNL     1     106.297 125.245 147.012  0.00  0.00    +0.000 A 
ATOM     17  C   UNL     1     106.961 124.631 148.392  0.00  0.00    +0.000 A 
ATOM     18  C   UNL     1     107.439 125.011 147.837  0.00  0.00    +0.000 A 
ATOM     19  C   UNL     1     107.108 125.317 147.148  0.00  0.00    +0.000 A 
ATOM     20  C   UNL     1     108.209 124.614 148.844  0.00  0.00    +0.000 C 
ENDBRANCH   2  14
BRANCH   9  21
ATOM     21  O   UNL     1     102.498 122.739 145.750  0.00  0.00    +0.000 OA
ATOM     22  C   UNL     1     101.839 122.851 145.266  0.00  0.00    +0.000 C 
ENDBRANCH   9  21
TORSDOF 2
ENDMDL
MODEL 6
REMARK VINA RESULT:      -8.0     11.244     14.355
REMARK  Name = 44257183
REMARK  2 active torsions:
REMARK  status: ('A' for Active; 'I' for Inactive)
REMARK    1  A    between atoms: O_5  and  C_19
REMARK    2  A    between atoms: C_6  and  C_9
REMARK                            x       y       z     vdW  Elec       q    Type
REMARK                         _______ _______ _______ _____ _____    ______ ____
ROOT
ATOM      1  O   UNL     1     111.897 132.832 146.490  0.00  0.00    +0.000 OA
ATOM      2  C   UNL     1     112.418 132.375 146.040  0.00  0.00    +0.000 C 
ATOM      3  C   UNL     1     113.042 131.979 146.406  0.00  0.00    +0.000 C 
ATOM      4  C   UNL     1     113.146 132.040 147.223  0.00  0.00    +0.000 C 
ATOM      5  C   UNL     1     112.626 132.496 147.672  0.00  0.00    +0.000 A 
ATOM      6  C   UNL     1     112.002 132.892 147.306  0.00  0.00    +0.000 A 
ATOM      7  C   UNL     1     112.745 132.551 148.522  0.00  0.00    +0.000 A 
ATOM      8  C   UNL     1     111.454 133.370 147.764  0.00  0.00    +0.000 A 
ATOM      9  C   UNL     1     111.557 133.437 148.614  0.00  0.00    +0.000 A 
ATOM     10  C   UNL     1     112.207 133.024 148.995  0.00  0.00    +0.000 A 
ENDROOT
BRANCH   2  14
ATOM     11  O   UNL     1     111.193 131.226 143.641  0.00  0.00    +0.000 OA
ATOM     12  O   UNL     1     111.883 132.011 142.823  0.00  0.00    +0.000 OA
ATOM     13  O   UNL     1     113.276 133.351 145.023  0.00  0.00    +0.000 OA
ATOM     14  C   UNL     1     112.313 132.316 145.224  0.00  0.00    +0.000 A 
ATOM     15  C   UNL     1     111.778 131.767 144.916  0.00  0.00    +0.000 A 
ATOM     16  C   UNL     1     112.742 132.803 144.715  0.00  0.00    +0.000 A 
ATOM     17  C   UNL     1     111.673 131.707 144.100  0.00  0.00    +0.000 A 
ATOM     18  C   UNL     1     112.102 132.195 143.592  0.00  0.00    +0.000 A 
ATOM     19  C   UNL     1     112.636 132.743 143.899  0.00  0.00    +0.000 A 
ATOM     20  C   UNL     1     111.323 131.413 142.854  0.00  0.00    +0.000 C 
ENDBRANCH   2  14
BRANCH   9  21
ATOM     21  O   UNL     1     111.035 133.894 149.061  0.00  0.00    +0.000 OA
ATOM     22  C   UNL     1     110.446 133.528 149.507  0.00  0.00    +0.000 C 
ENDBRANCH   9  21
TORSDOF 2
ENDMDL
MODEL 7
REMARK VINA RESULT:      -8.0      8.323      9.317
REMARK  Name = 44257183
REMARK  2 active torsions:
REMARK  status: ('A' for Active; 'I' for Inactive)
REMARK    1  A    between atoms: O_5  and  C_19
REMARK    2  A    between atoms: C_6  and  C_9
REMARK                            x       y       z     vdW  Elec       q    Type
REMARK                         _______ _______ _______ _____ _____    ______ ____
ROOT
ATOM      1  O   UNL     1     102.511 132.259 141.679  0.00  0.00    +0.000 OA
ATOM      2  C   UNL     1     102.157 131.549 141.906  0.00  0.00    +0.000 C 
ATOM      3  C   UNL     1     101.356 131.532 142.103  0.00  0.00    +0.000 C 
ATOM      4  C   UNL     1     100.910 132.226 142.073  0.00  0.00    +0.000 C 
ATOM      5  C   UNL     1     101.263 132.935 141.846  0.00  0.00    +0.000 A 
ATOM      6  C   UNL     1     102.064 132.951 141.649  0.00  0.00    +0.000 A 
ATOM      7  C   UNL     1     100.787 133.650 141.818  0.00  0.00    +0.000 A 
ATOM      8  C   UNL     1     102.445 133.685 141.411  0.00  0.00    +0.000 A 
ATOM      9  C   UNL     1     101.985 134.409 141.377  0.00  0.00    +0.000 A 
ATOM     10  C   UNL     1     101.151 134.392 141.582  0.00  0.00    +0.000 A 
ENDROOT
BRANCH   2  14
ATOM     11  O   UNL     1     103.378 129.174 140.704  0.00  0.00    +0.000 OA
ATOM     12  O   UNL     1     103.908 128.774 141.854  0.00  0.00    +0.000 OA
ATOM     13  O   UNL     1     102.815 131.052 143.335  0.00  0.00    +0.000 OA
ATOM     14  C   UNL     1     102.604 130.856 141.936  0.00  0.00    +0.000 A 
ATOM     15  C   UNL     1     102.722 130.412 141.251  0.00  0.00    +0.000 A 
ATOM     16  C   UNL     1     102.933 130.608 142.651  0.00  0.00    +0.000 A 
ATOM     17  C   UNL     1     103.169 129.720 141.281  0.00  0.00    +0.000 A 
ATOM     18  C   UNL     1     103.498 129.471 141.995  0.00  0.00    +0.000 A 
ATOM     19  C   UNL     1     103.380 129.915 142.680  0.00  0.00    +0.000 A 
ATOM     20  C   UNL     1     103.833 128.591 141.058  0.00  0.00    +0.000 C 
ENDBRANCH   2  14
BRANCH   9  21
ATOM     21  O   UNL     1     102.342 135.117 141.149  0.00  0.00    +0.000 OA
ATOM     22  C   UNL     1     102.201 135.427 140.398  0.00  0.00    +0.000 C 
ENDBRANCH   9  21
TORSDOF 2
ENDMDL
MODEL 8
REMARK VINA RESULT:      -7.9      6.653      8.601
REMARK  Name = 44257183
REMARK  2 active torsions:
REMARK  status: ('A' for Active; 'I' for Inactive)
REMARK    1  A    between atoms: O_5  and  C_19
REMARK    2  A    between atoms: C_6  and  C_9
REMARK                            x       y       z     vdW  Elec       q    Type
REMARK                         _______ _______ _______ _____ _____    ______ ____
ROOT
ATOM      1  O   UNL     1     112.017 125.691 136.208  0.00  0.00    +0.000 OA
ATOM      2  C   UNL     1     111.263 125.355 136.229  0.00  0.00    +0.000 C 
ATOM      3  C   UNL     1     111.166 124.576 136.483  0.00  0.00    +0.000 C 
ATOM      4  C   UNL     1     111.822 124.134 136.716  0.00  0.00    +0.000 C 
ATOM      5  C   UNL     1     112.575 124.469 136.696  0.00  0.00    +0.000 A 
ATOM      6  C   UNL     1     112.672 125.248 136.442  0.00  0.00    +0.000 A 
ATOM      7  C   UNL     1     113.251 123.998 136.942  0.00  0.00    +0.000 A 
ATOM      8  C   UNL     1     113.452 125.609 136.416  0.00  0.00    +0.000 A 
ATOM      9  C   UNL     1     114.139 125.153 136.658  0.00  0.00    +0.000 A 
ATOM     10  C   UNL     1     114.037 124.342 136.922  0.00  0.00    +0.000 A 
ENDROOT
BRANCH   2  14
ATOM     11  O   UNL     1     109.112 127.284 136.703  0.00  0.00    +0.000 OA
ATOM     12  O   UNL     1     108.650 127.185 135.462  0.00  0.00    +0.000 OA
ATOM     13  O   UNL     1     110.689 125.231 134.687  0.00  0.00    +0.000 OA
ATOM     14  C   UNL     1     110.608 125.798 135.996  0.00  0.00    +0.000 A 
ATOM     15  C   UNL     1     110.239 126.304 136.534  0.00  0.00    +0.000 A 
ATOM     16  C   UNL     1     110.321 125.736 135.225  0.00  0.00    +0.000 A 
ATOM     17  C   UNL     1     109.584 126.747 136.301  0.00  0.00    +0.000 A 
ATOM     18  C   UNL     1     109.297 126.685 135.530  0.00  0.00    +0.000 A 
ATOM     19  C   UNL     1     109.665 126.180 134.992  0.00  0.00    +0.000 A 
ATOM     20  C   UNL     1     108.536 127.554 136.185  0.00  0.00    +0.000 C 
ENDBRANCH   2  14
BRANCH   9  21
ATOM     21  O   UNL     1     114.891 125.493 136.636  0.00  0.00    +0.000 OA
ATOM     22  C   UNL     1     115.369 125.391 135.972  0.00  0.00    +0.000 C 
ENDBRANCH   9  21
TORSDOF 2
ENDMDL
MODEL 9
REMARK VINA RESULT:      -7.9      0.771      4.438
REMARK  Name = 44257183
REMARK  2 active torsions:
REMARK  status: ('A' for Active; 'I' for Inactive)
REMARK    1  A    between atoms: O_5  and  C_19
REMARK    2  A    between atoms: C_6  and  C_9
REMARK                            x       y       z     vdW  Elec       q    Type
REMARK                         _______ _______ _______ _____ _____    ______ ____
ROOT
ATOM      1  O   UNL     1     104.936 124.258 139.072  0.00  0.00    +0.000 OA
ATOM      2  C   UNL     1     104.328 123.698 139.072  0.00  0.00    +0.000 C 
ATOM      3  C   UNL     1     104.185 123.245 139.746  0.00  0.00    +0.000 C 
ATOM      4  C   UNL     1     104.649 123.351 140.420  0.00  0.00    +0.000 C 
ATOM      5  C   UNL     1     105.256 123.909 140.420  0.00  0.00    +0.000 A 
ATOM      6  C   UNL     1     105.399 124.363 139.746  0.00  0.00    +0.000 A 
ATOM      7  C   UNL     1     105.732 124.010 141.129  0.00  0.00    +0.000 A 
ATOM      8  C   UNL     1     106.028 124.948 139.734  0.00  0.00    +0.000 A 
ATOM      9  C   UNL     1     106.514 125.063 140.433  0.00  0.00    +0.000 A 
ATOM     10  C   UNL     1     106.365 124.590 141.135  0.00  0.00    +0.000 A 
ENDROOT
BRANCH   2  14
ATOM     11  O   UNL     1     103.909 122.869 136.295  0.00  0.00    +0.000 OA
ATOM     12  O   UNL     1     102.627 123.216 136.308  0.00  0.00    +0.000 OA
ATOM     13  O   UNL     1     102.736 124.130 139.088  0.00  0.00    +0.000 OA
ATOM     14  C   UNL     1     103.865 123.593 138.397  0.00  0.00    +0.000 A 
ATOM     15  C   UNL     1     104.199 123.272 137.714  0.00  0.00    +0.000 A 
ATOM     16  C   UNL     1     103.069 123.809 138.405  0.00  0.00    +0.000 A 
ATOM     17  C   UNL     1     103.736 123.167 137.039  0.00  0.00    +0.000 A 
ATOM     18  C   UNL     1     102.940 123.383 137.047  0.00  0.00    +0.000 A 
ATOM     19  C   UNL     1     102.607 123.704 137.730  0.00  0.00    +0.000 A 
ATOM     20  C   UNL     1     103.224 122.899 135.844  0.00  0.00    +0.000 C 
ENDBRANCH   2  14
BRANCH   9  21
ATOM     21  O   UNL     1     107.120 125.623 140.430  0.00  0.00    +0.000 OA
ATOM     22  C   UNL     1     107.874 125.416 140.693  0.00  0.00    +0.000 C 
ENDBRANCH   9  21
TORSDOF 2
ENDMDL
MODEL 10
REMARK VINA RESULT:      -7.6      7.869      9.552
REMARK  Name = 44257183
REMARK  2 active torsions:
REMARK  status: ('A' for Active; 'I' for Inactive)
REMARK    1  A    between atoms: O_5  and  C_19
REMARK    2  A    between atoms: C_6  and  C_9
REMARK                            x       y       z     vdW  Elec       q    Type
REMARK                         _______ _______ _______ _____ _____    ______ ____
ROOT
ATOM      1  O   UNL     1     112.276 127.221 136.032  0.00  0.00    +0.000 OA
ATOM      2  C   UNL     1     113.018 127.352 136.370  0.00  0.00    +0.000 C 
ATOM      3  C   UNL     1     113.435 126.724 136.705  0.00  0.00    +0.000 C 
ATOM      4  C   UNL     1     113.110 125.965 136.701  0.00  0.00    +0.000 C 
ATOM      5  C   UNL     1     112.369 125.834 136.364  0.00  0.00    +0.000 A 
ATOM      6  C   UNL     1     111.952 126.462 136.029  0.00  0.00    +0.000 A 
ATOM      7  C   UNL     1     112.042 125.039 136.367  0.00  0.00    +0.000 A 
ATOM      8  C   UNL     1     111.179 126.339 135.674  0.00  0.00    +0.000 A 
ATOM      9  C   UNL     1     110.836 125.551 135.668  0.00  0.00    +0.000 A 
ATOM     10  C   UNL     1     111.271 124.897 136.016  0.00  0.00    +0.000 A 
ENDROOT
BRANCH   2  14
ATOM     11  O   UNL     1     114.599 129.521 135.199  0.00  0.00    +0.000 OA
ATOM     12  O   UNL     1     114.376 130.335 136.225  0.00  0.00    +0.000 OA
ATOM     13  O   UNL     1     112.741 128.363 137.644  0.00  0.00    +0.000 OA
ATOM     14  C   UNL     1     113.341 128.110 136.373  0.00  0.00    +0.000 A 
ATOM     15  C   UNL     1     113.803 128.364 135.737  0.00  0.00    +0.000 A 
ATOM     16  C   UNL     1     113.203 128.616 137.010  0.00  0.00    +0.000 A 
ATOM     17  C   UNL     1     114.127 129.122 135.740  0.00  0.00    +0.000 A 
ATOM     18  C   UNL     1     113.989 129.628 136.377  0.00  0.00    +0.000 A 
ATOM     19  C   UNL     1     113.527 129.375 137.011  0.00  0.00    +0.000 A 
ATOM     20  C   UNL     1     114.752 130.269 135.499  0.00  0.00    +0.000 C 
ENDBRANCH   2  14
BRANCH   9  21
ATOM     21  O   UNL     1     110.094 125.424 135.329  0.00  0.00    +0.000 OA
ATOM     22  C   UNL     1     109.899 125.792 134.617  0.00  0.00    +0.000 C 
ENDBRANCH   9  21
TORSDOF 2
ENDMDL
