MODEL 1
REMARK VINA RESULT:     -10.2      0.000      0.000
REMARK  Name = 44257991
REMARK  6 active torsions:
REMARK  status: ('A' for Active; 'I' for Inactive)
REMARK    1  A    between atoms: O_3  and  C_23
REMARK    2  A    between atoms: O_3  and  C_27
REMARK    3  A    between atoms: O_4  and  C_24
REMARK    4  A    between atoms: O_4  and  C_28
REMARK    5  A    between atoms: O_14  and  C_41
REMARK    6  A    between atoms: C_31  and  C_36
REMARK                            x       y       z     vdW  Elec       q    Type
REMARK                         _______ _______ _______ _____ _____    ______ ____
ROOT
ATOM      1  O   UNL     1     112.970 128.345 138.231  0.00  0.00    +0.000 OA
ATOM      2  O   UNL     1     112.392 126.095 139.085  0.00  0.00    +0.000 OA
ATOM      3  O   UNL     1     113.070 126.363 140.330  0.00  0.00    +0.000 OA
ATOM      4  C   UNL     1     112.341 127.075 138.046  0.00  0.00    +0.000 A 
ATOM      5  C   UNL     1     113.922 128.433 140.251  0.00  0.00    +0.000 A 
ATOM      6  C   UNL     1     113.020 127.366 139.270  0.00  0.00    +0.000 A 
ATOM      7  C   UNL     1     112.585 126.845 138.801  0.00  0.00    +0.000 A 
ATOM      8  C   UNL     1     112.534 127.825 137.762  0.00  0.00    +0.000 A 
ATOM      9  C   UNL     1     113.212 128.116 138.985  0.00  0.00    +0.000 A 
ATOM     10  C   UNL     1     113.665 128.666 139.464  0.00  0.00    +0.000 A 
ATOM     11  C   UNL     1     113.721 127.652 140.547  0.00  0.00    +0.000 A 
ATOM     12  C   UNL     1     113.267 127.115 140.054  0.00  0.00    +0.000 A 
ENDROOT
BRANCH   8  13
ATOM     13  C   UNL     1     112.291 128.055 137.007  0.00  0.00    +0.000 A 
ATOM     14  C   UNL     1     111.498 128.234 136.866  0.00  0.00    +0.000 A 
ATOM     15  C   UNL     1     112.841 128.105 136.395  0.00  0.00    +0.000 A 
ATOM     16  C   UNL     1     111.256 128.464 136.112  0.00  0.00    +0.000 A 
ATOM     17  C   UNL     1     112.598 128.335 135.640  0.00  0.00    +0.000 A 
ATOM     18  C   UNL     1     111.806 128.515 135.498  0.00  0.00    +0.000 A 
BRANCH  18  19
ATOM     19  O   UNL     1     111.563 128.744 134.745  0.00  0.00    +0.000 OA
ATOM     20  C   UNL     1     110.972 129.313 134.656  0.00  0.00    +0.000 C 
ENDBRANCH  18  19
ENDBRANCH   8  13
BRANCH   4  21
ATOM     21  O   UNL     1     111.906 126.555 137.577  0.00  0.00    +0.000 OA
BRANCH  21  30
ATOM     22  O   UNL     1     113.030 125.740 137.241  0.00  0.00    +0.000 OA
ATOM     23  O   UNL     1     111.543 123.771 137.043  0.00  0.00    +0.000 OA
ATOM     24  O   UNL     1     113.163 123.612 136.773  0.00  0.00    +0.000 OA
ATOM     25  O   UNL     1     110.914 125.243 137.445  0.00  0.00    +0.000 OA
ATOM     26  C   UNL     1     112.039 124.427 137.109  0.00  0.00    +0.000 C 
ATOM     27  C   UNL     1     112.849 124.348 136.974  0.00  0.00    +0.000 C 
ATOM     28  C   UNL     1     111.725 125.163 137.310  0.00  0.00    +0.000 C 
ATOM     29  C   UNL     1     113.345 125.004 137.039  0.00  0.00    +0.000 C 
ATOM     30  C   UNL     1     112.221 125.819 137.375  0.00  0.00    +0.000 C 
ATOM     31  C   UNL     1     114.154 124.924 136.905  0.00  0.00    +0.000 C 
ENDBRANCH  21  30
ENDBRANCH   4  21
BRANCH   5  32
ATOM     32  O   UNL     1     114.357 128.956 140.718  0.00  0.00    +0.000 OA
BRANCH  32  41
ATOM     33  O   UNL     1     113.250 129.474 141.458  0.00  0.00    +0.000 OA
ATOM     34  O   UNL     1     114.304 131.713 141.467  0.00  0.00    +0.000 OA
ATOM     35  O   UNL     1     112.846 131.485 142.205  0.00  0.00    +0.000 OA
ATOM     36  O   UNL     1     115.060 130.448 140.724  0.00  0.00    +0.000 OA
ATOM     37  C   UNL     1     113.953 130.967 141.464  0.00  0.00    +0.000 C 
ATOM     38  C   UNL     1     113.224 130.852 141.833  0.00  0.00    +0.000 C 
ATOM     39  C   UNL     1     114.331 130.334 141.093  0.00  0.00    +0.000 C 
ATOM     40  C   UNL     1     112.873 130.107 141.830  0.00  0.00    +0.000 C 
ATOM     41  C   UNL     1     113.979 129.588 141.090  0.00  0.00    +0.000 C 
ATOM     42  C   UNL     1     112.143 129.993 142.199  0.00  0.00    +0.000 C 
ENDBRANCH  32  41
ENDBRANCH   5  32
TORSDOF 6
ENDMDL
MODEL 2
REMARK VINA RESULT:     -10.1      1.505      5.622
REMARK  Name = 44257991
REMARK  6 active torsions:
REMARK  status: ('A' for Active; 'I' for Inactive)
REMARK    1  A    between atoms: O_3  and  C_23
REMARK    2  A    between atoms: O_3  and  C_27
REMARK    3  A    between atoms: O_4  and  C_24
REMARK    4  A    between atoms: O_4  and  C_28
REMARK    5  A    between atoms: O_14  and  C_41
REMARK    6  A    between atoms: C_31  and  C_36
REMARK                            x       y       z     vdW  Elec       q    Type
REMARK                         _______ _______ _______ _____ _____    ______ ____
ROOT
ATOM      1  O   UNL     1     112.409 128.540 138.338  0.00  0.00    +0.000 OA
ATOM      2  O   UNL     1     114.053 128.644 140.185  0.00  0.00    +0.000 OA
ATOM      3  O   UNL     1     113.969 127.216 140.378  0.00  0.00    +0.000 OA
ATOM      4  C   UNL     1     113.282 129.300 139.177  0.00  0.00    +0.000 A 
ATOM      5  C   UNL     1     112.515 126.379 138.895  0.00  0.00    +0.000 A 
ATOM      6  C   UNL     1     113.180 127.884 139.347  0.00  0.00    +0.000 A 
ATOM      7  C   UNL     1     113.505 128.609 139.570  0.00  0.00    +0.000 A 
ATOM      8  C   UNL     1     112.734 129.265 138.561  0.00  0.00    +0.000 A 
ATOM      9  C   UNL     1     112.632 127.851 138.731  0.00  0.00    +0.000 A 
ATOM     10  C   UNL     1     112.286 127.102 138.489  0.00  0.00    +0.000 A 
ATOM     11  C   UNL     1     113.085 126.415 139.536  0.00  0.00    +0.000 A 
ATOM     12  C   UNL     1     113.420 127.173 139.763  0.00  0.00    +0.000 A 
ENDROOT
BRANCH   8  13
ATOM     13  C   UNL     1     112.511 129.956 138.168  0.00  0.00    +0.000 A 
ATOM     14  C   UNL     1     111.772 130.293 138.313  0.00  0.00    +0.000 A 
ATOM     15  C   UNL     1     113.027 130.309 137.631  0.00  0.00    +0.000 A 
ATOM     16  C   UNL     1     111.550 130.983 137.921  0.00  0.00    +0.000 A 
ATOM     17  C   UNL     1     112.804 131.000 137.238  0.00  0.00    +0.000 A 
ATOM     18  C   UNL     1     112.065 131.337 137.383  0.00  0.00    +0.000 A 
BRANCH  18  19
ATOM     19  O   UNL     1     111.843 132.027 136.990  0.00  0.00    +0.000 OA
ATOM     20  C   UNL     1     111.063 132.293 137.031  0.00  0.00    +0.000 C 
ENDBRANCH  18  19
ENDBRANCH   8  13
BRANCH   4  21
ATOM     21  O   UNL     1     113.607 130.025 139.400  0.00  0.00    +0.000 OA
BRANCH  21  30
ATOM     22  O   UNL     1     112.827 130.122 140.593  0.00  0.00    +0.000 OA
ATOM     23  O   UNL     1     114.613 131.469 141.651  0.00  0.00    +0.000 OA
ATOM     24  O   UNL     1     113.238 131.117 142.492  0.00  0.00    +0.000 OA
ATOM     25  O   UNL     1     114.798 130.923 140.105  0.00  0.00    +0.000 OA
ATOM     26  C   UNL     1     114.018 131.020 141.299  0.00  0.00    +0.000 C 
ATOM     27  C   UNL     1     113.330 130.843 141.719  0.00  0.00    +0.000 C 
ATOM     28  C   UNL     1     114.110 130.746 140.526  0.00  0.00    +0.000 C 
ATOM     29  C   UNL     1     112.734 130.394 141.367  0.00  0.00    +0.000 C 
ATOM     30  C   UNL     1     113.514 130.297 140.173  0.00  0.00    +0.000 C 
ATOM     31  C   UNL     1     112.047 130.219 141.787  0.00  0.00    +0.000 C 
ENDBRANCH  21  30
ENDBRANCH   4  21
BRANCH   5  32
ATOM     32  O   UNL     1     112.187 125.656 138.669  0.00  0.00    +0.000 OA
BRANCH  32  41
ATOM     33  O   UNL     1     113.310 125.230 137.894  0.00  0.00    +0.000 OA
ATOM     34  O   UNL     1     111.789 124.068 136.326  0.00  0.00    +0.000 OA
ATOM     35  O   UNL     1     113.419 124.029 136.074  0.00  0.00    +0.000 OA
ATOM     36  O   UNL     1     111.173 124.881 137.623  0.00  0.00    +0.000 OA
ATOM     37  C   UNL     1     112.296 124.455 136.849  0.00  0.00    +0.000 C 
ATOM     38  C   UNL     1     113.111 124.436 136.723  0.00  0.00    +0.000 C 
ATOM     39  C   UNL     1     111.988 124.862 137.498  0.00  0.00    +0.000 C 
ATOM     40  C   UNL     1     113.618 124.823 137.245  0.00  0.00    +0.000 C 
ATOM     41  C   UNL     1     112.495 125.249 138.020  0.00  0.00    +0.000 C 
ATOM     42  C   UNL     1     114.433 124.804 137.119  0.00  0.00    +0.000 C 
ENDBRANCH  32  41
ENDBRANCH   5  32
TORSDOF 6
ENDMDL
MODEL 3
REMARK VINA RESULT:     -10.1      1.386      2.858
REMARK  Name = 44257991
REMARK  6 active torsions:
REMARK  status: ('A' for Active; 'I' for Inactive)
REMARK    1  A    between atoms: O_3  and  C_23
REMARK    2  A    between atoms: O_3  and  C_27
REMARK    3  A    between atoms: O_4  and  C_24
REMARK    4  A    between atoms: O_4  and  C_28
REMARK    5  A    between atoms: O_14  and  C_41
REMARK    6  A    between atoms: C_31  and  C_36
REMARK                            x       y       z     vdW  Elec       q    Type
REMARK                         _______ _______ _______ _____ _____    ______ ____
ROOT
ATOM      1  O   UNL     1     113.439 126.238 138.755  0.00  0.00    +0.000 OA
ATOM      2  O   UNL     1     111.049 125.790 138.295  0.00  0.00    +0.000 OA
ATOM      3  O   UNL     1     110.667 126.382 139.554  0.00  0.00    +0.000 OA
ATOM      4  C   UNL     1     112.420 125.718 137.899  0.00  0.00    +0.000 A 
ATOM      5  C   UNL     1     112.517 127.078 140.609  0.00  0.00    +0.000 A 
ATOM      6  C   UNL     1     112.068 126.310 139.152  0.00  0.00    +0.000 A 
ATOM      7  C   UNL     1     111.846 125.940 138.449  0.00  0.00    +0.000 A 
ATOM      8  C   UNL     1     113.217 125.868 138.052  0.00  0.00    +0.000 A 
ATOM      9  C   UNL     1     112.866 126.459 139.304  0.00  0.00    +0.000 A 
ATOM     10  C   UNL     1     113.110 126.844 140.032  0.00  0.00    +0.000 A 
ATOM     11  C   UNL     1     111.687 126.922 140.449  0.00  0.00    +0.000 A 
ATOM     12  C   UNL     1     111.462 126.536 139.716  0.00  0.00    +0.000 A 
ENDROOT
BRANCH   8  13
ATOM     13  C   UNL     1     113.791 125.646 137.502  0.00  0.00    +0.000 A 
ATOM     14  C   UNL     1     114.131 126.214 137.009  0.00  0.00    +0.000 A 
ATOM     15  C   UNL     1     114.025 124.857 137.446  0.00  0.00    +0.000 A 
ATOM     16  C   UNL     1     114.704 125.992 136.460  0.00  0.00    +0.000 A 
ATOM     17  C   UNL     1     114.600 124.636 136.896  0.00  0.00    +0.000 A 
ATOM     18  C   UNL     1     114.939 125.203 136.403  0.00  0.00    +0.000 A 
BRANCH  18  19
ATOM     19  O   UNL     1     115.513 124.982 135.854  0.00  0.00    +0.000 OA
ATOM     20  C   UNL     1     115.618 125.424 135.165  0.00  0.00    +0.000 C 
ENDBRANCH  18  19
ENDBRANCH   8  13
BRANCH   4  21
ATOM     21  O   UNL     1     112.198 125.348 137.196  0.00  0.00    +0.000 OA
BRANCH  21  30
ATOM     22  O   UNL     1     111.717 126.557 136.605  0.00  0.00    +0.000 OA
ATOM     23  O   UNL     1     110.153 125.249 135.201  0.00  0.00    +0.000 OA
ATOM     24  O   UNL     1     110.194 126.894 135.079  0.00  0.00    +0.000 OA
ATOM     25  O   UNL     1     111.155 124.476 136.260  0.00  0.00    +0.000 OA
ATOM     26  C   UNL     1     110.674 125.685 135.669  0.00  0.00    +0.000 C 
ATOM     27  C   UNL     1     110.695 126.508 135.608  0.00  0.00    +0.000 C 
ATOM     28  C   UNL     1     111.175 125.299 136.199  0.00  0.00    +0.000 C 
ATOM     29  C   UNL     1     111.216 126.944 136.076  0.00  0.00    +0.000 C 
ATOM     30  C   UNL     1     111.697 125.735 136.667  0.00  0.00    +0.000 C 
ATOM     31  C   UNL     1     111.236 127.766 136.015  0.00  0.00    +0.000 C 
ENDBRANCH  21  30
ENDBRANCH   4  21
BRANCH   5  32
ATOM     32  O   UNL     1     112.743 127.448 141.311  0.00  0.00    +0.000 OA
BRANCH  32  41
ATOM     33  O   UNL     1     113.132 128.707 140.758  0.00  0.00    +0.000 OA
ATOM     34  O   UNL     1     112.082 129.872 142.673  0.00  0.00    +0.000 OA
ATOM     35  O   UNL     1     112.821 130.743 141.483  0.00  0.00    +0.000 OA
ATOM     36  O   UNL     1     112.043 128.224 142.587  0.00  0.00    +0.000 OA
ATOM     37  C   UNL     1     112.432 129.483 142.034  0.00  0.00    +0.000 C 
ATOM     38  C   UNL     1     112.802 129.919 141.439  0.00  0.00    +0.000 C 
ATOM     39  C   UNL     1     112.412 128.660 141.992  0.00  0.00    +0.000 C 
ATOM     40  C   UNL     1     113.152 129.531 140.802  0.00  0.00    +0.000 C 
ATOM     41  C   UNL     1     112.763 128.272 141.353  0.00  0.00    +0.000 C 
ATOM     42  C   UNL     1     113.521 129.967 140.206  0.00  0.00    +0.000 C 
ENDBRANCH  32  41
ENDBRANCH   5  32
TORSDOF 6
ENDMDL
MODEL 4
REMARK VINA RESULT:     -10.0      7.556      9.556
REMARK  Name = 44257991
REMARK  6 active torsions:
REMARK  status: ('A' for Active; 'I' for Inactive)
REMARK    1  A    between atoms: O_3  and  C_23
REMARK    2  A    between atoms: O_3  and  C_27
REMARK    3  A    between atoms: O_4  and  C_24
REMARK    4  A    between atoms: O_4  and  C_28
REMARK    5  A    between atoms: O_14  and  C_41
REMARK    6  A    between atoms: C_31  and  C_36
REMARK                            x       y       z     vdW  Elec       q    Type
REMARK                         _______ _______ _______ _____ _____    ______ ____
ROOT
ATOM      1  O   UNL     1     104.991 127.586 142.703  0.00  0.00    +0.000 OA
ATOM      2  O   UNL     1     107.274 128.275 142.042  0.00  0.00    +0.000 OA
ATOM      3  O   UNL     1     107.822 127.035 142.536  0.00  0.00    +0.000 OA
ATOM      4  C   UNL     1     105.874 128.549 142.124  0.00  0.00    +0.000 A 
ATOM      5  C   UNL     1     106.150 125.793 143.362  0.00  0.00    +0.000 A 
ATOM      6  C   UNL     1     106.391 127.312 142.621  0.00  0.00    +0.000 A 
ATOM      7  C   UNL     1     106.513 128.045 142.263  0.00  0.00    +0.000 A 
ATOM      8  C   UNL     1     105.113 128.319 142.345  0.00  0.00    +0.000 A 
ATOM      9  C   UNL     1     105.629 127.083 142.841  0.00  0.00    +0.000 A 
ATOM     10  C   UNL     1     105.489 126.323 143.215  0.00  0.00    +0.000 A 
ATOM     11  C   UNL     1     106.943 126.033 143.132  0.00  0.00    +0.000 A 
ATOM     12  C   UNL     1     107.063 126.797 142.759  0.00  0.00    +0.000 A 
ENDROOT
BRANCH   8  13
ATOM     13  C   UNL     1     104.474 128.823 142.207  0.00  0.00    +0.000 A 
ATOM     14  C   UNL     1     104.159 129.270 142.825  0.00  0.00    +0.000 A 
ATOM     15  C   UNL     1     104.150 128.879 141.450  0.00  0.00    +0.000 A 
ATOM     16  C   UNL     1     103.521 129.773 142.686  0.00  0.00    +0.000 A 
ATOM     17  C   UNL     1     103.510 129.383 141.312  0.00  0.00    +0.000 A 
ATOM     18  C   UNL     1     103.196 129.830 141.930  0.00  0.00    +0.000 A 
BRANCH  18  19
ATOM     19  O   UNL     1     102.558 130.333 141.792  0.00  0.00    +0.000 OA
ATOM     20  C   UNL     1     102.658 131.011 141.331  0.00  0.00    +0.000 C 
ENDBRANCH  18  19
ENDBRANCH   8  13
BRANCH   4  21
ATOM     21  O   UNL     1     105.996 129.282 141.766  0.00  0.00    +0.000 OA
BRANCH  21  30
ATOM     22  O   UNL     1     106.541 129.902 142.933  0.00  0.00    +0.000 OA
ATOM     23  O   UNL     1     107.974 131.329 141.505  0.00  0.00    +0.000 OA
ATOM     24  O   UNL     1     108.041 131.473 143.148  0.00  0.00    +0.000 OA
ATOM     25  O   UNL     1     106.951 130.233 140.814  0.00  0.00    +0.000 OA
ATOM     26  C   UNL     1     107.496 130.853 141.981  0.00  0.00    +0.000 C 
ATOM     27  C   UNL     1     107.529 130.925 142.803  0.00  0.00    +0.000 C 
ATOM     28  C   UNL     1     106.985 130.305 141.636  0.00  0.00    +0.000 C 
ATOM     29  C   UNL     1     107.052 130.450 143.279  0.00  0.00    +0.000 C 
ATOM     30  C   UNL     1     106.507 129.830 142.112  0.00  0.00    +0.000 C 
ATOM     31  C   UNL     1     107.085 130.522 144.099  0.00  0.00    +0.000 C 
ENDBRANCH  21  30
ENDBRANCH   4  21
BRANCH   5  32
ATOM     32  O   UNL     1     106.024 125.061 143.721  0.00  0.00    +0.000 OA
BRANCH  32  41
ATOM     33  O   UNL     1     106.392 125.473 145.039  0.00  0.00    +0.000 OA
ATOM     34  O   UNL     1     104.675 123.964 145.989  0.00  0.00    +0.000 OA
ATOM     35  O   UNL     1     105.615 124.878 146.990  0.00  0.00    +0.000 OA
ATOM     36  O   UNL     1     104.879 124.055 144.354  0.00  0.00    +0.000 OA
ATOM     37  C   UNL     1     105.247 124.467 145.672  0.00  0.00    +0.000 C 
ATOM     38  C   UNL     1     105.718 124.924 146.173  0.00  0.00    +0.000 C 
ATOM     39  C   UNL     1     105.350 124.513 144.855  0.00  0.00    +0.000 C 
ATOM     40  C   UNL     1     106.289 125.426 145.856  0.00  0.00    +0.000 C 
ATOM     41  C   UNL     1     105.922 125.015 144.538  0.00  0.00    +0.000 C 
ATOM     42  C   UNL     1     106.759 125.884 146.357  0.00  0.00    +0.000 C 
ENDBRANCH  32  41
ENDBRANCH   5  32
TORSDOF 6
ENDMDL
MODEL 5
REMARK VINA RESULT:     -10.0      2.020      4.826
REMARK  Name = 44257991
REMARK  6 active torsions:
REMARK  status: ('A' for Active; 'I' for Inactive)
REMARK    1  A    between atoms: O_3  and  C_23
REMARK    2  A    between atoms: O_3  and  C_27
REMARK    3  A    between atoms: O_4  and  C_24
REMARK    4  A    between atoms: O_4  and  C_28
REMARK    5  A    between atoms: O_14  and  C_41
REMARK    6  A    between atoms: C_31  and  C_36
REMARK                            x       y       z     vdW  Elec       q    Type
REMARK                         _______ _______ _______ _____ _____    ______ ____
ROOT
ATOM      1  O   UNL     1     111.345 127.960 138.276  0.00  0.00    +0.000 OA
ATOM      2  O   UNL     1     112.140 127.036 136.122  0.00  0.00    +0.000 OA
ATOM      3  O   UNL     1     110.997 127.585 135.432  0.00  0.00    +0.000 OA
ATOM      4  C   UNL     1     112.313 127.221 137.528  0.00  0.00    +0.000 A 
ATOM      5  C   UNL     1     109.715 128.665 136.918  0.00  0.00    +0.000 A 
ATOM      6  C   UNL     1     111.171 127.775 136.869  0.00  0.00    +0.000 A 
ATOM      7  C   UNL     1     111.874 127.344 136.840  0.00  0.00    +0.000 A 
ATOM      8  C   UNL     1     112.048 127.530 138.246  0.00  0.00    +0.000 A 
ATOM      9  C   UNL     1     110.907 128.083 137.588  0.00  0.00    +0.000 A 
ATOM     10  C   UNL     1     110.177 128.533 137.632  0.00  0.00    +0.000 A 
ATOM     11  C   UNL     1     109.992 128.344 136.171  0.00  0.00    +0.000 A 
ATOM     12  C   UNL     1     110.724 127.896 136.146  0.00  0.00    +0.000 A 
ENDROOT
BRANCH   8  13
ATOM     13  C   UNL     1     112.486 127.406 138.935  0.00  0.00    +0.000 A 
ATOM     14  C   UNL     1     112.230 126.857 139.494  0.00  0.00    +0.000 A 
ATOM     15  C   UNL     1     113.180 127.834 139.063  0.00  0.00    +0.000 A 
ATOM     16  C   UNL     1     112.668 126.734 140.181  0.00  0.00    +0.000 A 
ATOM     17  C   UNL     1     113.618 127.711 139.751  0.00  0.00    +0.000 A 
ATOM     18  C   UNL     1     113.363 127.161 140.311  0.00  0.00    +0.000 A 
BRANCH  18  19
ATOM     19  O   UNL     1     113.801 127.038 140.998  0.00  0.00    +0.000 OA
ATOM     20  C   UNL     1     114.623 127.108 140.983  0.00  0.00    +0.000 C 
ENDBRANCH  18  19
ENDBRANCH   8  13
BRANCH   4  21
ATOM     21  O   UNL     1     113.016 126.791 137.498  0.00  0.00    +0.000 OA
BRANCH  21  30
ATOM     22  O   UNL     1     112.362 125.525 137.388  0.00  0.00    +0.000 OA
ATOM     23  O   UNL     1     114.289 124.641 136.110  0.00  0.00    +0.000 OA
ATOM     24  O   UNL     1     112.993 123.670 136.425  0.00  0.00    +0.000 OA
ATOM     25  O   UNL     1     114.301 126.202 136.647  0.00  0.00    +0.000 OA
ATOM     26  C   UNL     1     113.647 124.936 136.536  0.00  0.00    +0.000 C 
ATOM     27  C   UNL     1     112.998 124.450 136.694  0.00  0.00    +0.000 C 
ATOM     28  C   UNL     1     113.652 125.716 136.805  0.00  0.00    +0.000 C 
ATOM     29  C   UNL     1     112.356 124.744 137.120  0.00  0.00    +0.000 C 
ATOM     30  C   UNL     1     113.010 126.010 137.230  0.00  0.00    +0.000 C 
ATOM     31  C   UNL     1     111.709 124.259 137.277  0.00  0.00    +0.000 C 
ENDBRANCH  21  30
ENDBRANCH   4  21
BRANCH   5  32
ATOM     32  O   UNL     1     109.013 129.097 136.952  0.00  0.00    +0.000 OA
BRANCH  32  41
ATOM     33  O   UNL     1     109.594 130.401 136.904  0.00  0.00    +0.000 OA
ATOM     34  O   UNL     1     107.749 131.168 135.443  0.00  0.00    +0.000 OA
ATOM     35  O   UNL     1     108.944 132.217 135.880  0.00  0.00    +0.000 OA
ATOM     36  O   UNL     1     107.783 129.607 135.978  0.00  0.00    +0.000 OA
ATOM     37  C   UNL     1     108.364 130.912 135.930  0.00  0.00    +0.000 C 
ATOM     38  C   UNL     1     108.962 131.437 136.149  0.00  0.00    +0.000 C 
ATOM     39  C   UNL     1     108.381 130.132 136.197  0.00  0.00    +0.000 C 
ATOM     40  C   UNL     1     109.576 131.182 136.635  0.00  0.00    +0.000 C 
ATOM     41  C   UNL     1     108.996 129.877 136.684  0.00  0.00    +0.000 C 
ATOM     42  C   UNL     1     110.174 131.706 136.854  0.00  0.00    +0.000 C 
ENDBRANCH  32  41
ENDBRANCH   5  32
TORSDOF 6
ENDMDL
MODEL 6
REMARK VINA RESULT:      -9.9      2.501      6.251
REMARK  Name = 44257991
REMARK  6 active torsions:
REMARK  status: ('A' for Active; 'I' for Inactive)
REMARK    1  A    between atoms: O_3  and  C_23
REMARK    2  A    between atoms: O_3  and  C_27
REMARK    3  A    between atoms: O_4  and  C_24
REMARK    4  A    between atoms: O_4  and  C_28
REMARK    5  A    between atoms: O_14  and  C_41
REMARK    6  A    between atoms: C_31  and  C_36
REMARK                            x       y       z     vdW  Elec       q    Type
REMARK                         _______ _______ _______ _____ _____    ______ ____
ROOT
ATOM      1  O   UNL     1     111.955 128.678 138.410  0.00  0.00    +0.000 OA
ATOM      2  O   UNL     1     110.483 129.993 136.918  0.00  0.00    +0.000 OA
ATOM      3  O   UNL     1     109.652 128.839 136.673  0.00  0.00    +0.000 OA
ATOM      4  C   UNL     1     111.622 129.915 137.777  0.00  0.00    +0.000 A 
ATOM      5  C   UNL     1     110.479 127.105 137.825  0.00  0.00    +0.000 A 
ATOM      6  C   UNL     1     110.816 128.756 137.551  0.00  0.00    +0.000 A 
ATOM      7  C   UNL     1     110.973 129.554 137.415  0.00  0.00    +0.000 A 
ATOM      8  C   UNL     1     112.113 129.476 138.274  0.00  0.00    +0.000 A 
ATOM      9  C   UNL     1     111.307 128.318 138.049  0.00  0.00    +0.000 A 
ATOM     10  C   UNL     1     111.153 127.486 138.198  0.00  0.00    +0.000 A 
ATOM     11  C   UNL     1     109.968 127.562 137.307  0.00  0.00    +0.000 A 
ATOM     12  C   UNL     1     110.138 128.393 137.169  0.00  0.00    +0.000 A 
ENDROOT
BRANCH   8  13
ATOM     13  C   UNL     1     112.762 129.836 138.635  0.00  0.00    +0.000 A 
ATOM     14  C   UNL     1     113.425 130.038 138.187  0.00  0.00    +0.000 A 
ATOM     15  C   UNL     1     112.747 129.994 139.445  0.00  0.00    +0.000 A 
ATOM     16  C   UNL     1     114.072 130.397 138.548  0.00  0.00    +0.000 A 
ATOM     17  C   UNL     1     113.396 130.355 139.806  0.00  0.00    +0.000 A 
ATOM     18  C   UNL     1     114.059 130.556 139.358  0.00  0.00    +0.000 A 
BRANCH  18  19
ATOM     19  O   UNL     1     114.707 130.916 139.719  0.00  0.00    +0.000 OA
ATOM     20  C   UNL     1     115.010 130.610 140.423  0.00  0.00    +0.000 C 
ENDBRANCH  18  19
ENDBRANCH   8  13
BRANCH   4  21
ATOM     21  O   UNL     1     111.780 130.713 137.641  0.00  0.00    +0.000 OA
BRANCH  21  30
ATOM     22  O   UNL     1     110.717 131.170 138.479  0.00  0.00    +0.000 OA
ATOM     23  O   UNL     1     110.515 133.219 137.105  0.00  0.00    +0.000 OA
ATOM     24  O   UNL     1     109.519 132.994 138.401  0.00  0.00    +0.000 OA
ATOM     25  O   UNL     1     111.646 132.079 136.725  0.00  0.00    +0.000 OA
ATOM     26  C   UNL     1     110.582 132.536 137.563  0.00  0.00    +0.000 C 
ATOM     27  C   UNL     1     110.084 132.423 138.212  0.00  0.00    +0.000 C 
ATOM     28  C   UNL     1     111.147 131.966 137.373  0.00  0.00    +0.000 C 
ATOM     29  C   UNL     1     110.151 131.740 138.670  0.00  0.00    +0.000 C 
ATOM     30  C   UNL     1     111.214 131.283 137.831  0.00  0.00    +0.000 C 
ATOM     31  C   UNL     1     109.654 131.628 139.317  0.00  0.00    +0.000 C 
ENDBRANCH  21  30
ENDBRANCH   4  21
BRANCH   5  32
ATOM     32  O   UNL     1     110.325 126.307 137.963  0.00  0.00    +0.000 OA
BRANCH  32  41
ATOM     33  O   UNL     1     110.676 125.780 136.682  0.00  0.00    +0.000 OA
ATOM     34  O   UNL     1     111.856 123.901 137.778  0.00  0.00    +0.000 OA
ATOM     35  O   UNL     1     111.814 124.000 136.132  0.00  0.00    +0.000 OA
ATOM     36  O   UNL     1     111.112 125.054 138.694  0.00  0.00    +0.000 OA
ATOM     37  C   UNL     1     111.463 124.527 137.413  0.00  0.00    +0.000 C 
ATOM     38  C   UNL     1     111.441 124.577 136.589  0.00  0.00    +0.000 C 
ATOM     39  C   UNL     1     111.090 125.104 137.871  0.00  0.00    +0.000 C 
ATOM     40  C   UNL     1     111.048 125.203 136.224  0.00  0.00    +0.000 C 
ATOM     41  C   UNL     1     110.697 125.730 137.505  0.00  0.00    +0.000 C 
ATOM     42  C   UNL     1     111.027 125.252 135.401  0.00  0.00    +0.000 C 
ENDBRANCH  32  41
ENDBRANCH   5  32
TORSDOF 6
ENDMDL
MODEL 7
REMARK VINA RESULT:      -9.9      2.396      5.484
REMARK  Name = 44257991
REMARK  6 active torsions:
REMARK  status: ('A' for Active; 'I' for Inactive)
REMARK    1  A    between atoms: O_3  and  C_23
REMARK    2  A    between atoms: O_3  and  C_27
REMARK    3  A    between atoms: O_4  and  C_24
REMARK    4  A    between atoms: O_4  and  C_28
REMARK    5  A    between atoms: O_14  and  C_41
REMARK    6  A    between atoms: C_31  and  C_36
REMARK                            x       y       z     vdW  Elec       q    Type
REMARK                         _______ _______ _______ _____ _____    ______ ____
ROOT
ATOM      1  O   UNL     1     110.218 127.660 136.833  0.00  0.00    +0.000 OA
ATOM      2  O   UNL     1     109.599 128.195 139.169  0.00  0.00    +0.000 OA
ATOM      3  O   UNL     1     110.079 126.911 139.620  0.00  0.00    +0.000 OA
ATOM      4  C   UNL     1     109.667 128.567 137.791  0.00  0.00    +0.000 A 
ATOM      5  C   UNL     1     110.861 125.778 137.853  0.00  0.00    +0.000 A 
ATOM      6  C   UNL     1     110.150 127.288 138.211  0.00  0.00    +0.000 A 
ATOM      7  C   UNL     1     109.805 128.016 138.390  0.00  0.00    +0.000 A 
ATOM      8  C   UNL     1     109.873 128.388 137.012  0.00  0.00    +0.000 A 
ATOM      9  C   UNL     1     110.356 127.111 137.432  0.00  0.00    +0.000 A 
ATOM     10  C   UNL     1     110.714 126.356 137.233  0.00  0.00    +0.000 A 
ATOM     11  C   UNL     1     110.646 125.965 138.664  0.00  0.00    +0.000 A 
ATOM     12  C   UNL     1     110.288 126.724 138.844  0.00  0.00    +0.000 A 
ENDROOT
BRANCH   8  13
ATOM     13  C   UNL     1     109.735 128.938 136.412  0.00  0.00    +0.000 A 
ATOM     14  C   UNL     1     110.366 129.349 136.076  0.00  0.00    +0.000 A 
ATOM     15  C   UNL     1     108.965 129.076 136.150  0.00  0.00    +0.000 A 
ATOM     16  C   UNL     1     110.228 129.899 135.477  0.00  0.00    +0.000 A 
ATOM     17  C   UNL     1     108.827 129.627 135.550  0.00  0.00    +0.000 A 
ATOM     18  C   UNL     1     109.458 130.038 135.214  0.00  0.00    +0.000 A 
BRANCH  18  19
ATOM     19  O   UNL     1     109.320 130.587 134.615  0.00  0.00    +0.000 OA
ATOM     20  C   UNL     1     108.894 131.275 134.776  0.00  0.00    +0.000 C 
ENDBRANCH  18  19
ENDBRANCH   8  13
BRANCH   4  21
ATOM     21  O   UNL     1     109.323 129.295 137.970  0.00  0.00    +0.000 OA
BRANCH  21  30
ATOM     22  O   UNL     1     110.519 129.832 138.538  0.00  0.00    +0.000 OA
ATOM     23  O   UNL     1     109.164 131.300 140.000  0.00  0.00    +0.000 OA
ATOM     24  O   UNL     1     110.812 131.348 140.081  0.00  0.00    +0.000 OA
ATOM     25  O   UNL     1     108.420 130.273 138.944  0.00  0.00    +0.000 OA
ATOM     26  C   UNL     1     109.616 130.811 139.513  0.00  0.00    +0.000 C 
ATOM     27  C   UNL     1     110.440 130.834 139.553  0.00  0.00    +0.000 C 
ATOM     28  C   UNL     1     109.244 130.297 138.985  0.00  0.00    +0.000 C 
ATOM     29  C   UNL     1     110.892 130.345 139.066  0.00  0.00    +0.000 C 
ATOM     30  C   UNL     1     109.696 129.808 138.498  0.00  0.00    +0.000 C 
ATOM     31  C   UNL     1     111.715 130.369 139.107  0.00  0.00    +0.000 C 
ENDBRANCH  21  30
ENDBRANCH   4  21
BRANCH   5  32
ATOM     32  O   UNL     1     111.206 125.051 137.670  0.00  0.00    +0.000 OA
BRANCH  32  41
ATOM     33  O   UNL     1     112.537 125.455 137.995  0.00  0.00    +0.000 OA
ATOM     34  O   UNL     1     113.421 123.950 136.240  0.00  0.00    +0.000 OA
ATOM     35  O   UNL     1     114.459 124.854 137.150  0.00  0.00    +0.000 OA
ATOM     36  O   UNL     1     111.795 124.048 136.500  0.00  0.00    +0.000 OA
ATOM     37  C   UNL     1     113.127 124.452 136.825  0.00  0.00    +0.000 C 
ATOM     38  C   UNL     1     113.645 124.904 137.280  0.00  0.00    +0.000 C 
ATOM     39  C   UNL     1     112.313 124.501 136.955  0.00  0.00    +0.000 C 
ATOM     40  C   UNL     1     113.351 125.405 137.864  0.00  0.00    +0.000 C 
ATOM     41  C   UNL     1     112.019 125.002 137.540  0.00  0.00    +0.000 C 
ATOM     42  C   UNL     1     113.869 125.857 138.320  0.00  0.00    +0.000 C 
ENDBRANCH  32  41
ENDBRANCH   5  32
TORSDOF 6
ENDMDL
MODEL 8
REMARK VINA RESULT:      -9.9      2.603      4.850
REMARK  Name = 44257991
REMARK  6 active torsions:
REMARK  status: ('A' for Active; 'I' for Inactive)
REMARK    1  A    between atoms: O_3  and  C_23
REMARK    2  A    between atoms: O_3  and  C_27
REMARK    3  A    between atoms: O_4  and  C_24
REMARK    4  A    between atoms: O_4  and  C_28
REMARK    5  A    between atoms: O_14  and  C_41
REMARK    6  A    between atoms: C_31  and  C_36
REMARK                            x       y       z     vdW  Elec       q    Type
REMARK                         _______ _______ _______ _____ _____    ______ ____
ROOT
ATOM      1  O   UNL     1     111.961 129.348 135.560  0.00  0.00    +0.000 OA
ATOM      2  O   UNL     1     111.760 126.970 136.215  0.00  0.00    +0.000 OA
ATOM      3  O   UNL     1     110.321 127.045 136.153  0.00  0.00    +0.000 OA
ATOM      4  C   UNL     1     112.573 128.108 135.922  0.00  0.00    +0.000 A 
ATOM      5  C   UNL     1     109.738 129.125 135.558  0.00  0.00    +0.000 A 
ATOM      6  C   UNL     1     111.149 128.210 135.853  0.00  0.00    +0.000 A 
ATOM      7  C   UNL     1     111.827 127.762 135.996  0.00  0.00    +0.000 A 
ATOM      8  C   UNL     1     112.640 128.900 135.703  0.00  0.00    +0.000 A 
ATOM      9  C   UNL     1     111.217 129.002 135.634  0.00  0.00    +0.000 A 
ATOM     10  C   UNL     1     110.518 129.479 135.482  0.00  0.00    +0.000 A 
ATOM     11  C   UNL     1     109.668 128.299 135.786  0.00  0.00    +0.000 A 
ATOM     12  C   UNL     1     110.378 127.839 135.934  0.00  0.00    +0.000 A 
ENDROOT
BRANCH   8  13
ATOM     13  C   UNL     1     113.386 129.246 135.629  0.00  0.00    +0.000 A 
ATOM     14  C   UNL     1     113.661 129.763 136.209  0.00  0.00    +0.000 A 
ATOM     15  C   UNL     1     113.855 129.074 134.973  0.00  0.00    +0.000 A 
ATOM     16  C   UNL     1     114.406 130.108 136.135  0.00  0.00    +0.000 A 
ATOM     17  C   UNL     1     114.602 129.419 134.898  0.00  0.00    +0.000 A 
ATOM     18  C   UNL     1     114.877 129.937 135.479  0.00  0.00    +0.000 A 
BRANCH  18  19
ATOM     19  O   UNL     1     115.622 130.281 135.404  0.00  0.00    +0.000 OA
ATOM     20  C   UNL     1     115.710 130.989 134.989  0.00  0.00    +0.000 C 
ENDBRANCH  18  19
ENDBRANCH   8  13
BRANCH   4  21
ATOM     21  O   UNL     1     113.251 127.661 136.065  0.00  0.00    +0.000 OA
BRANCH  21  30
ATOM     22  O   UNL     1     113.094 127.657 137.486  0.00  0.00    +0.000 OA
ATOM     23  O   UNL     1     114.174 125.433 137.599  0.00  0.00    +0.000 OA
ATOM     24  O   UNL     1     113.657 126.171 138.982  0.00  0.00    +0.000 OA
ATOM     25  O   UNL     1     113.971 126.178 136.141  0.00  0.00    +0.000 OA
ATOM     26  C   UNL     1     113.814 126.174 137.561  0.00  0.00    +0.000 C 
ATOM     27  C   UNL     1     113.555 126.543 138.253  0.00  0.00    +0.000 C 
ATOM     28  C   UNL     1     113.712 126.547 136.833  0.00  0.00    +0.000 C 
ATOM     29  C   UNL     1     113.196 127.285 138.215  0.00  0.00    +0.000 C 
ATOM     30  C   UNL     1     113.352 127.289 136.795  0.00  0.00    +0.000 C 
ATOM     31  C   UNL     1     112.938 127.654 138.906  0.00  0.00    +0.000 C 
ENDBRANCH  21  30
ENDBRANCH   4  21
BRANCH   5  32
ATOM     32  O   UNL     1     109.062 129.575 135.414  0.00  0.00    +0.000 OA
BRANCH  32  41
ATOM     33  O   UNL     1     109.011 130.091 136.745  0.00  0.00    +0.000 OA
ATOM     34  O   UNL     1     107.852 132.115 135.917  0.00  0.00    +0.000 OA
ATOM     35  O   UNL     1     108.188 131.956 137.525  0.00  0.00    +0.000 OA
ATOM     36  O   UNL     1     108.289 130.924 134.862  0.00  0.00    +0.000 OA
ATOM     37  C   UNL     1     108.239 131.440 136.193  0.00  0.00    +0.000 C 
ATOM     38  C   UNL     1     108.407 131.361 136.997  0.00  0.00    +0.000 C 
ATOM     39  C   UNL     1     108.457 130.845 135.666  0.00  0.00    +0.000 C 
ATOM     40  C   UNL     1     108.792 130.687 137.273  0.00  0.00    +0.000 C 
ATOM     41  C   UNL     1     108.844 130.170 135.942  0.00  0.00    +0.000 C 
ATOM     42  C   UNL     1     108.960 130.607 138.077  0.00  0.00    +0.000 C 
ENDBRANCH  32  41
ENDBRANCH   5  32
TORSDOF 6
ENDMDL
MODEL 9
REMARK VINA RESULT:      -9.8      2.114      4.837
REMARK  Name = 44257991
REMARK  6 active torsions:
REMARK  status: ('A' for Active; 'I' for Inactive)
REMARK    1  A    between atoms: O_3  and  C_23
REMARK    2  A    between atoms: O_3  and  C_27
REMARK    3  A    between atoms: O_4  and  C_24
REMARK    4  A    between atoms: O_4  and  C_28
REMARK    5  A    between atoms: O_14  and  C_41
REMARK    6  A    between atoms: C_31  and  C_36
REMARK                            x       y       z     vdW  Elec       q    Type
REMARK                         _______ _______ _______ _____ _____    ______ ____
ROOT
ATOM      1  O   UNL     1     112.213 128.099 136.751  0.00  0.00    +0.000 OA
ATOM      2  O   UNL     1     112.567 128.823 139.091  0.00  0.00    +0.000 OA
ATOM      3  O   UNL     1     111.910 130.081 138.831  0.00  0.00    +0.000 OA
ATOM      4  C   UNL     1     112.718 127.842 138.063  0.00  0.00    +0.000 A 
ATOM      5  C   UNL     1     111.261 130.120 136.687  0.00  0.00    +0.000 A 
ATOM      6  C   UNL     1     112.062 129.081 137.779  0.00  0.00    +0.000 A 
ATOM      7  C   UNL     1     112.449 128.583 138.311  0.00  0.00    +0.000 A 
ATOM      8  C   UNL     1     112.600 127.601 137.283  0.00  0.00    +0.000 A 
ATOM      9  C   UNL     1     111.944 128.838 136.999  0.00  0.00    +0.000 A 
ATOM     10  C   UNL     1     111.543 129.348 136.436  0.00  0.00    +0.000 A 
ATOM     11  C   UNL     1     111.384 130.371 137.500  0.00  0.00    +0.000 A 
ATOM     12  C   UNL     1     111.787 129.848 138.049  0.00  0.00    +0.000 A 
ENDROOT
BRANCH   8  13
ATOM     13  C   UNL     1     112.868 126.861 137.035  0.00  0.00    +0.000 A 
ATOM     14  C   UNL     1     113.675 126.732 136.921  0.00  0.00    +0.000 A 
ATOM     15  C   UNL     1     112.330 126.251 136.901  0.00  0.00    +0.000 A 
ATOM     16  C   UNL     1     113.943 125.993 136.674  0.00  0.00    +0.000 A 
ATOM     17  C   UNL     1     112.599 125.511 136.653  0.00  0.00    +0.000 A 
ATOM     18  C   UNL     1     113.406 125.382 136.539  0.00  0.00    +0.000 A 
BRANCH  18  19
ATOM     19  O   UNL     1     113.674 124.643 136.292  0.00  0.00    +0.000 OA
ATOM     20  C   UNL     1     113.476 123.966 136.721  0.00  0.00    +0.000 C 
ENDBRANCH  18  19
ENDBRANCH   8  13
BRANCH   4  21
ATOM     21  O   UNL     1     113.104 127.344 138.595  0.00  0.00    +0.000 OA
BRANCH  21  30
ATOM     22  O   UNL     1     111.912 126.939 139.270  0.00  0.00    +0.000 OA
ATOM     23  O   UNL     1     113.190 126.680 141.373  0.00  0.00    +0.000 OA
ATOM     24  O   UNL     1     111.571 126.361 141.347  0.00  0.00    +0.000 OA
ATOM     25  O   UNL     1     113.956 127.172 139.997  0.00  0.00    +0.000 OA
ATOM     26  C   UNL     1     112.764 126.766 140.672  0.00  0.00    +0.000 C 
ATOM     27  C   UNL     1     111.954 126.607 140.659  0.00  0.00    +0.000 C 
ATOM     28  C   UNL     1     113.146 127.012 139.984  0.00  0.00    +0.000 C 
ATOM     29  C   UNL     1     111.528 126.693 139.957  0.00  0.00    +0.000 C 
ATOM     30  C   UNL     1     112.720 127.098 139.283  0.00  0.00    +0.000 C 
ATOM     31  C   UNL     1     110.719 126.533 139.944  0.00  0.00    +0.000 C 
ENDBRANCH  21  30
ENDBRANCH   4  21
BRANCH   5  32
ATOM     32  O   UNL     1     110.874 130.615 136.153  0.00  0.00    +0.000 OA
BRANCH  32  41
ATOM     33  O   UNL     1     109.667 129.863 136.013  0.00  0.00    +0.000 OA
ATOM     34  O   UNL     1     108.357 131.963 136.039  0.00  0.00    +0.000 OA
ATOM     35  O   UNL     1     107.586 130.512 135.891  0.00  0.00    +0.000 OA
ATOM     36  O   UNL     1     110.001 132.015 136.170  0.00  0.00    +0.000 OA
ATOM     37  C   UNL     1     108.794 131.263 136.031  0.00  0.00    +0.000 C 
ATOM     38  C   UNL     1     108.408 130.537 135.957  0.00  0.00    +0.000 C 
ATOM     39  C   UNL     1     109.616 131.289 136.096  0.00  0.00    +0.000 C 
ATOM     40  C   UNL     1     108.845 129.838 135.948  0.00  0.00    +0.000 C 
ATOM     41  C   UNL     1     110.052 130.589 136.087  0.00  0.00    +0.000 C 
ATOM     42  C   UNL     1     108.460 129.112 135.874  0.00  0.00    +0.000 C 
ENDBRANCH  32  41
ENDBRANCH   5  32
TORSDOF 6
ENDMDL
MODEL 10
REMARK VINA RESULT:      -9.8      2.427      5.417
REMARK  Name = 44257991
REMARK  6 active torsions:
REMARK  status: ('A' for Active; 'I' for Inactive)
REMARK    1  A    between atoms: O_3  and  C_23
REMARK    2  A    between atoms: O_3  and  C_27
REMARK    3  A    between atoms: O_4  and  C_24
REMARK    4  A    between atoms: O_4  and  C_28
REMARK    5  A    between atoms: O_14  and  C_41
REMARK    6  A    between atoms: C_31  and  C_36
REMARK                            x       y       z     vdW  Elec       q    Type
REMARK                         _______ _______ _______ _____ _____    ______ ____
ROOT
ATOM      1  O   UNL     1     113.456 128.695 137.241  0.00  0.00    +0.000 OA
ATOM      2  O   UNL     1     111.401 129.674 138.212  0.00  0.00    +0.000 OA
ATOM      3  O   UNL     1     111.082 128.428 138.866  0.00  0.00    +0.000 OA
ATOM      4  C   UNL     1     112.574 129.807 137.408  0.00  0.00    +0.000 A 
ATOM      5  C   UNL     1     112.678 126.934 138.376  0.00  0.00    +0.000 A 
ATOM      6  C   UNL     1     112.282 128.561 138.045  0.00  0.00    +0.000 A 
ATOM      7  C   UNL     1     112.086 129.347 137.889  0.00  0.00    +0.000 A 
ATOM      8  C   UNL     1     113.259 129.481 137.085  0.00  0.00    +0.000 A 
ATOM      9  C   UNL     1     112.967 128.236 137.721  0.00  0.00    +0.000 A 
ATOM     10  C   UNL     1     113.183 127.419 137.877  0.00  0.00    +0.000 A 
ATOM     11  C   UNL     1     111.964 127.274 138.713  0.00  0.00    +0.000 A 
ATOM     12  C   UNL     1     111.765 128.093 138.547  0.00  0.00    +0.000 A 
ENDROOT
BRANCH   8  13
ATOM     13  C   UNL     1     113.748 129.941 136.604  0.00  0.00    +0.000 A 
ATOM     14  C   UNL     1     114.205 130.543 136.936  0.00  0.00    +0.000 A 
ATOM     15  C   UNL     1     113.780 129.798 135.792  0.00  0.00    +0.000 A 
ATOM     16  C   UNL     1     114.693 131.002 136.456  0.00  0.00    +0.000 A 
ATOM     17  C   UNL     1     114.269 130.258 135.312  0.00  0.00    +0.000 A 
ATOM     18  C   UNL     1     114.725 130.860 135.644  0.00  0.00    +0.000 A 
BRANCH  18  19
ATOM     19  O   UNL     1     115.213 131.319 135.163  0.00  0.00    +0.000 OA
ATOM     20  C   UNL     1     115.710 130.958 134.612  0.00  0.00    +0.000 C 
ENDBRANCH  18  19
ENDBRANCH   8  13
BRANCH   4  21
ATOM     21  O   UNL     1     112.378 130.593 137.252  0.00  0.00    +0.000 OA
BRANCH  21  30
ATOM     22  O   UNL     1     111.346 130.266 136.320  0.00  0.00    +0.000 OA
ATOM     23  O   UNL     1     110.134 132.334 136.934  0.00  0.00    +0.000 OA
ATOM     24  O   UNL     1     109.506 131.317 135.797  0.00  0.00    +0.000 OA
ATOM     25  O   UNL     1     111.570 131.972 137.662  0.00  0.00    +0.000 OA
ATOM     26  C   UNL     1     110.538 131.645 136.729  0.00  0.00    +0.000 C 
ATOM     27  C   UNL     1     110.224 131.136 136.160  0.00  0.00    +0.000 C 
ATOM     28  C   UNL     1     111.256 131.463 137.093  0.00  0.00    +0.000 C 
ATOM     29  C   UNL     1     110.628 130.446 135.955  0.00  0.00    +0.000 C 
ATOM     30  C   UNL     1     111.660 130.774 136.888  0.00  0.00    +0.000 C 
ATOM     31  C   UNL     1     110.313 129.938 135.387  0.00  0.00    +0.000 C 
ENDBRANCH  21  30
ENDBRANCH   4  21
BRANCH   5  32
ATOM     32  O   UNL     1     112.878 126.149 138.530  0.00  0.00    +0.000 OA
BRANCH  32  41
ATOM     33  O   UNL     1     112.020 125.486 137.599  0.00  0.00    +0.000 OA
ATOM     34  O   UNL     1     113.894 124.020 136.917  0.00  0.00    +0.000 OA
ATOM     35  O   UNL     1     112.413 123.846 136.213  0.00  0.00    +0.000 OA
ATOM     36  O   UNL     1     114.127 125.171 138.076  0.00  0.00    +0.000 OA
ATOM     37  C   UNL     1     113.269 124.509 137.145  0.00  0.00    +0.000 C 
ATOM     38  C   UNL     1     112.528 124.422 136.792  0.00  0.00    +0.000 C 
ATOM     39  C   UNL     1     113.386 125.084 137.724  0.00  0.00    +0.000 C 
ATOM     40  C   UNL     1     111.904 124.910 137.019  0.00  0.00    +0.000 C 
ATOM     41  C   UNL     1     112.761 125.573 137.951  0.00  0.00    +0.000 C 
ATOM     42  C   UNL     1     111.163 124.823 136.667  0.00  0.00    +0.000 C 
ENDBRANCH  32  41
ENDBRANCH   5  32
TORSDOF 6
ENDMDL
