MODEL 1
REMARK VINA RESULT:      -9.9      0.000      0.000
REMARK  Name = 14345562
REMARK  3 active torsions:
REMARK  status: ('A' for Active; 'I' for Inactive)
REMARK    1  A    between atoms: C_12  and  C_17
REMARK    2  A    between atoms: C_16  and  C_23
REMARK    3  A    between atoms: C_21  and  C_27
REMARK                            x       y       z     vdW  Elec       q    Type
REMARK                         _______ _______ _______ _____ _____    ______ ____
ROOT
ATOM      1  O   UNL     1     105.262 125.081 147.653  0.00  0.00    +0.000 OA
ATOM      2  O   UNL     1     104.409 124.398 149.609  0.00  0.00    +0.000 OA
ATOM      3  O   UNL     1     108.005 125.418 146.840  0.00  0.00    +0.000 OA
ATOM      4  O   UNL     1     107.426 124.507 149.488  0.00  0.00    +0.000 OA
ATOM      5  C   UNL     1     106.649 125.247 147.256  0.00  0.00    +0.000 A 
ATOM      6  C   UNL     1     106.101 125.038 147.836  0.00  0.00    +0.000 A 
ATOM      7  C   UNL     1     106.360 124.791 148.580  0.00  0.00    +0.000 A 
ATOM      8  C   UNL     1     104.955 124.608 149.027  0.00  0.00    +0.000 C 
ATOM      9  C   UNL     1     104.686 124.865 148.253  0.00  0.00    +0.000 C 
ATOM     10  C   UNL     1     105.798 124.571 149.192  0.00  0.00    +0.000 C 
ATOM     11  C   UNL     1     107.456 125.209 147.421  0.00  0.00    +0.000 A 
ATOM     12  C   UNL     1     107.167 124.754 148.743  0.00  0.00    +0.000 A 
ATOM     13  C   UNL     1     107.715 124.963 148.164  0.00  0.00    +0.000 A 
ENDROOT
BRANCH   5  18
ATOM     14  O   UNL     1     106.192 124.935 145.939  0.00  0.00    +0.000 OA
ATOM     15  O   UNL     1     106.527 126.857 146.918  0.00  0.00    +0.000 OA
ATOM     16  O   UNL     1     106.009 127.350 145.431  0.00  0.00    +0.000 OA
ATOM     17  O   UNL     1     105.612 126.233 144.282  0.00  0.00    +0.000 OA
ATOM     18  C   UNL     1     106.390 125.493 146.514  0.00  0.00    +0.000 C 
ATOM     19  C   UNL     1     106.328 126.298 146.343  0.00  0.00    +0.000 C 
ATOM     20  C   UNL     1     106.069 126.544 145.600  0.00  0.00    +0.000 C 
ATOM     21  C   UNL     1     105.872 125.986 145.027  0.00  0.00    +0.000 C 
ATOM     22  C   UNL     1     105.933 125.182 145.196  0.00  0.00    +0.000 C 
BRANCH  22  24
ATOM     23  O   UNL     1     105.521 123.857 144.848  0.00  0.00    +0.000 OA
ATOM     24  C   UNL     1     105.735 124.622 144.622  0.00  0.00    +0.000 C 
ENDBRANCH  22  24
ENDBRANCH   5  18
BRANCH   9  27
ATOM     25  O   UNL     1     102.316 123.664 147.198  0.00  0.00    +0.000 OA
ATOM     26  O   UNL     1     101.457 125.018 147.586  0.00  0.00    +0.000 OA
ATOM     27  C   UNL     1     103.879 124.903 148.086  0.00  0.00    +0.000 A 
ATOM     28  C   UNL     1     103.501 124.265 147.725  0.00  0.00    +0.000 A 
ATOM     29  C   UNL     1     103.449 125.580 148.280  0.00  0.00    +0.000 A 
ATOM     30  C   UNL     1     102.693 124.302 147.558  0.00  0.00    +0.000 A 
ATOM     31  C   UNL     1     102.641 125.618 148.113  0.00  0.00    +0.000 A 
ATOM     32  C   UNL     1     102.264 124.979 147.753  0.00  0.00    +0.000 A 
ENDBRANCH   9  27
TORSDOF 3
ENDMDL
MODEL 2
REMARK VINA RESULT:      -9.8     12.214     13.621
REMARK  Name = 14345562
REMARK  3 active torsions:
REMARK  status: ('A' for Active; 'I' for Inactive)
REMARK    1  A    between atoms: C_12  and  C_17
REMARK    2  A    between atoms: C_16  and  C_23
REMARK    3  A    between atoms: C_21  and  C_27
REMARK                            x       y       z     vdW  Elec       q    Type
REMARK                         _______ _______ _______ _____ _____    ______ ____
ROOT
ATOM      1  O   UNL     1     111.985 126.631 136.097  0.00  0.00    +0.000 OA
ATOM      2  O   UNL     1     111.968 124.407 136.371  0.00  0.00    +0.000 OA
ATOM      3  O   UNL     1     110.196 128.332 134.612  0.00  0.00    +0.000 OA
ATOM      4  O   UNL     1     109.742 125.510 134.652  0.00  0.00    +0.000 OA
ATOM      5  C   UNL     1     111.076 127.477 135.345  0.00  0.00    +0.000 A 
ATOM      6  C   UNL     1     111.293 126.722 135.595  0.00  0.00    +0.000 A 
ATOM      7  C   UNL     1     110.848 126.066 135.365  0.00  0.00    +0.000 A 
ATOM      8  C   UNL     1     111.753 125.164 136.121  0.00  0.00    +0.000 C 
ATOM      9  C   UNL     1     112.216 125.847 136.362  0.00  0.00    +0.000 C 
ATOM     10  C   UNL     1     111.065 125.274 135.620  0.00  0.00    +0.000 C 
ATOM     11  C   UNL     1     110.414 127.576 134.863  0.00  0.00    +0.000 A 
ATOM     12  C   UNL     1     110.187 126.166 134.883  0.00  0.00    +0.000 A 
ATOM     13  C   UNL     1     109.969 126.921 134.632  0.00  0.00    +0.000 A 
ENDROOT
BRANCH   5  18
ATOM     14  O   UNL     1     112.203 128.334 135.161  0.00  0.00    +0.000 OA
ATOM     15  O   UNL     1     110.598 128.383 136.638  0.00  0.00    +0.000 OA
ATOM     16  O   UNL     1     111.487 129.694 137.099  0.00  0.00    +0.000 OA
ATOM     17  O   UNL     1     112.854 130.099 136.269  0.00  0.00    +0.000 OA
ATOM     18  C   UNL     1     111.520 128.132 135.576  0.00  0.00    +0.000 C 
ATOM     19  C   UNL     1     111.282 128.585 136.222  0.00  0.00    +0.000 C 
ATOM     20  C   UNL     1     111.726 129.241 136.453  0.00  0.00    +0.000 C 
ATOM     21  C   UNL     1     112.409 129.443 136.037  0.00  0.00    +0.000 C 
ATOM     22  C   UNL     1     112.648 128.990 135.391  0.00  0.00    +0.000 C 
BRANCH  22  24
ATOM     23  O   UNL     1     113.993 128.696 135.004  0.00  0.00    +0.000 OA
ATOM     24  C   UNL     1     113.332 129.191 134.975  0.00  0.00    +0.000 C 
ENDBRANCH  22  24
ENDBRANCH   5  18
BRANCH   9  27
ATOM     25  O   UNL     1     113.436 125.956 138.945  0.00  0.00    +0.000 OA
ATOM     26  O   UNL     1     114.867 125.459 138.290  0.00  0.00    +0.000 OA
ATOM     27  C   UNL     1     112.879 125.750 136.844  0.00  0.00    +0.000 A 
ATOM     28  C   UNL     1     112.826 125.901 137.653  0.00  0.00    +0.000 A 
ATOM     29  C   UNL     1     113.594 125.502 136.517  0.00  0.00    +0.000 A 
ATOM     30  C   UNL     1     113.489 125.805 138.136  0.00  0.00    +0.000 A 
ATOM     31  C   UNL     1     114.257 125.405 136.999  0.00  0.00    +0.000 A 
ATOM     32  C   UNL     1     114.204 125.556 137.808  0.00  0.00    +0.000 A 
ENDBRANCH   9  27
TORSDOF 3
ENDMDL
MODEL 3
REMARK VINA RESULT:      -9.8     11.090     13.639
REMARK  Name = 14345562
REMARK  3 active torsions:
REMARK  status: ('A' for Active; 'I' for Inactive)
REMARK    1  A    between atoms: C_12  and  C_17
REMARK    2  A    between atoms: C_16  and  C_23
REMARK    3  A    between atoms: C_21  and  C_27
REMARK                            x       y       z     vdW  Elec       q    Type
REMARK                         _______ _______ _______ _____ _____    ______ ____
ROOT
ATOM      1  O   UNL     1     112.157 127.095 136.196  0.00  0.00    +0.000 OA
ATOM      2  O   UNL     1     111.137 128.424 134.708  0.00  0.00    +0.000 OA
ATOM      3  O   UNL     1     111.697 124.322 136.829  0.00  0.00    +0.000 OA
ATOM      4  O   UNL     1     110.105 125.587 134.819  0.00  0.00    +0.000 OA
ATOM      5  C   UNL     1     111.915 125.697 136.506  0.00  0.00    +0.000 A 
ATOM      6  C   UNL     1     111.722 126.366 136.063  0.00  0.00    +0.000 A 
ATOM      7  C   UNL     1     111.119 126.329 135.501  0.00  0.00    +0.000 A 
ATOM      8  C   UNL     1     111.333 127.757 135.153  0.00  0.00    +0.000 C 
ATOM      9  C   UNL     1     111.961 127.795 135.738  0.00  0.00    +0.000 C 
ATOM     10  C   UNL     1     110.909 127.019 135.033  0.00  0.00    +0.000 C 
ATOM     11  C   UNL     1     111.504 124.992 136.386  0.00  0.00    +0.000 A 
ATOM     12  C   UNL     1     110.709 125.624 135.382  0.00  0.00    +0.000 A 
ATOM     13  C   UNL     1     110.902 124.955 135.824  0.00  0.00    +0.000 A 
ENDROOT
BRANCH   5  18
ATOM     14  O   UNL     1     112.363 126.035 137.819  0.00  0.00    +0.000 OA
ATOM     15  O   UNL     1     113.430 125.168 136.124  0.00  0.00    +0.000 OA
ATOM     16  O   UNL     1     114.636 125.242 137.248  0.00  0.00    +0.000 OA
ATOM     17  O   UNL     1     114.327 125.844 138.753  0.00  0.00    +0.000 OA
ATOM     18  C   UNL     1     112.517 125.734 137.067  0.00  0.00    +0.000 C 
ATOM     19  C   UNL     1     113.275 125.470 136.877  0.00  0.00    +0.000 C 
ATOM     20  C   UNL     1     113.878 125.506 137.439  0.00  0.00    +0.000 C 
ATOM     21  C   UNL     1     113.723 125.807 138.191  0.00  0.00    +0.000 C 
ATOM     22  C   UNL     1     112.966 126.072 138.381  0.00  0.00    +0.000 C 
BRANCH  22  24
ATOM     23  O   UNL     1     112.130 126.139 139.539  0.00  0.00    +0.000 OA
ATOM     24  C   UNL     1     112.810 126.373 139.133  0.00  0.00    +0.000 C 
ENDBRANCH  22  24
ENDBRANCH   5  18
BRANCH   9  27
ATOM     25  O   UNL     1     114.203 129.478 135.182  0.00  0.00    +0.000 OA
ATOM     26  O   UNL     1     113.609 130.613 136.223  0.00  0.00    +0.000 OA
ATOM     27  C   UNL     1     112.372 128.500 135.859  0.00  0.00    +0.000 A 
ATOM     28  C   UNL     1     113.081 128.637 135.461  0.00  0.00    +0.000 A 
ATOM     29  C   UNL     1     112.076 129.067 136.379  0.00  0.00    +0.000 A 
ATOM     30  C   UNL     1     113.494 129.341 135.581  0.00  0.00    +0.000 A 
ATOM     31  C   UNL     1     112.488 129.772 136.500  0.00  0.00    +0.000 A 
ATOM     32  C   UNL     1     113.197 129.909 136.101  0.00  0.00    +0.000 A 
ENDBRANCH   9  27
TORSDOF 3
ENDMDL
MODEL 4
REMARK VINA RESULT:      -9.5     11.245     12.996
REMARK  Name = 14345562
REMARK  3 active torsions:
REMARK  status: ('A' for Active; 'I' for Inactive)
REMARK    1  A    between atoms: C_12  and  C_17
REMARK    2  A    between atoms: C_16  and  C_23
REMARK    3  A    between atoms: C_21  and  C_27
REMARK                            x       y       z     vdW  Elec       q    Type
REMARK                         _______ _______ _______ _____ _____    ______ ____
ROOT
ATOM      1  O   UNL     1     111.755 127.606 136.253  0.00  0.00    +0.000 OA
ATOM      2  O   UNL     1     111.481 129.515 135.112  0.00  0.00    +0.000 OA
ATOM      3  O   UNL     1     114.167 126.210 136.983  0.00  0.00    +0.000 OA
ATOM      4  O   UNL     1     114.349 128.648 135.501  0.00  0.00    +0.000 OA
ATOM      5  C   UNL     1     112.979 126.912 136.615  0.00  0.00    +0.000 A 
ATOM      6  C   UNL     1     112.613 127.553 136.245  0.00  0.00    +0.000 A 
ATOM      7  C   UNL     1     113.070 128.131 135.874  0.00  0.00    +0.000 A 
ATOM      8  C   UNL     1     111.844 128.873 135.483  0.00  0.00    +0.000 C 
ATOM      9  C   UNL     1     111.369 128.271 135.870  0.00  0.00    +0.000 C 
ATOM     10  C   UNL     1     112.700 128.803 135.485  0.00  0.00    +0.000 C 
ATOM     11  C   UNL     1     113.801 126.851 136.613  0.00  0.00    +0.000 A 
ATOM     12  C   UNL     1     113.892 128.069 135.873  0.00  0.00    +0.000 A 
ATOM     13  C   UNL     1     114.258 127.429 136.242  0.00  0.00    +0.000 A 
ENDROOT
BRANCH   5  18
ATOM     14  O   UNL     1     112.197 125.719 136.543  0.00  0.00    +0.000 OA
ATOM     15  O   UNL     1     112.716 126.988 138.241  0.00  0.00    +0.000 OA
ATOM     16  O   UNL     1     111.802 125.831 138.983  0.00  0.00    +0.000 OA
ATOM     17  O   UNL     1     111.152 124.599 138.098  0.00  0.00    +0.000 OA
ATOM     18  C   UNL     1     112.523 126.335 136.985  0.00  0.00    +0.000 C 
ATOM     19  C   UNL     1     112.390 126.371 137.798  0.00  0.00    +0.000 C 
ATOM     20  C   UNL     1     111.934 125.793 138.169  0.00  0.00    +0.000 C 
ATOM     21  C   UNL     1     111.609 125.178 137.727  0.00  0.00    +0.000 C 
ATOM     22  C   UNL     1     111.741 125.140 136.914  0.00  0.00    +0.000 C 
BRANCH  22  24
ATOM     23  O   UNL     1     111.105 124.676 135.721  0.00  0.00    +0.000 OA
ATOM     24  C   UNL     1     111.416 124.525 136.471  0.00  0.00    +0.000 C 
ENDBRANCH  22  24
ENDBRANCH   5  18
BRANCH   9  27
ATOM     25  O   UNL     1     108.952 129.114 137.143  0.00  0.00    +0.000 OA
ATOM     26  O   UNL     1     108.077 128.509 135.881  0.00  0.00    +0.000 OA
ATOM     27  C   UNL     1     110.546 128.330 135.872  0.00  0.00    +0.000 A 
ATOM     28  C   UNL     1     110.161 128.692 136.506  0.00  0.00    +0.000 A 
ATOM     29  C   UNL     1     110.108 128.028 135.242  0.00  0.00    +0.000 A 
ATOM     30  C   UNL     1     109.337 128.752 136.509  0.00  0.00    +0.000 A 
ATOM     31  C   UNL     1     109.285 128.088 135.245  0.00  0.00    +0.000 A 
ATOM     32  C   UNL     1     108.900 128.450 135.879  0.00  0.00    +0.000 A 
ENDBRANCH   9  27
TORSDOF 3
ENDMDL
MODEL 5
REMARK VINA RESULT:      -9.5     10.639     13.133
REMARK  Name = 14345562
REMARK  3 active torsions:
REMARK  status: ('A' for Active; 'I' for Inactive)
REMARK    1  A    between atoms: C_12  and  C_17
REMARK    2  A    between atoms: C_16  and  C_23
REMARK    3  A    between atoms: C_21  and  C_27
REMARK                            x       y       z     vdW  Elec       q    Type
REMARK                         _______ _______ _______ _____ _____    ______ ____
ROOT
ATOM      1  O   UNL     1     112.513 126.592 136.655  0.00  0.00    +0.000 OA
ATOM      2  O   UNL     1     114.632 127.182 136.230  0.00  0.00    +0.000 OA
ATOM      3  O   UNL     1     111.377 123.993 137.165  0.00  0.00    +0.000 OA
ATOM      4  O   UNL     1     114.183 124.227 136.669  0.00  0.00    +0.000 OA
ATOM      5  C   UNL     1     111.953 125.276 136.910  0.00  0.00    +0.000 A 
ATOM      6  C   UNL     1     112.613 125.742 136.743  0.00  0.00    +0.000 A 
ATOM      7  C   UNL     1     113.356 125.393 136.663  0.00  0.00    +0.000 A 
ATOM      8  C   UNL     1     113.970 126.719 136.397  0.00  0.00    +0.000 C 
ATOM      9  C   UNL     1     113.196 127.082 136.481  0.00  0.00    +0.000 C 
ATOM     10  C   UNL     1     114.051 125.868 136.489  0.00  0.00    +0.000 C 
ATOM     11  C   UNL     1     112.037 124.460 136.997  0.00  0.00    +0.000 A 
ATOM     12  C   UNL     1     113.439 124.577 136.750  0.00  0.00    +0.000 A 
ATOM     13  C   UNL     1     112.780 124.111 136.917  0.00  0.00    +0.000 A 
ENDROOT
BRANCH   5  18
ATOM     14  O   UNL     1     110.764 125.803 136.321  0.00  0.00    +0.000 OA
ATOM     15  O   UNL     1     111.362 125.620 138.412  0.00  0.00    +0.000 OA
ATOM     16  O   UNL     1     109.877 126.319 138.572  0.00  0.00    +0.000 OA
ATOM     17  O   UNL     1     108.981 126.674 137.232  0.00  0.00    +0.000 OA
ATOM     18  C   UNL     1     111.211 125.625 136.991  0.00  0.00    +0.000 C 
ATOM     19  C   UNL     1     110.915 125.798 137.741  0.00  0.00    +0.000 C 
ATOM     20  C   UNL     1     110.172 126.147 137.821  0.00  0.00    +0.000 C 
ATOM     21  C   UNL     1     109.725 126.324 137.151  0.00  0.00    +0.000 C 
ATOM     22  C   UNL     1     110.021 126.152 136.401  0.00  0.00    +0.000 C 
BRANCH  22  24
ATOM     23  O   UNL     1     109.651 125.867 135.050  0.00  0.00    +0.000 OA
ATOM     24  C   UNL     1     109.574 126.329 135.730  0.00  0.00    +0.000 C 
ENDBRANCH  22  24
ENDBRANCH   5  18
BRANCH   9  27
ATOM     25  O   UNL     1     112.634 129.352 134.835  0.00  0.00    +0.000 OA
ATOM     26  O   UNL     1     112.851 130.346 136.134  0.00  0.00    +0.000 OA
ATOM     27  C   UNL     1     113.110 127.898 136.394  0.00  0.00    +0.000 A 
ATOM     28  C   UNL     1     112.915 128.217 135.658  0.00  0.00    +0.000 A 
ATOM     29  C   UNL     1     113.218 128.396 137.043  0.00  0.00    +0.000 A 
ATOM     30  C   UNL     1     112.829 129.033 135.571  0.00  0.00    +0.000 A 
ATOM     31  C   UNL     1     113.132 129.212 136.956  0.00  0.00    +0.000 A 
ATOM     32  C   UNL     1     112.937 129.531 136.220  0.00  0.00    +0.000 A 
ENDBRANCH   9  27
TORSDOF 3
ENDMDL
MODEL 6
REMARK VINA RESULT:      -9.5      1.614      3.152
REMARK  Name = 14345562
REMARK  3 active torsions:
REMARK  status: ('A' for Active; 'I' for Inactive)
REMARK    1  A    between atoms: C_12  and  C_17
REMARK    2  A    between atoms: C_16  and  C_23
REMARK    3  A    between atoms: C_21  and  C_27
REMARK                            x       y       z     vdW  Elec       q    Type
REMARK                         _______ _______ _______ _____ _____    ______ ____
ROOT
ATOM      1  O   UNL     1     104.126 125.714 147.182  0.00  0.00    +0.000 OA
ATOM      2  O   UNL     1     102.483 125.994 148.679  0.00  0.00    +0.000 OA
ATOM      3  O   UNL     1     104.614 123.551 145.344  0.00  0.00    +0.000 OA
ATOM      4  O   UNL     1     102.344 123.436 147.077  0.00  0.00    +0.000 OA
ATOM      5  C   UNL     1     104.361 124.617 146.260  0.00  0.00    +0.000 A 
ATOM      6  C   UNL     1     103.898 124.953 146.855  0.00  0.00    +0.000 A 
ATOM      7  C   UNL     1     103.226 124.559 147.127  0.00  0.00    +0.000 A 
ATOM      8  C   UNL     1     102.948 125.660 148.085  0.00  0.00    +0.000 C 
ATOM      9  C   UNL     1     103.648 126.070 147.801  0.00  0.00    +0.000 C 
ATOM     10  C   UNL     1     102.736 124.900 147.746  0.00  0.00    +0.000 C 
ATOM     11  C   UNL     1     104.151 123.887 145.939  0.00  0.00    +0.000 A 
ATOM     12  C   UNL     1     103.017 123.830 146.805  0.00  0.00    +0.000 A 
ATOM     13  C   UNL     1     103.479 123.494 146.211  0.00  0.00    +0.000 A 
ENDROOT
BRANCH   5  18
ATOM     14  O   UNL     1     104.961 125.606 145.422  0.00  0.00    +0.000 OA
ATOM     15  O   UNL     1     105.848 124.213 146.849  0.00  0.00    +0.000 OA
ATOM     16  O   UNL     1     107.192 125.000 146.305  0.00  0.00    +0.000 OA
ATOM     17  O   UNL     1     107.049 126.192 145.172  0.00  0.00    +0.000 OA
ATOM     18  C   UNL     1     105.032 125.010 145.989  0.00  0.00    +0.000 C 
ATOM     19  C   UNL     1     105.776 124.809 146.282  0.00  0.00    +0.000 C 
ATOM     20  C   UNL     1     106.448 125.203 146.010  0.00  0.00    +0.000 C 
ATOM     21  C   UNL     1     106.376 125.798 145.444  0.00  0.00    +0.000 C 
ATOM     22  C   UNL     1     105.633 126.000 145.150  0.00  0.00    +0.000 C 
BRANCH  22  24
ATOM     23  O   UNL     1     105.246 126.421 143.840  0.00  0.00    +0.000 OA
ATOM     24  C   UNL     1     105.560 126.595 144.584  0.00  0.00    +0.000 C 
ENDBRANCH  22  24
ENDBRANCH   5  18
BRANCH   9  27
ATOM     25  O   UNL     1     105.233 127.613 149.612  0.00  0.00    +0.000 OA
ATOM     26  O   UNL     1     104.495 128.991 149.083  0.00  0.00    +0.000 OA
ATOM     27  C   UNL     1     103.860 126.800 148.122  0.00  0.00    +0.000 A 
ATOM     28  C   UNL     1     104.440 126.841 148.706  0.00  0.00    +0.000 A 
ATOM     29  C   UNL     1     103.491 127.489 147.858  0.00  0.00    +0.000 A 
ATOM     30  C   UNL     1     104.653 127.572 149.027  0.00  0.00    +0.000 A 
ATOM     31  C   UNL     1     103.703 128.219 148.179  0.00  0.00    +0.000 A 
ATOM     32  C   UNL     1     104.283 128.260 148.763  0.00  0.00    +0.000 A 
ENDBRANCH   9  27
TORSDOF 3
ENDMDL
MODEL 7
REMARK VINA RESULT:      -9.5     11.816     12.890
REMARK  Name = 14345562
REMARK  3 active torsions:
REMARK  status: ('A' for Active; 'I' for Inactive)
REMARK    1  A    between atoms: C_12  and  C_17
REMARK    2  A    between atoms: C_16  and  C_23
REMARK    3  A    between atoms: C_21  and  C_27
REMARK                            x       y       z     vdW  Elec       q    Type
REMARK                         _______ _______ _______ _____ _____    ______ ____
ROOT
ATOM      1  O   UNL     1     111.328 126.582 136.229  0.00  0.00    +0.000 OA
ATOM      2  O   UNL     1     109.708 125.677 134.974  0.00  0.00    +0.000 OA
ATOM      3  O   UNL     1     113.558 125.337 137.562  0.00  0.00    +0.000 OA
ATOM      4  O   UNL     1     111.740 123.722 136.058  0.00  0.00    +0.000 OA
ATOM      5  C   UNL     1     112.448 125.942 136.896  0.00  0.00    +0.000 A 
ATOM      6  C   UNL     1     111.775 125.874 136.424  0.00  0.00    +0.000 A 
ATOM      7  C   UNL     1     111.539 125.135 136.145  0.00  0.00    +0.000 A 
ATOM      8  C   UNL     1     110.381 125.748 135.447  0.00  0.00    +0.000 C 
ATOM      9  C   UNL     1     110.626 126.518 135.738  0.00  0.00    +0.000 C 
ATOM     10  C   UNL     1     110.840 125.052 135.652  0.00  0.00    +0.000 C 
ATOM     11  C   UNL     1     112.884 125.269 137.089  0.00  0.00    +0.000 A 
ATOM     12  C   UNL     1     111.976 124.463 136.338  0.00  0.00    +0.000 A 
ATOM     13  C   UNL     1     112.649 124.530 136.810  0.00  0.00    +0.000 A 
ENDROOT
BRANCH   5  18
ATOM     14  O   UNL     1     113.114 127.188 136.688  0.00  0.00    +0.000 OA
ATOM     15  O   UNL     1     112.058 126.406 138.430  0.00  0.00    +0.000 OA
ATOM     16  O   UNL     1     112.529 127.886 138.989  0.00  0.00    +0.000 OA
ATOM     17  O   UNL     1     113.391 128.901 138.013  0.00  0.00    +0.000 OA
ATOM     18  C   UNL     1     112.683 126.681 137.175  0.00  0.00    +0.000 C 
ATOM     19  C   UNL     1     112.489 126.914 137.942  0.00  0.00    +0.000 C 
ATOM     20  C   UNL     1     112.725 127.654 138.221  0.00  0.00    +0.000 C 
ATOM     21  C   UNL     1     113.155 128.160 137.734  0.00  0.00    +0.000 C 
ATOM     22  C   UNL     1     113.350 127.928 136.967  0.00  0.00    +0.000 C 
BRANCH  22  24
ATOM     23  O   UNL     1     114.135 128.143 135.792  0.00  0.00    +0.000 OA
ATOM     24  C   UNL     1     113.780 128.435 136.478  0.00  0.00    +0.000 C 
ENDBRANCH  22  24
ENDBRANCH   5  18
BRANCH   9  27
ATOM     25  O   UNL     1     108.533 128.368 136.343  0.00  0.00    +0.000 OA
ATOM     26  O   UNL     1     108.884 129.215 134.971  0.00  0.00    +0.000 OA
ATOM     27  C   UNL     1     110.191 127.192 135.546  0.00  0.00    +0.000 A 
ATOM     28  C   UNL     1     109.580 127.443 136.040  0.00  0.00    +0.000 A 
ATOM     29  C   UNL     1     110.366 127.616 134.861  0.00  0.00    +0.000 A 
ATOM     30  C   UNL     1     109.144 128.117 135.849  0.00  0.00    +0.000 A 
ATOM     31  C   UNL     1     109.931 128.290 134.669  0.00  0.00    +0.000 A 
ATOM     32  C   UNL     1     109.320 128.541 135.163  0.00  0.00    +0.000 A 
ENDBRANCH   9  27
TORSDOF 3
ENDMDL
MODEL 8
REMARK VINA RESULT:      -9.3     11.868     13.194
REMARK  Name = 14345562
REMARK  3 active torsions:
REMARK  status: ('A' for Active; 'I' for Inactive)
REMARK    1  A    between atoms: C_12  and  C_17
REMARK    2  A    between atoms: C_16  and  C_23
REMARK    3  A    between atoms: C_21  and  C_27
REMARK                            x       y       z     vdW  Elec       q    Type
REMARK                         _______ _______ _______ _____ _____    ______ ____
ROOT
ATOM      1  O   UNL     1     110.330 127.915 135.967  0.00  0.00    +0.000 OA
ATOM      2  O   UNL     1     108.566 126.540 135.848  0.00  0.00    +0.000 OA
ATOM      3  O   UNL     1     110.442 130.794 135.991  0.00  0.00    +0.000 OA
ATOM      4  O   UNL     1     107.904 129.488 135.824  0.00  0.00    +0.000 OA
ATOM      5  C   UNL     1     110.373 129.367 135.978  0.00  0.00    +0.000 A 
ATOM      6  C   UNL     1     109.926 128.674 135.946  0.00  0.00    +0.000 A 
ATOM      7  C   UNL     1     109.104 128.714 135.895  0.00  0.00    +0.000 A 
ATOM      8  C   UNL     1     109.015 127.232 135.881  0.00  0.00    +0.000 C 
ATOM      9  C   UNL     1     109.871 127.190 135.934  0.00  0.00    +0.000 C 
ATOM     10  C   UNL     1     108.629 127.999 135.861  0.00  0.00    +0.000 C 
ATOM     11  C   UNL     1     109.995 130.100 135.959  0.00  0.00    +0.000 A 
ATOM     12  C   UNL     1     108.728 129.447 135.875  0.00  0.00    +0.000 A 
ATOM     13  C   UNL     1     109.173 130.140 135.907  0.00  0.00    +0.000 A 
ENDROOT
BRANCH   5  18
ATOM     14  O   UNL     1     111.558 129.228 136.763  0.00  0.00    +0.000 OA
ATOM     15  O   UNL     1     111.290 129.484 134.612  0.00  0.00    +0.000 OA
ATOM     16  O   UNL     1     112.935 129.403 134.715  0.00  0.00    +0.000 OA
ATOM     17  O   UNL     1     113.662 129.205 136.183  0.00  0.00    +0.000 OA
ATOM     18  C   UNL     1     111.194 129.326 136.029  0.00  0.00    +0.000 C 
ATOM     19  C   UNL     1     111.654 129.385 135.347  0.00  0.00    +0.000 C 
ATOM     20  C   UNL     1     112.476 129.345 135.398  0.00  0.00    +0.000 C 
ATOM     21  C   UNL     1     112.839 129.246 136.132  0.00  0.00    +0.000 C 
ATOM     22  C   UNL     1     112.380 129.187 136.814  0.00  0.00    +0.000 C 
BRANCH  22  24
ATOM     23  O   UNL     1     112.347 129.314 138.238  0.00  0.00    +0.000 OA
ATOM     24  C   UNL     1     112.743 129.089 137.549  0.00  0.00    +0.000 C 
ENDBRANCH  22  24
ENDBRANCH   5  18
BRANCH   9  27
ATOM     25  O   UNL     1     111.047 125.050 137.421  0.00  0.00    +0.000 OA
ATOM     26  O   UNL     1     111.388 124.260 136.013  0.00  0.00    +0.000 OA
ATOM     27  C   UNL     1     110.251 126.457 135.953  0.00  0.00    +0.000 A 
ATOM     28  C   UNL     1     110.459 126.120 136.677  0.00  0.00    +0.000 A 
ATOM     29  C   UNL     1     110.422 126.062 135.250  0.00  0.00    +0.000 A 
ATOM     30  C   UNL     1     110.838 125.387 136.697  0.00  0.00    +0.000 A 
ATOM     31  C   UNL     1     110.801 125.329 135.270  0.00  0.00    +0.000 A 
ATOM     32  C   UNL     1     111.009 124.992 135.993  0.00  0.00    +0.000 A 
ENDBRANCH   9  27
TORSDOF 3
ENDMDL
