MODEL 1
REMARK VINA RESULT:      -7.7      0.000      0.000
REMARK  Name = 14162688
REMARK  5 active torsions:
REMARK  status: ('A' for Active; 'I' for Inactive)
REMARK    1  A    between atoms: O_2  and  C_13
REMARK    2  A    between atoms: O_3  and  C_15
REMARK    3  A    between atoms: O_4  and  C_17
REMARK    4  A    between atoms: O_7  and  C_22
REMARK    5  A    between atoms: C_12  and  C_18
REMARK                            x       y       z     vdW  Elec       q    Type
REMARK                         _______ _______ _______ _____ _____    ______ ____
ROOT
ATOM      1  O   UNL     1     104.490 124.831 147.122  0.00  0.00    +0.000 OA
ATOM      2  O   UNL     1     102.900 123.116 145.418  0.00  0.00    +0.000 OA
ATOM      3  O   UNL     1     104.164 123.610 144.928  0.00  0.00    +0.000 OA
ATOM      4  C   UNL     1     103.683 123.963 146.261  0.00  0.00    +0.000 A 
ATOM      5  C   UNL     1     103.787 124.359 146.977  0.00  0.00    +0.000 A 
ATOM      6  C   UNL     1     105.094 124.890 146.513  0.00  0.00    +0.000 A 
ATOM      7  C   UNL     1     103.210 124.306 147.566  0.00  0.00    +0.000 A 
ATOM      8  C   UNL     1     103.003 123.513 146.134  0.00  0.00    +0.000 A 
ATOM      9  C   UNL     1     102.531 123.856 147.438  0.00  0.00    +0.000 A 
ATOM     10  C   UNL     1     104.276 124.010 145.641  0.00  0.00    +0.000 A 
ATOM     11  C   UNL     1     102.427 123.460 146.722  0.00  0.00    +0.000 A 
ATOM     12  C   UNL     1     104.986 124.477 145.768  0.00  0.00    +0.000 A 
ENDROOT
BRANCH   6  15
ATOM     13  O   UNL     1     105.190 126.429 145.926  0.00  0.00    +0.000 OA
ATOM     14  O   UNL     1     107.808 126.691 147.039  0.00  0.00    +0.000 OA
ATOM     15  C   UNL     1     105.773 125.341 146.645  0.00  0.00    +0.000 A 
ATOM     16  C   UNL     1     105.820 126.110 146.351  0.00  0.00    +0.000 A 
ATOM     17  C   UNL     1     106.404 125.022 147.070  0.00  0.00    +0.000 A 
ATOM     18  C   UNL     1     107.082 125.472 147.201  0.00  0.00    +0.000 A 
ATOM     19  C   UNL     1     106.499 126.560 146.482  0.00  0.00    +0.000 A 
ATOM     20  C   UNL     1     107.130 126.241 146.907  0.00  0.00    +0.000 A 
BRANCH  18  21
ATOM     21  O   UNL     1     107.713 125.152 147.627  0.00  0.00    +0.000 OA
ATOM     22  C   UNL     1     107.576 124.775 148.347  0.00  0.00    +0.000 C 
ENDBRANCH  18  21
ENDBRANCH   6  15
BRANCH   7  23
ATOM     23  O   UNL     1     103.314 124.703 148.282  0.00  0.00    +0.000 OA
ATOM     24  C   UNL     1     102.915 125.411 148.422  0.00  0.00    +0.000 C 
ENDBRANCH   7  23
BRANCH   9  25
ATOM     25  O   UNL     1     101.955 123.803 148.026  0.00  0.00    +0.000 OA
ATOM     26  C   UNL     1     101.972 123.179 148.565  0.00  0.00    +0.000 C 
ENDBRANCH   9  25
BRANCH  11  27
ATOM     27  O   UNL     1     101.747 123.010 146.595  0.00  0.00    +0.000 OA
ATOM     28  C   UNL     1     101.161 123.283 146.084  0.00  0.00    +0.000 C 
ENDBRANCH  11  27
TORSDOF 5
ENDMDL
MODEL 2
REMARK VINA RESULT:      -7.7     11.452     13.245
REMARK  Name = 14162688
REMARK  5 active torsions:
REMARK  status: ('A' for Active; 'I' for Inactive)
REMARK    1  A    between atoms: O_2  and  C_13
REMARK    2  A    between atoms: O_3  and  C_15
REMARK    3  A    between atoms: O_4  and  C_17
REMARK    4  A    between atoms: O_7  and  C_22
REMARK    5  A    between atoms: C_12  and  C_18
REMARK                            x       y       z     vdW  Elec       q    Type
REMARK                         _______ _______ _______ _____ _____    ______ ____
ROOT
ATOM      1  O   UNL     1     110.632 127.685 135.952  0.00  0.00    +0.000 OA
ATOM      2  O   UNL     1     108.270 129.334 135.683  0.00  0.00    +0.000 OA
ATOM      3  O   UNL     1     108.117 127.901 135.756  0.00  0.00    +0.000 OA
ATOM      4  C   UNL     1     109.438 128.522 135.815  0.00  0.00    +0.000 A 
ATOM      5  C   UNL     1     110.258 128.455 135.879  0.00  0.00    +0.000 A 
ATOM      6  C   UNL     1     110.147 126.976 135.958  0.00  0.00    +0.000 A 
ATOM      7  C   UNL     1     110.729 129.132 135.874  0.00  0.00    +0.000 A 
ATOM      8  C   UNL     1     109.090 129.267 135.746  0.00  0.00    +0.000 A 
ATOM      9  C   UNL     1     110.380 129.876 135.804  0.00  0.00    +0.000 A 
ATOM     10  C   UNL     1     108.936 127.825 135.820  0.00  0.00    +0.000 A 
ATOM     11  C   UNL     1     109.560 129.944 135.741  0.00  0.00    +0.000 A 
ATOM     12  C   UNL     1     109.293 127.046 135.892  0.00  0.00    +0.000 A 
ENDROOT
BRANCH   6  15
ATOM     13  O   UNL     1     110.411 126.058 134.613  0.00  0.00    +0.000 OA
ATOM     14  O   UNL     1     111.555 124.005 136.238  0.00  0.00    +0.000 OA
ATOM     15  C   UNL     1     110.499 126.232 136.028  0.00  0.00    +0.000 A 
ATOM     16  C   UNL     1     110.631 125.774 135.354  0.00  0.00    +0.000 A 
ATOM     17  C   UNL     1     110.719 125.949 136.771  0.00  0.00    +0.000 A 
ATOM     18  C   UNL     1     111.071 125.206 136.841  0.00  0.00    +0.000 A 
ATOM     19  C   UNL     1     110.983 125.031 135.425  0.00  0.00    +0.000 A 
ATOM     20  C   UNL     1     111.203 124.747 136.168  0.00  0.00    +0.000 A 
BRANCH  18  21
ATOM     21  O   UNL     1     111.291 124.922 137.584  0.00  0.00    +0.000 OA
ATOM     22  C   UNL     1     111.128 125.366 138.260  0.00  0.00    +0.000 C 
ENDBRANCH  18  21
ENDBRANCH   6  15
BRANCH   7  23
ATOM     23  O   UNL     1     111.549 129.065 135.937  0.00  0.00    +0.000 OA
ATOM     24  C   UNL     1     112.021 129.127 135.264  0.00  0.00    +0.000 C 
ENDBRANCH   7  23
BRANCH   9  25
ATOM     25  O   UNL     1     110.852 130.554 135.799  0.00  0.00    +0.000 OA
ATOM     26  C   UNL     1     111.014 130.949 136.505  0.00  0.00    +0.000 C 
ENDBRANCH   9  25
BRANCH  11  27
ATOM     27  O   UNL     1     109.212 130.689 135.671  0.00  0.00    +0.000 OA
ATOM     28  C   UNL     1     108.955 130.958 134.936  0.00  0.00    +0.000 C 
ENDBRANCH  11  27
TORSDOF 5
ENDMDL
MODEL 3
REMARK VINA RESULT:      -7.6      1.019      2.380
REMARK  Name = 14162688
REMARK  5 active torsions:
REMARK  status: ('A' for Active; 'I' for Inactive)
REMARK    1  A    between atoms: O_2  and  C_13
REMARK    2  A    between atoms: O_3  and  C_15
REMARK    3  A    between atoms: O_4  and  C_17
REMARK    4  A    between atoms: O_7  and  C_22
REMARK    5  A    between atoms: C_12  and  C_18
REMARK                            x       y       z     vdW  Elec       q    Type
REMARK                         _______ _______ _______ _____ _____    ______ ____
ROOT
ATOM      1  O   UNL     1     103.835 124.490 146.356  0.00  0.00    +0.000 OA
ATOM      2  O   UNL     1     101.669 124.486 148.275  0.00  0.00    +0.000 OA
ATOM      3  O   UNL     1     102.859 125.250 148.566  0.00  0.00    +0.000 OA
ATOM      4  C   UNL     1     102.737 124.487 147.326  0.00  0.00    +0.000 A 
ATOM      5  C   UNL     1     103.053 124.238 146.606  0.00  0.00    +0.000 A 
ATOM      6  C   UNL     1     104.295 125.009 146.864  0.00  0.00    +0.000 A 
ATOM      7  C   UNL     1     102.616 123.739 146.114  0.00  0.00    +0.000 A 
ATOM      8  C   UNL     1     101.985 124.237 147.555  0.00  0.00    +0.000 A 
ATOM      9  C   UNL     1     101.864 123.490 146.343  0.00  0.00    +0.000 A 
ATOM     10  C   UNL     1     103.182 125.005 147.847  0.00  0.00    +0.000 A 
ATOM     11  C   UNL     1     101.548 123.739 147.063  0.00  0.00    +0.000 A 
ATOM     12  C   UNL     1     103.967 125.269 147.614  0.00  0.00    +0.000 A 
ENDROOT
BRANCH   6  15
ATOM     13  O   UNL     1     105.633 124.214 147.413  0.00  0.00    +0.000 OA
ATOM     14  O   UNL     1     107.303 126.000 145.935  0.00  0.00    +0.000 OA
ATOM     15  C   UNL     1     105.048 125.257 146.632  0.00  0.00    +0.000 A 
ATOM     16  C   UNL     1     105.716 124.859 146.907  0.00  0.00    +0.000 A 
ATOM     17  C   UNL     1     105.131 125.902 146.125  0.00  0.00    +0.000 A 
ATOM     18  C   UNL     1     105.883 126.150 145.892  0.00  0.00    +0.000 A 
ATOM     19  C   UNL     1     106.468 125.107 146.675  0.00  0.00    +0.000 A 
ATOM     20  C   UNL     1     106.551 125.752 146.168  0.00  0.00    +0.000 A 
BRANCH  18  21
ATOM     21  O   UNL     1     105.966 126.796 145.385  0.00  0.00    +0.000 OA
ATOM     22  C   UNL     1     105.307 127.248 145.182  0.00  0.00    +0.000 C 
ENDBRANCH  18  21
ENDBRANCH   6  15
BRANCH   7  23
ATOM     23  O   UNL     1     102.932 123.490 145.393  0.00  0.00    +0.000 OA
ATOM     24  C   UNL     1     103.270 122.741 145.329  0.00  0.00    +0.000 C 
ENDBRANCH   7  23
BRANCH   9  25
ATOM     25  O   UNL     1     101.427 122.992 145.851  0.00  0.00    +0.000 OA
ATOM     26  C   UNL     1     100.880 123.311 145.322  0.00  0.00    +0.000 C 
ENDBRANCH   9  25
BRANCH  11  27
ATOM     27  O   UNL     1     100.795 123.490 147.292  0.00  0.00    +0.000 OA
ATOM     28  C   UNL     1     100.710 122.929 147.890  0.00  0.00    +0.000 C 
ENDBRANCH  11  27
TORSDOF 5
ENDMDL
MODEL 4
REMARK VINA RESULT:      -7.6      2.598      4.302
REMARK  Name = 14162688
REMARK  5 active torsions:
REMARK  status: ('A' for Active; 'I' for Inactive)
REMARK    1  A    between atoms: O_2  and  C_13
REMARK    2  A    between atoms: O_3  and  C_15
REMARK    3  A    between atoms: O_4  and  C_17
REMARK    4  A    between atoms: O_7  and  C_22
REMARK    5  A    between atoms: C_12  and  C_18
REMARK                            x       y       z     vdW  Elec       q    Type
REMARK                         _______ _______ _______ _____ _____    ______ ____
ROOT
ATOM      1  O   UNL     1     106.529 125.508 146.271  0.00  0.00    +0.000 OA
ATOM      2  O   UNL     1     106.229 128.122 145.066  0.00  0.00    +0.000 OA
ATOM      3  O   UNL     1     106.654 128.031 146.443  0.00  0.00    +0.000 OA
ATOM      4  C   UNL     1     106.377 126.831 145.659  0.00  0.00    +0.000 A 
ATOM      5  C   UNL     1     106.335 126.009 145.600  0.00  0.00    +0.000 A 
ATOM      6  C   UNL     1     106.770 125.868 147.013  0.00  0.00    +0.000 A 
ATOM      7  C   UNL     1     106.105 125.657 144.890  0.00  0.00    +0.000 A 
ATOM      8  C   UNL     1     106.188 127.300 145.008  0.00  0.00    +0.000 A 
ATOM      9  C   UNL     1     105.916 126.128 144.239  0.00  0.00    +0.000 A 
ATOM     10  C   UNL     1     106.615 127.209 146.393  0.00  0.00    +0.000 A 
ATOM     11  C   UNL     1     105.958 126.949 144.298  0.00  0.00    +0.000 A 
ATOM     12  C   UNL     1     106.813 126.724 147.075  0.00  0.00    +0.000 A 
ENDROOT
BRANCH   6  15
ATOM     13  O   UNL     1     108.338 125.442 147.299  0.00  0.00    +0.000 OA
ATOM     14  O   UNL     1     107.519 123.975 149.609  0.00  0.00    +0.000 OA
ATOM     15  C   UNL     1     106.958 125.395 147.663  0.00  0.00    +0.000 A 
ATOM     16  C   UNL     1     107.742 125.182 147.805  0.00  0.00    +0.000 A 
ATOM     17  C   UNL     1     106.360 125.134 148.169  0.00  0.00    +0.000 A 
ATOM     18  C   UNL     1     106.548 124.661 148.818  0.00  0.00    +0.000 A 
ATOM     19  C   UNL     1     107.929 124.709 148.454  0.00  0.00    +0.000 A 
ATOM     20  C   UNL     1     107.332 124.448 148.960  0.00  0.00    +0.000 A 
BRANCH  18  21
ATOM     21  O   UNL     1     105.951 124.400 149.325  0.00  0.00    +0.000 OA
ATOM     22  C   UNL     1     105.360 124.922 149.569  0.00  0.00    +0.000 C 
ENDBRANCH  18  21
ENDBRANCH   6  15
BRANCH   7  23
ATOM     23  O   UNL     1     106.063 124.835 144.831  0.00  0.00    +0.000 OA
ATOM     24  C   UNL     1     105.331 124.457 144.852  0.00  0.00    +0.000 C 
ENDBRANCH   7  23
BRANCH   9  25
ATOM     25  O   UNL     1     105.686 125.776 143.529  0.00  0.00    +0.000 OA
ATOM     26  C   UNL     1     106.246 125.630 142.940  0.00  0.00    +0.000 C 
ENDBRANCH   9  25
BRANCH  11  27
ATOM     27  O   UNL     1     105.769 127.419 143.646  0.00  0.00    +0.000 OA
ATOM     28  C   UNL     1     105.120 127.926 143.677  0.00  0.00    +0.000 C 
ENDBRANCH  11  27
TORSDOF 5
ENDMDL
MODEL 5
REMARK VINA RESULT:      -7.5     11.428     12.922
REMARK  Name = 14162688
REMARK  5 active torsions:
REMARK  status: ('A' for Active; 'I' for Inactive)
REMARK    1  A    between atoms: O_2  and  C_13
REMARK    2  A    between atoms: O_3  and  C_15
REMARK    3  A    between atoms: O_4  and  C_17
REMARK    4  A    between atoms: O_7  and  C_22
REMARK    5  A    between atoms: C_12  and  C_18
REMARK                            x       y       z     vdW  Elec       q    Type
REMARK                         _______ _______ _______ _____ _____    ______ ____
ROOT
ATOM      1  O   UNL     1     110.700 127.015 136.527  0.00  0.00    +0.000 OA
ATOM      2  O   UNL     1     111.305 124.300 135.730  0.00  0.00    +0.000 OA
ATOM      3  O   UNL     1     110.349 125.057 134.960  0.00  0.00    +0.000 OA
ATOM      4  C   UNL     1     111.008 125.640 136.125  0.00  0.00    +0.000 A 
ATOM      5  C   UNL     1     111.124 126.276 136.638  0.00  0.00    +0.000 A 
ATOM      6  C   UNL     1     110.146 127.092 135.874  0.00  0.00    +0.000 A 
ATOM      7  C   UNL     1     111.654 126.208 137.267  0.00  0.00    +0.000 A 
ATOM      8  C   UNL     1     111.422 124.936 136.243  0.00  0.00    +0.000 A 
ATOM      9  C   UNL     1     112.067 125.504 137.383  0.00  0.00    +0.000 A 
ATOM     10  C   UNL     1     110.459 125.698 135.467  0.00  0.00    +0.000 A 
ATOM     11  C   UNL     1     111.951 124.867 136.871  0.00  0.00    +0.000 A 
ATOM     12  C   UNL     1     110.025 126.430 135.340  0.00  0.00    +0.000 A 
ENDROOT
BRANCH   6  15
ATOM     13  O   UNL     1     108.625 127.270 136.489  0.00  0.00    +0.000 OA
ATOM     14  O   UNL     1     108.501 129.916 135.419  0.00  0.00    +0.000 OA
ATOM     15  C   UNL     1     109.734 127.798 135.760  0.00  0.00    +0.000 A 
ATOM     16  C   UNL     1     108.974 127.886 136.068  0.00  0.00    +0.000 A 
ATOM     17  C   UNL     1     110.083 128.416 135.339  0.00  0.00    +0.000 A 
ATOM     18  C   UNL     1     109.672 129.122 135.225  0.00  0.00    +0.000 A 
ATOM     19  C   UNL     1     108.563 128.592 135.954  0.00  0.00    +0.000 A 
ATOM     20  C   UNL     1     108.912 129.210 135.532  0.00  0.00    +0.000 A 
BRANCH  18  21
ATOM     21  O   UNL     1     110.021 129.739 134.803  0.00  0.00    +0.000 OA
ATOM     22  C   UNL     1     110.824 129.902 134.900  0.00  0.00    +0.000 C 
ENDBRANCH  18  21
ENDBRANCH   6  15
BRANCH   7  23
ATOM     23  O   UNL     1     111.770 126.844 137.779  0.00  0.00    +0.000 OA
ATOM     24  C   UNL     1     111.419 126.842 138.525  0.00  0.00    +0.000 C 
ENDBRANCH   7  23
BRANCH   9  25
ATOM     25  O   UNL     1     112.597 125.436 138.013  0.00  0.00    +0.000 OA
ATOM     26  C   UNL     1     113.394 125.616 137.901  0.00  0.00    +0.000 C 
ENDBRANCH   9  25
BRANCH  11  27
ATOM     27  O   UNL     1     112.365 124.163 136.988  0.00  0.00    +0.000 OA
ATOM     28  C   UNL     1     111.963 123.481 137.218  0.00  0.00    +0.000 C 
ENDBRANCH  11  27
TORSDOF 5
ENDMDL
MODEL 6
REMARK VINA RESULT:      -7.4     11.517     13.589
REMARK  Name = 14162688
REMARK  5 active torsions:
REMARK  status: ('A' for Active; 'I' for Inactive)
REMARK    1  A    between atoms: O_2  and  C_13
REMARK    2  A    between atoms: O_3  and  C_15
REMARK    3  A    between atoms: O_4  and  C_17
REMARK    4  A    between atoms: O_7  and  C_22
REMARK    5  A    between atoms: C_12  and  C_18
REMARK                            x       y       z     vdW  Elec       q    Type
REMARK                         _______ _______ _______ _____ _____    ______ ____
ROOT
ATOM      1  O   UNL     1     112.407 127.266 137.426  0.00  0.00    +0.000 OA
ATOM      2  O   UNL     1     113.939 129.580 136.607  0.00  0.00    +0.000 OA
ATOM      3  O   UNL     1     114.062 128.357 135.851  0.00  0.00    +0.000 OA
ATOM      4  C   UNL     1     113.182 128.439 137.013  0.00  0.00    +0.000 A 
ATOM      5  C   UNL     1     112.642 128.086 137.528  0.00  0.00    +0.000 A 
ATOM      6  C   UNL     1     112.738 126.807 136.779  0.00  0.00    +0.000 A 
ATOM      7  C   UNL     1     112.320 128.522 138.151  0.00  0.00    +0.000 A 
ATOM      8  C   UNL     1     113.400 129.227 137.122  0.00  0.00    +0.000 A 
ATOM      9  C   UNL     1     112.539 129.310 138.258  0.00  0.00    +0.000 A 
ATOM     10  C   UNL     1     113.523 127.996 136.361  0.00  0.00    +0.000 A 
ATOM     11  C   UNL     1     113.078 129.663 137.744  0.00  0.00    +0.000 A 
ATOM     12  C   UNL     1     113.300 127.174 136.243  0.00  0.00    +0.000 A 
ENDROOT
BRANCH   6  15
ATOM     13  O   UNL     1     113.670 125.598 137.404  0.00  0.00    +0.000 OA
ATOM     14  O   UNL     1     111.854 123.656 136.358  0.00  0.00    +0.000 OA
ATOM     15  C   UNL     1     112.517 126.019 136.674  0.00  0.00    +0.000 A 
ATOM     16  C   UNL     1     112.984 125.415 136.987  0.00  0.00    +0.000 A 
ATOM     17  C   UNL     1     111.830 125.836 136.256  0.00  0.00    +0.000 A 
ATOM     18  C   UNL     1     111.609 125.048 136.150  0.00  0.00    +0.000 A 
ATOM     19  C   UNL     1     112.763 124.627 136.882  0.00  0.00    +0.000 A 
ATOM     20  C   UNL     1     112.075 124.444 136.463  0.00  0.00    +0.000 A 
BRANCH  18  21
ATOM     21  O   UNL     1     110.921 124.865 135.732  0.00  0.00    +0.000 OA
ATOM     22  C   UNL     1     110.490 125.464 135.364  0.00  0.00    +0.000 C 
ENDBRANCH  18  21
ENDBRANCH   6  15
BRANCH   7  23
ATOM     23  O   UNL     1     111.780 128.169 138.666  0.00  0.00    +0.000 OA
ATOM     24  C   UNL     1     112.024 127.924 139.414  0.00  0.00    +0.000 C 
ENDBRANCH   7  23
BRANCH   9  25
ATOM     25  O   UNL     1     112.217 129.745 138.882  0.00  0.00    +0.000 OA
ATOM     26  C   UNL     1     111.539 130.199 138.760  0.00  0.00    +0.000 C 
ENDBRANCH   9  25
BRANCH  11  27
ATOM     27  O   UNL     1     113.296 130.451 137.852  0.00  0.00    +0.000 OA
ATOM     28  C   UNL     1     114.041 130.636 138.154  0.00  0.00    +0.000 C 
ENDBRANCH  11  27
TORSDOF 5
ENDMDL
MODEL 7
REMARK VINA RESULT:      -7.3      8.937     10.734
REMARK  Name = 14162688
REMARK  5 active torsions:
REMARK  status: ('A' for Active; 'I' for Inactive)
REMARK    1  A    between atoms: O_2  and  C_13
REMARK    2  A    between atoms: O_3  and  C_15
REMARK    3  A    between atoms: O_4  and  C_17
REMARK    4  A    between atoms: O_7  and  C_22
REMARK    5  A    between atoms: C_12  and  C_18
REMARK                            x       y       z     vdW  Elec       q    Type
REMARK                         _______ _______ _______ _____ _____    ______ ____
ROOT
ATOM      1  O   UNL     1     111.581 131.391 145.072  0.00  0.00    +0.000 OA
ATOM      2  O   UNL     1     112.438 131.638 142.319  0.00  0.00    +0.000 OA
ATOM      3  O   UNL     1     112.497 132.797 143.176  0.00  0.00    +0.000 OA
ATOM      4  C   UNL     1     112.014 131.514 143.678  0.00  0.00    +0.000 A 
ATOM      5  C   UNL     1     111.716 131.053 144.294  0.00  0.00    +0.000 A 
ATOM      6  C   UNL     1     111.759 132.221 145.211  0.00  0.00    +0.000 A 
ATOM      7  C   UNL     1     111.542 130.256 144.167  0.00  0.00    +0.000 A 
ATOM      8  C   UNL     1     112.140 131.177 142.935  0.00  0.00    +0.000 A 
ATOM      9  C   UNL     1     111.668 129.920 143.424  0.00  0.00    +0.000 A 
ATOM     10  C   UNL     1     112.199 132.344 143.798  0.00  0.00    +0.000 A 
ATOM     11  C   UNL     1     111.967 130.381 142.808  0.00  0.00    +0.000 A 
ATOM     12  C   UNL     1     112.070 132.700 144.570  0.00  0.00    +0.000 A 
ENDROOT
BRANCH   6  15
ATOM     13  O   UNL     1     112.959 132.192 146.344  0.00  0.00    +0.000 OA
ATOM     14  O   UNL     1     111.251 133.552 148.187  0.00  0.00    +0.000 OA
ATOM     15  C   UNL     1     111.632 132.553 145.956  0.00  0.00    +0.000 A 
ATOM     16  C   UNL     1     112.233 132.539 146.521  0.00  0.00    +0.000 A 
ATOM     17  C   UNL     1     110.905 132.900 146.133  0.00  0.00    +0.000 A 
ATOM     18  C   UNL     1     110.778 133.233 146.877  0.00  0.00    +0.000 A 
ATOM     19  C   UNL     1     112.105 132.872 147.265  0.00  0.00    +0.000 A 
ATOM     20  C   UNL     1     111.378 133.219 147.443  0.00  0.00    +0.000 A 
BRANCH  18  21
ATOM     21  O   UNL     1     110.051 133.580 147.055  0.00  0.00    +0.000 OA
ATOM     22  C   UNL     1     109.352 133.236 146.783  0.00  0.00    +0.000 C 
ENDBRANCH  18  21
ENDBRANCH   6  15
BRANCH   7  23
ATOM     23  O   UNL     1     111.244 129.795 144.783  0.00  0.00    +0.000 OA
ATOM     24  C   UNL     1     111.732 129.252 145.165  0.00  0.00    +0.000 C 
ENDBRANCH   7  23
BRANCH   9  25
ATOM     25  O   UNL     1     111.495 129.123 143.297  0.00  0.00    +0.000 OA
ATOM     26  C   UNL     1     110.761 128.906 142.988  0.00  0.00    +0.000 C 
ENDBRANCH   9  25
BRANCH  11  27
ATOM     27  O   UNL     1     112.092 130.044 142.065  0.00  0.00    +0.000 OA
ATOM     28  C   UNL     1     112.860 129.911 141.796  0.00  0.00    +0.000 C 
ENDBRANCH  11  27
TORSDOF 5
ENDMDL
MODEL 8
REMARK VINA RESULT:      -7.3     12.126     13.687
REMARK  Name = 14162688
REMARK  5 active torsions:
REMARK  status: ('A' for Active; 'I' for Inactive)
REMARK    1  A    between atoms: O_2  and  C_13
REMARK    2  A    between atoms: O_3  and  C_15
REMARK    3  A    between atoms: O_4  and  C_17
REMARK    4  A    between atoms: O_7  and  C_22
REMARK    5  A    between atoms: C_12  and  C_18
REMARK                            x       y       z     vdW  Elec       q    Type
REMARK                         _______ _______ _______ _____ _____    ______ ____
ROOT
ATOM      1  O   UNL     1     113.133 127.210 137.210  0.00  0.00    +0.000 OA
ATOM      2  O   UNL     1     113.165 128.989 139.492  0.00  0.00    +0.000 OA
ATOM      3  O   UNL     1     113.038 127.569 139.714  0.00  0.00    +0.000 OA
ATOM      4  C   UNL     1     113.149 128.113 138.364  0.00  0.00    +0.000 A 
ATOM      5  C   UNL     1     113.180 127.999 137.547  0.00  0.00    +0.000 A 
ATOM      6  C   UNL     1     113.052 126.530 137.730  0.00  0.00    +0.000 A 
ATOM      7  C   UNL     1     113.258 128.647 137.042  0.00  0.00    +0.000 A 
ATOM      8  C   UNL     1     113.196 128.875 138.675  0.00  0.00    +0.000 A 
ATOM      9  C   UNL     1     113.305 129.409 137.355  0.00  0.00    +0.000 A 
ATOM     10  C   UNL     1     113.069 127.446 138.899  0.00  0.00    +0.000 A 
ATOM     11  C   UNL     1     113.274 129.523 138.172  0.00  0.00    +0.000 A 
ATOM     12  C   UNL     1     113.019 126.649 138.580  0.00  0.00    +0.000 A 
ENDROOT
BRANCH   6  15
ATOM     13  O   UNL     1     114.386 125.560 137.714  0.00  0.00    +0.000 OA
ATOM     14  O   UNL     1     112.865 123.488 136.467  0.00  0.00    +0.000 OA
ATOM     15  C   UNL     1     113.006 125.769 137.414  0.00  0.00    +0.000 A 
ATOM     16  C   UNL     1     113.673 125.285 137.407  0.00  0.00    +0.000 A 
ATOM     17  C   UNL     1     112.291 125.494 137.106  0.00  0.00    +0.000 A 
ATOM     18  C   UNL     1     112.244 124.733 136.790  0.00  0.00    +0.000 A 
ATOM     19  C   UNL     1     113.626 124.524 137.091  0.00  0.00    +0.000 A 
ATOM     20  C   UNL     1     112.912 124.249 136.782  0.00  0.00    +0.000 A 
BRANCH  18  21
ATOM     21  O   UNL     1     111.530 124.458 136.482  0.00  0.00    +0.000 OA
ATOM     22  C   UNL     1     111.066 124.953 136.012  0.00  0.00    +0.000 C 
ENDBRANCH  18  21
ENDBRANCH   6  15
BRANCH   7  23
ATOM     23  O   UNL     1     113.289 128.534 136.226  0.00  0.00    +0.000 OA
ATOM     24  C   UNL     1     114.013 128.564 135.833  0.00  0.00    +0.000 C 
ENDBRANCH   7  23
BRANCH   9  25
ATOM     25  O   UNL     1     113.382 130.058 136.850  0.00  0.00    +0.000 OA
ATOM     26  C   UNL     1     112.711 130.460 136.590  0.00  0.00    +0.000 C 
ENDBRANCH   9  25
BRANCH  11  27
ATOM     27  O   UNL     1     113.320 130.286 138.483  0.00  0.00    +0.000 OA
ATOM     28  C   UNL     1     114.013 130.540 138.851  0.00  0.00    +0.000 C 
ENDBRANCH  11  27
TORSDOF 5
ENDMDL
MODEL 9
REMARK VINA RESULT:      -7.2     12.623     13.830
REMARK  Name = 14162688
REMARK  5 active torsions:
REMARK  status: ('A' for Active; 'I' for Inactive)
REMARK    1  A    between atoms: O_2  and  C_13
REMARK    2  A    between atoms: O_3  and  C_15
REMARK    3  A    between atoms: O_4  and  C_17
REMARK    4  A    between atoms: O_7  and  C_22
REMARK    5  A    between atoms: C_12  and  C_18
REMARK                            x       y       z     vdW  Elec       q    Type
REMARK                         _______ _______ _______ _____ _____    ______ ____
ROOT
ATOM      1  O   UNL     1     112.483 127.864 136.190  0.00  0.00    +0.000 OA
ATOM      2  O   UNL     1     113.129 125.055 136.443  0.00  0.00    +0.000 OA
ATOM      3  O   UNL     1     114.174 126.032 136.635  0.00  0.00    +0.000 OA
ATOM      4  C   UNL     1     112.808 126.441 136.318  0.00  0.00    +0.000 A 
ATOM      5  C   UNL     1     112.255 127.036 136.172  0.00  0.00    +0.000 A 
ATOM      6  C   UNL     1     113.299 128.076 136.361  0.00  0.00    +0.000 A 
ATOM      7  C   UNL     1     111.471 126.840 136.007  0.00  0.00    +0.000 A 
ATOM      8  C   UNL     1     112.576 125.650 136.298  0.00  0.00    +0.000 A 
ATOM      9  C   UNL     1     111.240 126.048 135.988  0.00  0.00    +0.000 A 
ATOM     10  C   UNL     1     113.627 126.633 136.490  0.00  0.00    +0.000 A 
ATOM     11  C   UNL     1     111.793 125.453 136.133  0.00  0.00    +0.000 A 
ATOM     12  C   UNL     1     113.875 127.456 136.512  0.00  0.00    +0.000 A 
ENDROOT
BRANCH   6  15
ATOM     13  O   UNL     1     113.888 128.799 135.000  0.00  0.00    +0.000 OA
ATOM     14  O   UNL     1     114.209 131.246 136.438  0.00  0.00    +0.000 OA
ATOM     15  C   UNL     1     113.527 128.869 136.380  0.00  0.00    +0.000 A 
ATOM     16  C   UNL     1     113.821 129.230 135.699  0.00  0.00    +0.000 A 
ATOM     17  C   UNL     1     113.460 129.300 137.080  0.00  0.00    +0.000 A 
ATOM     18  C   UNL     1     113.688 130.093 137.100  0.00  0.00    +0.000 A 
ATOM     19  C   UNL     1     114.048 130.023 135.718  0.00  0.00    +0.000 A 
ATOM     20  C   UNL     1     113.982 130.454 136.419  0.00  0.00    +0.000 A 
BRANCH  18  21
ATOM     21  O   UNL     1     113.621 130.524 137.800  0.00  0.00    +0.000 OA
ATOM     22  C   UNL     1     113.054 130.314 138.362  0.00  0.00    +0.000 C 
ENDBRANCH  18  21
ENDBRANCH   6  15
BRANCH   7  23
ATOM     23  O   UNL     1     110.918 127.434 135.862  0.00  0.00    +0.000 OA
ATOM     24  C   UNL     1     110.392 127.662 136.455  0.00  0.00    +0.000 C 
ENDBRANCH   7  23
BRANCH   9  25
ATOM     25  O   UNL     1     110.455 125.851 135.823  0.00  0.00    +0.000 OA
ATOM     26  C   UNL     1     110.215 125.737 135.042  0.00  0.00    +0.000 C 
ENDBRANCH   9  25
BRANCH  11  27
ATOM     27  O   UNL     1     111.561 124.661 136.113  0.00  0.00    +0.000 OA
ATOM     28  C   UNL     1     111.584 124.207 136.801  0.00  0.00    +0.000 C 
ENDBRANCH  11  27
TORSDOF 5
ENDMDL
MODEL 10
REMARK VINA RESULT:      -7.2     10.356     12.485
REMARK  Name = 14162688
REMARK  5 active torsions:
REMARK  status: ('A' for Active; 'I' for Inactive)
REMARK    1  A    between atoms: O_2  and  C_13
REMARK    2  A    between atoms: O_3  and  C_15
REMARK    3  A    between atoms: O_4  and  C_17
REMARK    4  A    between atoms: O_7  and  C_22
REMARK    5  A    between atoms: C_12  and  C_18
REMARK                            x       y       z     vdW  Elec       q    Type
REMARK                         _______ _______ _______ _____ _____    ______ ____
ROOT
ATOM      1  O   UNL     1     111.731 126.409 137.998  0.00  0.00    +0.000 OA
ATOM      2  O   UNL     1     114.285 126.247 139.349  0.00  0.00    +0.000 OA
ATOM      3  O   UNL     1     114.184 125.779 137.988  0.00  0.00    +0.000 OA
ATOM      4  C   UNL     1     113.023 126.328 138.684  0.00  0.00    +0.000 A 
ATOM      5  C   UNL     1     112.224 126.534 138.690  0.00  0.00    +0.000 A 
ATOM      6  C   UNL     1     112.075 126.064 137.289  0.00  0.00    +0.000 A 
ATOM      7  C   UNL     1     111.888 126.865 139.367  0.00  0.00    +0.000 A 
ATOM      8  C   UNL     1     113.486 126.453 139.355  0.00  0.00    +0.000 A 
ATOM      9  C   UNL     1     112.352 126.990 140.038  0.00  0.00    +0.000 A 
ATOM     10  C   UNL     1     113.384 125.982 137.985  0.00  0.00    +0.000 A 
ATOM     11  C   UNL     1     113.151 126.784 140.032  0.00  0.00    +0.000 A 
ATOM     12  C   UNL     1     112.906 125.849 137.283  0.00  0.00    +0.000 A 
ENDROOT
BRANCH   6  15
ATOM     13  O   UNL     1     111.327 124.611 137.060  0.00  0.00    +0.000 OA
ATOM     14  O   UNL     1     110.210 125.571 134.612  0.00  0.00    +0.000 OA
ATOM     15  C   UNL     1     111.608 125.940 136.619  0.00  0.00    +0.000 A 
ATOM     16  C   UNL     1     111.235 125.213 136.506  0.00  0.00    +0.000 A 
ATOM     17  C   UNL     1     111.516 126.544 136.065  0.00  0.00    +0.000 A 
ATOM     18  C   UNL     1     111.049 126.421 135.395  0.00  0.00    +0.000 A 
ATOM     19  C   UNL     1     110.768 125.090 135.836  0.00  0.00    +0.000 A 
ATOM     20  C   UNL     1     110.676 125.694 135.282  0.00  0.00    +0.000 A 
BRANCH  18  21
ATOM     21  O   UNL     1     110.957 127.024 134.840  0.00  0.00    +0.000 OA
ATOM     22  C   UNL     1     111.099 127.808 135.056  0.00  0.00    +0.000 C 
ENDBRANCH  18  21
ENDBRANCH   6  15
BRANCH   7  23
ATOM     23  O   UNL     1     111.089 127.071 139.374  0.00  0.00    +0.000 OA
ATOM     24  C   UNL     1     110.866 127.858 139.273  0.00  0.00    +0.000 C 
ENDBRANCH   7  23
BRANCH   9  25
ATOM     25  O   UNL     1     112.016 127.322 140.716  0.00  0.00    +0.000 OA
ATOM     26  C   UNL     1     111.691 126.833 141.295  0.00  0.00    +0.000 C 
ENDBRANCH   9  25
BRANCH  11  27
ATOM     27  O   UNL     1     113.614 126.910 140.703  0.00  0.00    +0.000 OA
ATOM     28  C   UNL     1     114.177 127.512 140.710  0.00  0.00    +0.000 C 
ENDBRANCH  11  27
TORSDOF 5
ENDMDL
