MODEL 1
REMARK VINA RESULT:      -9.3      0.000      0.000
REMARK  Name = 44257138
REMARK  9 active torsions:
REMARK  status: ('A' for Active; 'I' for Inactive)
REMARK    1  A    between atoms: O_3  and  C_20
REMARK    2  A    between atoms: O_3  and  C_29
REMARK    3  A    between atoms: O_4  and  C_25
REMARK    4  A    between atoms: O_4  and  C_33
REMARK    5  A    between atoms: O_16  and  C_45
REMARK    6  A    between atoms: C_23  and  C_36
REMARK    7  A    between atoms: C_26  and  C_37
REMARK    8  A    between atoms: C_32  and  C_38
REMARK    9  A    between atoms: C_34  and  C_39
REMARK                            x       y       z     vdW  Elec       q    Type
REMARK                         _______ _______ _______ _____ _____    ______ ____
ROOT
ATOM      1  O   UNL     1     112.178 129.269 138.798  0.00  0.00    +0.000 OA
ATOM      2  O   UNL     1     113.468 127.245 138.924  0.00  0.00    +0.000 OA
ATOM      3  C   UNL     1     112.552 128.174 137.898  0.00  0.00    +0.000 A 
ATOM      4  C   UNL     1     112.996 127.795 138.528  0.00  0.00    +0.000 C 
ATOM      5  C   UNL     1     112.524 127.816 137.156  0.00  0.00    +0.000 A 
ATOM      6  C   UNL     1     113.029 128.163 139.304  0.00  0.00    +0.000 C 
ATOM      7  C   UNL     1     112.156 128.886 138.028  0.00  0.00    +0.000 A 
ATOM      8  C   UNL     1     112.617 128.905 139.439  0.00  0.00    +0.000 C 
ATOM      9  C   UNL     1     111.704 128.882 136.672  0.00  0.00    +0.000 A 
ATOM     10  C   UNL     1     112.100 128.170 136.543  0.00  0.00    +0.000 A 
ATOM     11  C   UNL     1     111.732 129.241 137.416  0.00  0.00    +0.000 A 
ATOM     12  C   UNL     1     111.337 129.953 137.545  0.00  0.00    +0.000 C 
ENDROOT
BRANCH   8  13
ATOM     13  C   UNL     1     112.643 129.265 140.181  0.00  0.00    +0.000 A 
ATOM     14  C   UNL     1     113.240 129.807 140.357  0.00  0.00    +0.000 A 
ATOM     15  C   UNL     1     112.073 129.083 140.748  0.00  0.00    +0.000 A 
ATOM     16  C   UNL     1     113.267 130.167 141.099  0.00  0.00    +0.000 A 
ATOM     17  C   UNL     1     112.099 129.443 141.490  0.00  0.00    +0.000 A 
ATOM     18  C   UNL     1     112.696 129.985 141.665  0.00  0.00    +0.000 A 
BRANCH  18  19
ATOM     19  O   UNL     1     112.722 130.344 142.407  0.00  0.00    +0.000 OA
ATOM     20  C   UNL     1     112.265 131.015 142.556  0.00  0.00    +0.000 C 
ENDBRANCH  18  19
ENDBRANCH   8  13
BRANCH  10  22
ATOM     21  O   UNL     1     112.528 128.113 135.181  0.00  0.00    +0.000 OA
ATOM     22  C   UNL     1     112.072 127.813 135.800  0.00  0.00    +0.000 C 
ENDBRANCH  10  22
BRANCH   5  23
ATOM     23  O   UNL     1     112.919 127.105 137.026  0.00  0.00    +0.000 OA
BRANCH  23  31
ATOM     24  O   UNL     1     112.434 125.759 137.018  0.00  0.00    +0.000 OA
ATOM     25  O   UNL     1     114.634 124.970 136.205  0.00  0.00    +0.000 OA
ATOM     26  O   UNL     1     114.386 126.577 136.483  0.00  0.00    +0.000 OA
ATOM     27  O   UNL     1     113.416 123.889 136.469  0.00  0.00    +0.000 OA
ATOM     28  C   UNL     1     113.900 125.234 136.476  0.00  0.00    +0.000 C 
ATOM     29  C   UNL     1     113.777 126.037 136.615  0.00  0.00    +0.000 C 
ATOM     30  C   UNL     1     113.291 124.693 136.609  0.00  0.00    +0.000 C 
ATOM     31  C   UNL     1     113.044 126.301 136.886  0.00  0.00    +0.000 C 
ATOM     32  C   UNL     1     112.558 124.956 136.880  0.00  0.00    +0.000 C 
BRANCH  32  34
ATOM     33  O   UNL     1     111.259 124.657 137.393  0.00  0.00    +0.000 OA
ATOM     34  C   UNL     1     111.949 124.416 137.012  0.00  0.00    +0.000 C 
ENDBRANCH  32  34
ENDBRANCH  23  31
ENDBRANCH   5  23
BRANCH   9  35
ATOM     35  O   UNL     1     111.281 129.237 136.059  0.00  0.00    +0.000 OA
BRANCH  35  43
ATOM     36  O   UNL     1     110.135 128.415 136.286  0.00  0.00    +0.000 OA
ATOM     37  O   UNL     1     108.701 130.116 135.201  0.00  0.00    +0.000 OA
ATOM     38  O   UNL     1     110.325 130.371 135.336  0.00  0.00    +0.000 OA
ATOM     39  O   UNL     1     108.032 128.727 135.789  0.00  0.00    +0.000 OA
ATOM     40  C   UNL     1     109.179 129.549 135.562  0.00  0.00    +0.000 C 
ATOM     41  C   UNL     1     109.991 129.676 135.630  0.00  0.00    +0.000 C 
ATOM     42  C   UNL     1     108.844 128.854 135.857  0.00  0.00    +0.000 C 
ATOM     43  C   UNL     1     110.469 129.109 135.992  0.00  0.00    +0.000 C 
ATOM     44  C   UNL     1     109.322 128.287 136.219  0.00  0.00    +0.000 C 
BRANCH  44  46
ATOM     45  O   UNL     1     108.945 127.468 137.327  0.00  0.00    +0.000 OA
ATOM     46  C   UNL     1     108.988 127.593 136.513  0.00  0.00    +0.000 C 
ENDBRANCH  44  46
ENDBRANCH  35  43
ENDBRANCH   9  35
TORSDOF 9
ENDMDL
MODEL 2
REMARK VINA RESULT:      -9.3      1.010      4.119
REMARK  Name = 44257138
REMARK  9 active torsions:
REMARK  status: ('A' for Active; 'I' for Inactive)
REMARK    1  A    between atoms: O_3  and  C_20
REMARK    2  A    between atoms: O_3  and  C_29
REMARK    3  A    between atoms: O_4  and  C_25
REMARK    4  A    between atoms: O_4  and  C_33
REMARK    5  A    between atoms: O_16  and  C_45
REMARK    6  A    between atoms: C_23  and  C_36
REMARK    7  A    between atoms: C_26  and  C_37
REMARK    8  A    between atoms: C_32  and  C_38
REMARK    9  A    between atoms: C_34  and  C_39
REMARK                            x       y       z     vdW  Elec       q    Type
REMARK                         _______ _______ _______ _____ _____    ______ ____
ROOT
ATOM      1  O   UNL     1     112.222 127.913 139.515  0.00  0.00    +0.000 OA
ATOM      2  O   UNL     1     110.561 129.512 138.833  0.00  0.00    +0.000 OA
ATOM      3  C   UNL     1     111.698 128.450 138.255  0.00  0.00    +0.000 A 
ATOM      4  C   UNL     1     111.153 128.955 138.685  0.00  0.00    +0.000 C 
ATOM      5  C   UNL     1     111.701 128.473 137.431  0.00  0.00    +0.000 A 
ATOM      6  C   UNL     1     111.145 128.936 139.545  0.00  0.00    +0.000 C 
ATOM      7  C   UNL     1     112.215 127.946 138.656  0.00  0.00    +0.000 A 
ATOM      8  C   UNL     1     111.683 128.411 139.962  0.00  0.00    +0.000 C 
ATOM      9  C   UNL     1     112.737 127.489 137.406  0.00  0.00    +0.000 A 
ATOM     10  C   UNL     1     112.220 127.992 137.006  0.00  0.00    +0.000 A 
ATOM     11  C   UNL     1     112.734 127.466 138.231  0.00  0.00    +0.000 A 
ATOM     12  C   UNL     1     113.251 126.962 138.631  0.00  0.00    +0.000 C 
ENDROOT
BRANCH   8  13
ATOM     13  C   UNL     1     111.683 128.386 140.786  0.00  0.00    +0.000 A 
ATOM     14  C   UNL     1     112.184 128.882 141.215  0.00  0.00    +0.000 A 
ATOM     15  C   UNL     1     111.180 127.866 141.183  0.00  0.00    +0.000 A 
ATOM     16  C   UNL     1     112.183 128.857 142.040  0.00  0.00    +0.000 A 
ATOM     17  C   UNL     1     111.180 127.841 142.008  0.00  0.00    +0.000 A 
ATOM     18  C   UNL     1     111.681 128.336 142.436  0.00  0.00    +0.000 A 
BRANCH  18  19
ATOM     19  O   UNL     1     111.680 128.311 143.260  0.00  0.00    +0.000 OA
ATOM     20  C   UNL     1     111.630 129.010 143.694  0.00  0.00    +0.000 C 
ENDBRANCH  18  19
ENDBRANCH   8  13
BRANCH  10  22
ATOM     21  O   UNL     1     112.822 128.420 135.783  0.00  0.00    +0.000 OA
ATOM     22  C   UNL     1     112.223 128.015 136.182  0.00  0.00    +0.000 C 
ENDBRANCH  10  22
BRANCH   5  23
ATOM     23  O   UNL     1     111.185 128.976 137.030  0.00  0.00    +0.000 OA
BRANCH  23  31
ATOM     24  O   UNL     1     109.928 128.709 136.402  0.00  0.00    +0.000 OA
ATOM     25  O   UNL     1     109.895 131.009 135.489  0.00  0.00    +0.000 OA
ATOM     26  O   UNL     1     111.162 130.510 136.421  0.00  0.00    +0.000 OA
ATOM     27  O   UNL     1     108.651 129.975 135.166  0.00  0.00    +0.000 OA
ATOM     28  C   UNL     1     109.907 130.242 135.794  0.00  0.00    +0.000 C 
ATOM     29  C   UNL     1     110.540 129.992 136.260  0.00  0.00    +0.000 C 
ATOM     30  C   UNL     1     109.285 129.725 135.632  0.00  0.00    +0.000 C 
ATOM     31  C   UNL     1     110.551 129.226 136.564  0.00  0.00    +0.000 C 
ATOM     32  C   UNL     1     109.295 128.958 135.936  0.00  0.00    +0.000 C 
BRANCH  32  34
ATOM     33  O   UNL     1     108.550 127.782 136.253  0.00  0.00    +0.000 OA
ATOM     34  C   UNL     1     108.673 128.442 135.774  0.00  0.00    +0.000 C 
ENDBRANCH  32  34
ENDBRANCH  23  31
ENDBRANCH   5  23
BRANCH   9  35
ATOM     35  O   UNL     1     113.256 127.008 136.982  0.00  0.00    +0.000 OA
BRANCH  35  43
ATOM     36  O   UNL     1     112.293 125.956 136.917  0.00  0.00    +0.000 OA
ATOM     37  O   UNL     1     114.088 124.348 136.354  0.00  0.00    +0.000 OA
ATOM     38  O   UNL     1     114.453 125.936 136.606  0.00  0.00    +0.000 OA
ATOM     39  O   UNL     1     112.526 123.831 136.477  0.00  0.00    +0.000 OA
ATOM     40  C   UNL     1     113.490 124.884 136.542  0.00  0.00    +0.000 C 
ATOM     41  C   UNL     1     113.672 125.678 136.668  0.00  0.00    +0.000 C 
ATOM     42  C   UNL     1     112.708 124.625 136.603  0.00  0.00    +0.000 C 
ATOM     43  C   UNL     1     113.074 126.214 136.856  0.00  0.00    +0.000 C 
ATOM     44  C   UNL     1     112.110 125.161 136.791  0.00  0.00    +0.000 C 
BRANCH  44  46
ATOM     45  O   UNL     1     110.769 125.145 136.297  0.00  0.00    +0.000 OA
ATOM     46  C   UNL     1     111.329 124.903 136.853  0.00  0.00    +0.000 C 
ENDBRANCH  44  46
ENDBRANCH  35  43
ENDBRANCH   9  35
TORSDOF 9
ENDMDL
MODEL 3
REMARK VINA RESULT:      -9.2      1.560      4.496
REMARK  Name = 44257138
REMARK  9 active torsions:
REMARK  status: ('A' for Active; 'I' for Inactive)
REMARK    1  A    between atoms: O_3  and  C_20
REMARK    2  A    between atoms: O_3  and  C_29
REMARK    3  A    between atoms: O_4  and  C_25
REMARK    4  A    between atoms: O_4  and  C_33
REMARK    5  A    between atoms: O_16  and  C_45
REMARK    6  A    between atoms: C_23  and  C_36
REMARK    7  A    between atoms: C_26  and  C_37
REMARK    8  A    between atoms: C_32  and  C_38
REMARK    9  A    between atoms: C_34  and  C_39
REMARK                            x       y       z     vdW  Elec       q    Type
REMARK                         _______ _______ _______ _____ _____    ______ ____
ROOT
ATOM      1  O   UNL     1     112.451 128.832 139.176  0.00  0.00    +0.000 OA
ATOM      2  O   UNL     1     111.357 130.706 138.143  0.00  0.00    +0.000 OA
ATOM      3  C   UNL     1     111.246 129.066 138.375  0.00  0.00    +0.000 A 
ATOM      4  C   UNL     1     111.425 129.905 138.333  0.00  0.00    +0.000 C 
ATOM      5  C   UNL     1     110.568 128.781 138.002  0.00  0.00    +0.000 A 
ATOM      6  C   UNL     1     112.130 130.208 138.721  0.00  0.00    +0.000 C 
ATOM      7  C   UNL     1     111.742 128.547 138.782  0.00  0.00    +0.000 A 
ATOM      8  C   UNL     1     112.646 129.668 139.145  0.00  0.00    +0.000 C 
ATOM      9  C   UNL     1     110.881 127.458 138.442  0.00  0.00    +0.000 A 
ATOM     10  C   UNL     1     110.386 127.977 138.035  0.00  0.00    +0.000 A 
ATOM     11  C   UNL     1     111.560 127.743 138.816  0.00  0.00    +0.000 A 
ATOM     12  C   UNL     1     112.055 127.224 139.222  0.00  0.00    +0.000 C 
ENDROOT
BRANCH   8  13
ATOM     13  C   UNL     1     113.325 129.950 139.519  0.00  0.00    +0.000 A 
ATOM     14  C   UNL     1     113.974 130.190 139.071  0.00  0.00    +0.000 A 
ATOM     15  C   UNL     1     113.354 129.992 140.343  0.00  0.00    +0.000 A 
ATOM     16  C   UNL     1     114.653 130.473 139.446  0.00  0.00    +0.000 A 
ATOM     17  C   UNL     1     114.033 130.275 140.717  0.00  0.00    +0.000 A 
ATOM     18  C   UNL     1     114.682 130.515 140.269  0.00  0.00    +0.000 A 
BRANCH  18  19
ATOM     19  O   UNL     1     115.360 130.797 140.644  0.00  0.00    +0.000 OA
ATOM     20  C   UNL     1     115.298 131.379 141.225  0.00  0.00    +0.000 C 
ENDBRANCH  18  19
ENDBRANCH   8  13
BRANCH  10  22
ATOM     21  O   UNL     1     109.054 127.465 138.112  0.00  0.00    +0.000 OA
ATOM     22  C   UNL     1     109.708 127.691 137.661  0.00  0.00    +0.000 C 
ENDBRANCH  10  22
BRANCH   5  23
ATOM     23  O   UNL     1     110.073 129.299 137.595  0.00  0.00    +0.000 OA
BRANCH  23  31
ATOM     24  O   UNL     1     109.952 129.575 136.197  0.00  0.00    +0.000 OA
ATOM     25  O   UNL     1     107.915 130.910 136.635  0.00  0.00    +0.000 OA
ATOM     26  O   UNL     1     108.713 130.190 137.886  0.00  0.00    +0.000 OA
ATOM     27  O   UNL     1     108.474 130.740 135.093  0.00  0.00    +0.000 OA
ATOM     28  C   UNL     1     108.595 130.464 136.489  0.00  0.00    +0.000 C 
ATOM     29  C   UNL     1     108.994 130.104 137.115  0.00  0.00    +0.000 C 
ATOM     30  C   UNL     1     108.874 130.380 135.718  0.00  0.00    +0.000 C 
ATOM     31  C   UNL     1     109.673 129.660 136.969  0.00  0.00    +0.000 C 
ATOM     32  C   UNL     1     109.553 129.935 135.572  0.00  0.00    +0.000 C 
BRANCH  32  34
ATOM     33  O   UNL     1     110.344 129.232 134.613  0.00  0.00    +0.000 OA
ATOM     34  C   UNL     1     109.833 129.851 134.800  0.00  0.00    +0.000 C 
ENDBRANCH  32  34
ENDBRANCH  23  31
ENDBRANCH   5  23
BRANCH   9  35
ATOM     35  O   UNL     1     110.699 126.654 138.475  0.00  0.00    +0.000 OA
BRANCH  35  43
ATOM     36  O   UNL     1     111.379 126.393 137.247  0.00  0.00    +0.000 OA
ATOM     37  O   UNL     1     111.568 124.003 137.858  0.00  0.00    +0.000 OA
ATOM     38  O   UNL     1     110.824 125.060 138.883  0.00  0.00    +0.000 OA
ATOM     39  O   UNL     1     112.186 124.539 136.425  0.00  0.00    +0.000 OA
ATOM     40  C   UNL     1     111.505 124.799 137.654  0.00  0.00    +0.000 C 
ATOM     41  C   UNL     1     111.133 125.329 138.166  0.00  0.00    +0.000 C 
ATOM     42  C   UNL     1     111.814 125.068 136.937  0.00  0.00    +0.000 C 
ATOM     43  C   UNL     1     111.071 126.126 137.963  0.00  0.00    +0.000 C 
ATOM     44  C   UNL     1     111.751 125.865 136.734  0.00  0.00    +0.000 C 
BRANCH  44  46
ATOM     45  O   UNL     1     111.553 126.348 135.403  0.00  0.00    +0.000 OA
ATOM     46  C   UNL     1     112.060 126.133 136.018  0.00  0.00    +0.000 C 
ENDBRANCH  44  46
ENDBRANCH  35  43
ENDBRANCH   9  35
TORSDOF 9
ENDMDL
MODEL 4
REMARK VINA RESULT:      -9.1      1.302      4.465
REMARK  Name = 44257138
REMARK  9 active torsions:
REMARK  status: ('A' for Active; 'I' for Inactive)
REMARK    1  A    between atoms: O_3  and  C_20
REMARK    2  A    between atoms: O_3  and  C_29
REMARK    3  A    between atoms: O_4  and  C_25
REMARK    4  A    between atoms: O_4  and  C_33
REMARK    5  A    between atoms: O_16  and  C_45
REMARK    6  A    between atoms: C_23  and  C_36
REMARK    7  A    between atoms: C_26  and  C_37
REMARK    8  A    between atoms: C_32  and  C_38
REMARK    9  A    between atoms: C_34  and  C_39
REMARK                            x       y       z     vdW  Elec       q    Type
REMARK                         _______ _______ _______ _____ _____    ______ ____
ROOT
ATOM      1  O   UNL     1     111.948 127.295 136.637  0.00  0.00    +0.000 OA
ATOM      2  O   UNL     1     113.348 127.655 138.557  0.00  0.00    +0.000 OA
ATOM      3  C   UNL     1     112.438 128.440 137.412  0.00  0.00    +0.000 A 
ATOM      4  C   UNL     1     112.867 127.912 137.937  0.00  0.00    +0.000 C 
ATOM      5  C   UNL     1     112.473 129.253 137.543  0.00  0.00    +0.000 A 
ATOM      6  C   UNL     1     112.834 127.063 137.806  0.00  0.00    +0.000 C 
ATOM      7  C   UNL     1     111.993 128.141 136.784  0.00  0.00    +0.000 A 
ATOM      8  C   UNL     1     112.372 126.753 137.152  0.00  0.00    +0.000 C 
ATOM      9  C   UNL     1     111.620 129.471 136.417  0.00  0.00    +0.000 A 
ATOM     10  C   UNL     1     112.065 129.769 137.045  0.00  0.00    +0.000 A 
ATOM     11  C   UNL     1     111.585 128.657 136.286  0.00  0.00    +0.000 A 
ATOM     12  C   UNL     1     111.141 128.360 135.658  0.00  0.00    +0.000 C 
ENDROOT
BRANCH   8  13
ATOM     13  C   UNL     1     112.334 125.940 137.019  0.00  0.00    +0.000 A 
ATOM     14  C   UNL     1     111.717 125.496 137.340  0.00  0.00    +0.000 A 
ATOM     15  C   UNL     1     112.914 125.569 136.564  0.00  0.00    +0.000 A 
ATOM     16  C   UNL     1     111.680 124.683 137.207  0.00  0.00    +0.000 A 
ATOM     17  C   UNL     1     112.877 124.756 136.431  0.00  0.00    +0.000 A 
ATOM     18  C   UNL     1     112.260 124.313 136.753  0.00  0.00    +0.000 A 
BRANCH  18  19
ATOM     19  O   UNL     1     112.223 123.500 136.619  0.00  0.00    +0.000 OA
ATOM     20  C   UNL     1     111.971 122.994 137.220  0.00  0.00    +0.000 C 
ENDBRANCH  18  19
ENDBRANCH   8  13
BRANCH  10  22
ATOM     21  O   UNL     1     112.583 131.055 136.701  0.00  0.00    +0.000 OA
ATOM     22  C   UNL     1     112.100 130.582 137.175  0.00  0.00    +0.000 C 
ENDBRANCH  10  22
BRANCH   5  23
ATOM     23  O   UNL     1     112.917 129.550 138.170  0.00  0.00    +0.000 OA
BRANCH  23  31
ATOM     24  O   UNL     1     112.535 129.880 139.508  0.00  0.00    +0.000 OA
ATOM     25  O   UNL     1     114.760 130.892 139.895  0.00  0.00    +0.000 OA
ATOM     26  O   UNL     1     114.401 130.226 138.429  0.00  0.00    +0.000 OA
ATOM     27  O   UNL     1     113.636 130.883 141.103  0.00  0.00    +0.000 OA
ATOM     28  C   UNL     1     114.018 130.554 139.766  0.00  0.00    +0.000 C 
ATOM     29  C   UNL     1     113.838 130.221 139.033  0.00  0.00    +0.000 C 
ATOM     30  C   UNL     1     113.456 130.550 140.370  0.00  0.00    +0.000 C 
ATOM     31  C   UNL     1     113.097 129.884 138.904  0.00  0.00    +0.000 C 
ATOM     32  C   UNL     1     112.714 130.213 140.241  0.00  0.00    +0.000 C 
BRANCH  32  34
ATOM     33  O   UNL     1     111.431 129.824 140.735  0.00  0.00    +0.000 OA
ATOM     34  C   UNL     1     112.153 130.209 140.845  0.00  0.00    +0.000 C 
ENDBRANCH  32  34
ENDBRANCH  23  31
ENDBRANCH   5  23
BRANCH   9  35
ATOM     35  O   UNL     1     111.212 129.987 135.919  0.00  0.00    +0.000 OA
BRANCH  35  43
ATOM     36  O   UNL     1     110.102 130.103 136.811  0.00  0.00    +0.000 OA
ATOM     37  O   UNL     1     108.624 130.643 134.900  0.00  0.00    +0.000 OA
ATOM     38  O   UNL     1     110.226 130.347 134.646  0.00  0.00    +0.000 OA
ATOM     39  O   UNL     1     108.006 130.578 136.429  0.00  0.00    +0.000 OA
ATOM     40  C   UNL     1     109.117 130.463 135.537  0.00  0.00    +0.000 C 
ATOM     41  C   UNL     1     109.918 130.315 135.410  0.00  0.00    +0.000 C 
ATOM     42  C   UNL     1     108.808 130.430 136.302  0.00  0.00    +0.000 C 
ATOM     43  C   UNL     1     110.411 130.135 136.047  0.00  0.00    +0.000 C 
ATOM     44  C   UNL     1     109.300 130.250 136.939  0.00  0.00    +0.000 C 
BRANCH  44  46
ATOM     45  O   UNL     1     108.881 129.489 138.073  0.00  0.00    +0.000 OA
ATOM     46  C   UNL     1     108.991 130.218 137.703  0.00  0.00    +0.000 C 
ENDBRANCH  44  46
ENDBRANCH  35  43
ENDBRANCH   9  35
TORSDOF 9
ENDMDL
MODEL 5
REMARK VINA RESULT:      -9.1      1.349      5.079
REMARK  Name = 44257138
REMARK  9 active torsions:
REMARK  status: ('A' for Active; 'I' for Inactive)
REMARK    1  A    between atoms: O_3  and  C_20
REMARK    2  A    between atoms: O_3  and  C_29
REMARK    3  A    between atoms: O_4  and  C_25
REMARK    4  A    between atoms: O_4  and  C_33
REMARK    5  A    between atoms: O_16  and  C_45
REMARK    6  A    between atoms: C_23  and  C_36
REMARK    7  A    between atoms: C_26  and  C_37
REMARK    8  A    between atoms: C_32  and  C_38
REMARK    9  A    between atoms: C_34  and  C_39
REMARK                            x       y       z     vdW  Elec       q    Type
REMARK                         _______ _______ _______ _____ _____    ______ ____
ROOT
ATOM      1  O   UNL     1     111.278 128.642 136.661  0.00  0.00    +0.000 OA
ATOM      2  O   UNL     1     110.537 129.406 138.816  0.00  0.00    +0.000 OA
ATOM      3  C   UNL     1     111.617 128.393 138.065  0.00  0.00    +0.000 A 
ATOM      4  C   UNL     1     111.015 128.951 138.320  0.00  0.00    +0.000 C 
ATOM      5  C   UNL     1     112.070 128.005 138.634  0.00  0.00    +0.000 A 
ATOM      6  C   UNL     1     110.539 129.359 137.732  0.00  0.00    +0.000 C 
ATOM      7  C   UNL     1     111.744 128.244 137.264  0.00  0.00    +0.000 A 
ATOM      8  C   UNL     1     110.672 129.203 136.897  0.00  0.00    +0.000 C 
ATOM      9  C   UNL     1     112.779 127.318 137.601  0.00  0.00    +0.000 A 
ATOM     10  C   UNL     1     112.651 127.467 138.402  0.00  0.00    +0.000 A 
ATOM     11  C   UNL     1     112.325 127.706 137.031  0.00  0.00    +0.000 A 
ATOM     12  C   UNL     1     112.452 127.557 136.230  0.00  0.00    +0.000 C 
ENDROOT
BRANCH   8  13
ATOM     13  C   UNL     1     110.219 129.590 136.326  0.00  0.00    +0.000 A 
ATOM     14  C   UNL     1     109.502 129.267 136.077  0.00  0.00    +0.000 A 
ATOM     15  C   UNL     1     110.484 130.302 136.003  0.00  0.00    +0.000 A 
ATOM     16  C   UNL     1     109.050 129.654 135.506  0.00  0.00    +0.000 A 
ATOM     17  C   UNL     1     110.031 130.689 135.431  0.00  0.00    +0.000 A 
ATOM     18  C   UNL     1     109.315 130.365 135.183  0.00  0.00    +0.000 A 
BRANCH  18  19
ATOM     19  O   UNL     1     108.863 130.752 134.612  0.00  0.00    +0.000 OA
ATOM     20  C   UNL     1     108.642 131.539 134.725  0.00  0.00    +0.000 C 
ENDBRANCH  18  19
ENDBRANCH   8  13
BRANCH  10  22
ATOM     21  O   UNL     1     113.877 127.329 139.123  0.00  0.00    +0.000 OA
ATOM     22  C   UNL     1     113.105 127.079 138.970  0.00  0.00    +0.000 C 
ENDBRANCH  10  22
BRANCH   5  23
ATOM     23  O   UNL     1     111.943 128.154 139.435  0.00  0.00    +0.000 OA
BRANCH  23  31
ATOM     24  O   UNL     1     111.209 127.417 140.415  0.00  0.00    +0.000 OA
ATOM     25  O   UNL     1     112.082 128.904 142.190  0.00  0.00    +0.000 OA
ATOM     26  O   UNL     1     112.525 129.146 140.620  0.00  0.00    +0.000 OA
ATOM     27  O   UNL     1     111.057 127.671 142.577  0.00  0.00    +0.000 OA
ATOM     28  C   UNL     1     111.791 128.408 141.598  0.00  0.00    +0.000 C 
ATOM     29  C   UNL     1     112.013 128.529 140.812  0.00  0.00    +0.000 C 
ATOM     30  C   UNL     1     111.278 127.791 141.791  0.00  0.00    +0.000 C 
ATOM     31  C   UNL     1     111.722 128.034 140.221  0.00  0.00    +0.000 C 
ATOM     32  C   UNL     1     110.987 127.295 141.200  0.00  0.00    +0.000 C 
BRANCH  32  34
ATOM     33  O   UNL     1     110.502 125.971 140.971  0.00  0.00    +0.000 OA
ATOM     34  C   UNL     1     110.475 126.679 141.394  0.00  0.00    +0.000 C 
ENDBRANCH  32  34
ENDBRANCH  23  31
ENDBRANCH   5  23
BRANCH   9  35
ATOM     35  O   UNL     1     113.360 126.780 137.369  0.00  0.00    +0.000 OA
BRANCH  35  43
ATOM     36  O   UNL     1     112.414 125.711 137.391  0.00  0.00    +0.000 OA
ATOM     37  O   UNL     1     114.000 124.281 136.141  0.00  0.00    +0.000 OA
ATOM     38  O   UNL     1     114.418 125.826 136.535  0.00  0.00    +0.000 OA
ATOM     39  O   UNL     1     112.524 123.687 136.579  0.00  0.00    +0.000 OA
ATOM     40  C   UNL     1     113.471 124.757 136.557  0.00  0.00    +0.000 C 
ATOM     41  C   UNL     1     113.680 125.530 136.755  0.00  0.00    +0.000 C 
ATOM     42  C   UNL     1     112.733 124.460 136.777  0.00  0.00    +0.000 C 
ATOM     43  C   UNL     1     113.151 126.007 137.172  0.00  0.00    +0.000 C 
ATOM     44  C   UNL     1     112.204 124.937 137.194  0.00  0.00    +0.000 C 
BRANCH  44  46
ATOM     45  O   UNL     1     111.302 124.488 138.207  0.00  0.00    +0.000 OA
ATOM     46  C   UNL     1     111.467 124.641 137.413  0.00  0.00    +0.000 C 
ENDBRANCH  44  46
ENDBRANCH  35  43
ENDBRANCH   9  35
TORSDOF 9
ENDMDL
MODEL 6
REMARK VINA RESULT:      -9.1      1.640      4.267
REMARK  Name = 44257138
REMARK  9 active torsions:
REMARK  status: ('A' for Active; 'I' for Inactive)
REMARK    1  A    between atoms: O_3  and  C_20
REMARK    2  A    between atoms: O_3  and  C_29
REMARK    3  A    between atoms: O_4  and  C_25
REMARK    4  A    between atoms: O_4  and  C_33
REMARK    5  A    between atoms: O_16  and  C_45
REMARK    6  A    between atoms: C_23  and  C_36
REMARK    7  A    between atoms: C_26  and  C_37
REMARK    8  A    between atoms: C_32  and  C_38
REMARK    9  A    between atoms: C_34  and  C_39
REMARK                            x       y       z     vdW  Elec       q    Type
REMARK                         _______ _______ _______ _____ _____    ______ ____
ROOT
ATOM      1  O   UNL     1     110.708 128.917 137.462  0.00  0.00    +0.000 OA
ATOM      2  O   UNL     1     111.704 127.480 135.813  0.00  0.00    +0.000 OA
ATOM      3  C   UNL     1     111.684 127.823 137.437  0.00  0.00    +0.000 A 
ATOM      4  C   UNL     1     111.597 127.752 136.585  0.00  0.00    +0.000 C 
ATOM      5  C   UNL     1     112.205 127.320 137.830  0.00  0.00    +0.000 A 
ATOM      6  C   UNL     1     111.055 128.274 136.168  0.00  0.00    +0.000 C 
ATOM      7  C   UNL     1     111.254 128.386 137.860  0.00  0.00    +0.000 A 
ATOM      8  C   UNL     1     110.608 128.860 136.610  0.00  0.00    +0.000 C 
ATOM      9  C   UNL     1     111.868 127.941 139.072  0.00  0.00    +0.000 A 
ATOM     10  C   UNL     1     112.297 127.379 138.648  0.00  0.00    +0.000 A 
ATOM     11  C   UNL     1     111.346 128.445 138.678  0.00  0.00    +0.000 A 
ATOM     12  C   UNL     1     110.917 129.008 139.102  0.00  0.00    +0.000 C 
ENDROOT
BRANCH   8  13
ATOM     13  C   UNL     1     110.086 129.365 136.219  0.00  0.00    +0.000 A 
ATOM     14  C   UNL     1     110.357 130.081 135.910  0.00  0.00    +0.000 A 
ATOM     15  C   UNL     1     109.293 129.155 136.136  0.00  0.00    +0.000 A 
ATOM     16  C   UNL     1     109.835 130.586 135.519  0.00  0.00    +0.000 A 
ATOM     17  C   UNL     1     108.771 129.660 135.744  0.00  0.00    +0.000 A 
ATOM     18  C   UNL     1     109.042 130.375 135.436  0.00  0.00    +0.000 A 
BRANCH  18  19
ATOM     19  O   UNL     1     108.520 130.879 135.045  0.00  0.00    +0.000 OA
ATOM     20  C   UNL     1     108.243 131.560 135.421  0.00  0.00    +0.000 C 
ENDBRANCH  18  19
ENDBRANCH   8  13
BRANCH  10  22
ATOM     21  O   UNL     1     113.551 127.158 139.296  0.00  0.00    +0.000 OA
ATOM     22  C   UNL     1     112.818 126.876 139.042  0.00  0.00    +0.000 C 
ENDBRANCH  10  22
BRANCH   5  23
ATOM     23  O   UNL     1     112.634 126.758 137.407  0.00  0.00    +0.000 OA
BRANCH  23  31
ATOM     24  O   UNL     1     112.404 125.360 137.213  0.00  0.00    +0.000 OA
ATOM     25  O   UNL     1     114.625 125.142 136.144  0.00  0.00    +0.000 OA
ATOM     26  O   UNL     1     114.116 126.611 136.693  0.00  0.00    +0.000 OA
ATOM     27  O   UNL     1     113.655 123.818 136.307  0.00  0.00    +0.000 OA
ATOM     28  C   UNL     1     113.884 125.215 136.500  0.00  0.00    +0.000 C 
ATOM     29  C   UNL     1     113.630 125.950 136.775  0.00  0.00    +0.000 C 
ATOM     30  C   UNL     1     113.399 124.553 136.582  0.00  0.00    +0.000 C 
ATOM     31  C   UNL     1     112.890 126.023 137.132  0.00  0.00    +0.000 C 
ATOM     32  C   UNL     1     112.659 124.625 136.938  0.00  0.00    +0.000 C 
BRANCH  32  34
ATOM     33  O   UNL     1     111.465 124.020 137.439  0.00  0.00    +0.000 OA
ATOM     34  C   UNL     1     112.174 123.963 137.020  0.00  0.00    +0.000 C 
ENDBRANCH  32  34
ENDBRANCH  23  31
ENDBRANCH   5  23
BRANCH   9  35
ATOM     35  O   UNL     1     111.960 128.000 139.890  0.00  0.00    +0.000 OA
BRANCH  35  43
ATOM     36  O   UNL     1     110.900 127.069 140.108  0.00  0.00    +0.000 OA
ATOM     37  O   UNL     1     110.759 127.783 142.474  0.00  0.00    +0.000 OA
ATOM     38  O   UNL     1     111.866 128.476 141.467  0.00  0.00    +0.000 OA
ATOM     39  O   UNL     1     109.745 126.613 141.904  0.00  0.00    +0.000 OA
ATOM     40  C   UNL     1     110.806 127.545 141.685  0.00  0.00    +0.000 C 
ATOM     41  C   UNL     1     111.360 127.891 141.181  0.00  0.00    +0.000 C 
ATOM     42  C   UNL     1     110.299 126.959 141.400  0.00  0.00    +0.000 C 
ATOM     43  C   UNL     1     111.406 127.653 140.393  0.00  0.00    +0.000 C 
ATOM     44  C   UNL     1     110.345 126.721 140.611  0.00  0.00    +0.000 C 
BRANCH  44  46
ATOM     45  O   UNL     1     110.136 125.393 140.128  0.00  0.00    +0.000 OA
ATOM     46  C   UNL     1     109.839 126.137 140.326  0.00  0.00    +0.000 C 
ENDBRANCH  44  46
ENDBRANCH  35  43
ENDBRANCH   9  35
TORSDOF 9
ENDMDL
MODEL 7
REMARK VINA RESULT:      -9.0      2.258      3.974
REMARK  Name = 44257138
REMARK  9 active torsions:
REMARK  status: ('A' for Active; 'I' for Inactive)
REMARK    1  A    between atoms: O_3  and  C_20
REMARK    2  A    between atoms: O_3  and  C_29
REMARK    3  A    between atoms: O_4  and  C_25
REMARK    4  A    between atoms: O_4  and  C_33
REMARK    5  A    between atoms: O_16  and  C_45
REMARK    6  A    between atoms: C_23  and  C_36
REMARK    7  A    between atoms: C_26  and  C_37
REMARK    8  A    between atoms: C_32  and  C_38
REMARK    9  A    between atoms: C_34  and  C_39
REMARK                            x       y       z     vdW  Elec       q    Type
REMARK                         _______ _______ _______ _____ _____    ______ ____
ROOT
ATOM      1  O   UNL     1     112.457 130.088 136.933  0.00  0.00    +0.000 OA
ATOM      2  O   UNL     1     113.036 127.990 137.954  0.00  0.00    +0.000 OA
ATOM      3  C   UNL     1     111.834 129.131 137.852  0.00  0.00    +0.000 A 
ATOM      4  C   UNL     1     112.528 128.627 137.813  0.00  0.00    +0.000 C 
ATOM      5  C   UNL     1     111.197 128.901 138.321  0.00  0.00    +0.000 A 
ATOM      6  C   UNL     1     113.196 128.861 137.325  0.00  0.00    +0.000 C 
ATOM      7  C   UNL     1     111.800 129.837 137.426  0.00  0.00    +0.000 A 
ATOM      8  C   UNL     1     113.160 129.596 136.882  0.00  0.00    +0.000 C 
ATOM      9  C   UNL     1     110.489 130.083 137.941  0.00  0.00    +0.000 A 
ATOM     10  C   UNL     1     110.524 129.377 138.366  0.00  0.00    +0.000 A 
ATOM     11  C   UNL     1     111.127 130.313 137.471  0.00  0.00    +0.000 A 
ATOM     12  C   UNL     1     111.092 131.019 137.046  0.00  0.00    +0.000 C 
ENDROOT
BRANCH   8  13
ATOM     13  C   UNL     1     113.796 129.829 136.412  0.00  0.00    +0.000 A 
ATOM     14  C   UNL     1     113.922 129.470 135.680  0.00  0.00    +0.000 A 
ATOM     15  C   UNL     1     114.308 130.422 136.672  0.00  0.00    +0.000 A 
ATOM     16  C   UNL     1     114.558 129.702 135.209  0.00  0.00    +0.000 A 
ATOM     17  C   UNL     1     114.944 130.654 136.202  0.00  0.00    +0.000 A 
ATOM     18  C   UNL     1     115.069 130.294 135.470  0.00  0.00    +0.000 A 
BRANCH  18  19
ATOM     19  O   UNL     1     115.705 130.527 135.000  0.00  0.00    +0.000 OA
ATOM     20  C   UNL     1     115.687 131.255 134.612  0.00  0.00    +0.000 C 
ENDBRANCH  18  19
ENDBRANCH   8  13
BRANCH  10  22
ATOM     21  O   UNL     1     109.691 129.585 139.508  0.00  0.00    +0.000 OA
ATOM     22  C   UNL     1     109.886 129.147 138.836  0.00  0.00    +0.000 C 
ENDBRANCH  10  22
BRANCH   5  23
ATOM     23  O   UNL     1     111.231 128.195 138.746  0.00  0.00    +0.000 OA
BRANCH  23  31
ATOM     24  O   UNL     1     111.599 127.916 140.100  0.00  0.00    +0.000 OA
ATOM     25  O   UNL     1     110.643 125.643 139.891  0.00  0.00    +0.000 OA
ATOM     26  O   UNL     1     110.594 126.679 138.608  0.00  0.00    +0.000 OA
ATOM     27  O   UNL     1     111.329 126.122 141.313  0.00  0.00    +0.000 OA
ATOM     28  C   UNL     1     110.962 126.401 139.960  0.00  0.00    +0.000 C 
ATOM     29  C   UNL     1     110.937 126.919 139.319  0.00  0.00    +0.000 C 
ATOM     30  C   UNL     1     111.305 126.641 140.671  0.00  0.00    +0.000 C 
ATOM     31  C   UNL     1     111.255 127.677 139.388  0.00  0.00    +0.000 C 
ATOM     32  C   UNL     1     111.624 127.398 140.741  0.00  0.00    +0.000 C 
BRANCH  32  34
ATOM     33  O   UNL     1     112.354 128.365 141.499  0.00  0.00    +0.000 OA
ATOM     34  C   UNL     1     111.967 127.638 141.452  0.00  0.00    +0.000 C 
ENDBRANCH  32  34
ENDBRANCH  23  31
ENDBRANCH   5  23
BRANCH   9  35
ATOM     35  O   UNL     1     109.816 130.559 137.986  0.00  0.00    +0.000 OA
BRANCH  35  43
ATOM     36  O   UNL     1     109.216 129.916 136.861  0.00  0.00    +0.000 OA
ATOM     37  O   UNL     1     107.765 131.890 136.507  0.00  0.00    +0.000 OA
ATOM     38  O   UNL     1     108.849 131.875 137.750  0.00  0.00    +0.000 OA
ATOM     39  O   UNL     1     107.648 130.589 135.500  0.00  0.00    +0.000 OA
ATOM     40  C   UNL     1     108.249 131.232 136.625  0.00  0.00    +0.000 C 
ATOM     41  C   UNL     1     108.791 131.224 137.247  0.00  0.00    +0.000 C 
ATOM     42  C   UNL     1     108.190 130.581 136.121  0.00  0.00    +0.000 C 
ATOM     43  C   UNL     1     109.275 130.566 137.365  0.00  0.00    +0.000 C 
ATOM     44  C   UNL     1     108.674 129.923 136.239  0.00  0.00    +0.000 C 
BRANCH  44  46
ATOM     45  O   UNL     1     108.264 128.575 136.001  0.00  0.00    +0.000 OA
ATOM     46  C   UNL     1     108.615 129.273 135.735  0.00  0.00    +0.000 C 
ENDBRANCH  44  46
ENDBRANCH  35  43
ENDBRANCH   9  35
TORSDOF 9
ENDMDL
MODEL 8
REMARK VINA RESULT:      -9.0      1.583      2.234
REMARK  Name = 44257138
REMARK  9 active torsions:
REMARK  status: ('A' for Active; 'I' for Inactive)
REMARK    1  A    between atoms: O_3  and  C_20
REMARK    2  A    between atoms: O_3  and  C_29
REMARK    3  A    between atoms: O_4  and  C_25
REMARK    4  A    between atoms: O_4  and  C_33
REMARK    5  A    between atoms: O_16  and  C_45
REMARK    6  A    between atoms: C_23  and  C_36
REMARK    7  A    between atoms: C_26  and  C_37
REMARK    8  A    between atoms: C_32  and  C_38
REMARK    9  A    between atoms: C_34  and  C_39
REMARK                            x       y       z     vdW  Elec       q    Type
REMARK                         _______ _______ _______ _____ _____    ______ ____
ROOT
ATOM      1  O   UNL     1     111.983 129.453 138.714  0.00  0.00    +0.000 OA
ATOM      2  O   UNL     1     112.875 127.221 138.711  0.00  0.00    +0.000 OA
ATOM      3  C   UNL     1     111.532 128.115 138.319  0.00  0.00    +0.000 A 
ATOM      4  C   UNL     1     112.284 127.779 138.565  0.00  0.00    +0.000 C 
ATOM      5  C   UNL     1     110.953 127.618 138.009  0.00  0.00    +0.000 A 
ATOM      6  C   UNL     1     112.893 128.292 138.890  0.00  0.00    +0.000 C 
ATOM      7  C   UNL     1     111.387 128.925 138.391  0.00  0.00    +0.000 A 
ATOM      8  C   UNL     1     112.741 129.135 138.964  0.00  0.00    +0.000 C 
ATOM      9  C   UNL     1     110.081 128.738 137.841  0.00  0.00    +0.000 A 
ATOM     10  C   UNL     1     110.227 127.930 137.769  0.00  0.00    +0.000 A 
ATOM     11  C   UNL     1     110.662 129.236 138.152  0.00  0.00    +0.000 A 
ATOM     12  C   UNL     1     110.516 130.045 138.223  0.00  0.00    +0.000 C 
ENDROOT
BRANCH   8  13
ATOM     13  C   UNL     1     113.319 129.634 139.275  0.00  0.00    +0.000 A 
ATOM     14  C   UNL     1     113.463 129.645 140.087  0.00  0.00    +0.000 A 
ATOM     15  C   UNL     1     113.753 130.124 138.773  0.00  0.00    +0.000 A 
ATOM     16  C   UNL     1     114.042 130.145 140.398  0.00  0.00    +0.000 A 
ATOM     17  C   UNL     1     114.332 130.624 139.084  0.00  0.00    +0.000 A 
ATOM     18  C   UNL     1     114.476 130.634 139.896  0.00  0.00    +0.000 A 
BRANCH  18  19
ATOM     19  O   UNL     1     115.054 131.134 140.206  0.00  0.00    +0.000 OA
ATOM     20  C   UNL     1     115.073 131.290 141.015  0.00  0.00    +0.000 C 
ENDBRANCH  18  19
ENDBRANCH   8  13
BRANCH  10  22
ATOM     21  O   UNL     1     109.014 127.193 137.931  0.00  0.00    +0.000 OA
ATOM     22  C   UNL     1     109.647 127.433 137.459  0.00  0.00    +0.000 C 
ENDBRANCH  10  22
BRANCH   5  23
ATOM     23  O   UNL     1     111.098 126.810 137.937  0.00  0.00    +0.000 OA
BRANCH  23  31
ATOM     24  O   UNL     1     111.385 126.022 136.779  0.00  0.00    +0.000 OA
ATOM     25  O   UNL     1     111.336 123.970 138.161  0.00  0.00    +0.000 OA
ATOM     26  O   UNL     1     111.065 125.440 138.858  0.00  0.00    +0.000 OA
ATOM     27  O   UNL     1     111.639 123.868 136.543  0.00  0.00    +0.000 OA
ATOM     28  C   UNL     1     111.352 124.655 137.700  0.00  0.00    +0.000 C 
ATOM     29  C   UNL     1     111.217 125.390 138.049  0.00  0.00    +0.000 C 
ATOM     30  C   UNL     1     111.504 124.604 136.891  0.00  0.00    +0.000 C 
ATOM     31  C   UNL     1     111.233 126.074 137.589  0.00  0.00    +0.000 C 
ATOM     32  C   UNL     1     111.521 125.287 136.430  0.00  0.00    +0.000 C 
BRANCH  32  34
ATOM     33  O   UNL     1     111.302 125.755 135.098  0.00  0.00    +0.000 OA
ATOM     34  C   UNL     1     111.672 125.236 135.621  0.00  0.00    +0.000 C 
ENDBRANCH  32  34
ENDBRANCH  23  31
ENDBRANCH   5  23
BRANCH   9  35
ATOM     35  O   UNL     1     109.356 129.050 137.602  0.00  0.00    +0.000 OA
BRANCH  35  43
ATOM     36  O   UNL     1     109.776 129.157 136.241  0.00  0.00    +0.000 OA
ATOM     37  O   UNL     1     108.062 130.899 135.849  0.00  0.00    +0.000 OA
ATOM     38  O   UNL     1     108.213 130.211 137.340  0.00  0.00    +0.000 OA
ATOM     39  O   UNL     1     109.054 130.425 134.618  0.00  0.00    +0.000 OA
ATOM     40  C   UNL     1     108.633 130.318 135.980  0.00  0.00    +0.000 C 
ATOM     41  C   UNL     1     108.709 129.974 136.725  0.00  0.00    +0.000 C 
ATOM     42  C   UNL     1     109.130 130.081 135.364  0.00  0.00    +0.000 C 
ATOM     43  C   UNL     1     109.280 129.393 136.856  0.00  0.00    +0.000 C 
ATOM     44  C   UNL     1     109.701 129.500 135.495  0.00  0.00    +0.000 C 
BRANCH  44  46
ATOM     45  O   UNL     1     110.989 129.492 134.876  0.00  0.00    +0.000 OA
ATOM     46  C   UNL     1     110.196 129.264 134.880  0.00  0.00    +0.000 C 
ENDBRANCH  44  46
ENDBRANCH  35  43
ENDBRANCH   9  35
TORSDOF 9
ENDMDL
MODEL 9
REMARK VINA RESULT:      -9.0      1.514      5.615
REMARK  Name = 44257138
REMARK  9 active torsions:
REMARK  status: ('A' for Active; 'I' for Inactive)
REMARK    1  A    between atoms: O_3  and  C_20
REMARK    2  A    between atoms: O_3  and  C_29
REMARK    3  A    between atoms: O_4  and  C_25
REMARK    4  A    between atoms: O_4  and  C_33
REMARK    5  A    between atoms: O_16  and  C_45
REMARK    6  A    between atoms: C_23  and  C_36
REMARK    7  A    between atoms: C_26  and  C_37
REMARK    8  A    between atoms: C_32  and  C_38
REMARK    9  A    between atoms: C_34  and  C_39
REMARK                            x       y       z     vdW  Elec       q    Type
REMARK                         _______ _______ _______ _____ _____    ______ ____
ROOT
ATOM      1  O   UNL     1     112.056 127.447 137.005  0.00  0.00    +0.000 OA
ATOM      2  O   UNL     1     109.955 127.967 135.960  0.00  0.00    +0.000 OA
ATOM      3  C   UNL     1     111.319 128.652 136.613  0.00  0.00    +0.000 A 
ATOM      4  C   UNL     1     110.675 128.171 136.309  0.00  0.00    +0.000 C 
ATOM      5  C   UNL     1     111.263 129.474 136.566  0.00  0.00    +0.000 A 
ATOM      6  C   UNL     1     110.727 127.314 136.355  0.00  0.00    +0.000 C 
ATOM      7  C   UNL     1     111.986 128.302 136.950  0.00  0.00    +0.000 A 
ATOM      8  C   UNL     1     111.423 126.951 136.705  0.00  0.00    +0.000 C 
ATOM      9  C   UNL     1     112.542 129.597 137.192  0.00  0.00    +0.000 A 
ATOM     10  C   UNL     1     111.874 129.946 136.855  0.00  0.00    +0.000 A 
ATOM     11  C   UNL     1     112.598 128.775 137.239  0.00  0.00    +0.000 A 
ATOM     12  C   UNL     1     113.265 128.426 137.575  0.00  0.00    +0.000 C 
ENDROOT
BRANCH   8  13
ATOM     13  C   UNL     1     111.481 126.129 136.753  0.00  0.00    +0.000 A 
ATOM     14  C   UNL     1     111.227 125.736 137.433  0.00  0.00    +0.000 A 
ATOM     15  C   UNL     1     111.795 125.700 136.122  0.00  0.00    +0.000 A 
ATOM     16  C   UNL     1     111.286 124.914 137.481  0.00  0.00    +0.000 A 
ATOM     17  C   UNL     1     111.853 124.879 136.171  0.00  0.00    +0.000 A 
ATOM     18  C   UNL     1     111.599 124.486 136.850  0.00  0.00    +0.000 A 
BRANCH  18  19
ATOM     19  O   UNL     1     111.657 123.665 136.898  0.00  0.00    +0.000 OA
ATOM     20  C   UNL     1     112.378 123.313 137.092  0.00  0.00    +0.000 C 
ENDBRANCH  18  19
ENDBRANCH   8  13
BRANCH  10  22
ATOM     21  O   UNL     1     112.255 131.178 136.241  0.00  0.00    +0.000 OA
ATOM     22  C   UNL     1     111.819 130.768 136.809  0.00  0.00    +0.000 C 
ENDBRANCH  10  22
BRANCH   5  23
ATOM     23  O   UNL     1     110.596 129.823 136.231  0.00  0.00    +0.000 OA
BRANCH  23  31
ATOM     24  O   UNL     1     109.486 130.483 136.844  0.00  0.00    +0.000 OA
ATOM     25  O   UNL     1     108.640 131.137 134.612  0.00  0.00    +0.000 OA
ATOM     26  O   UNL     1     110.031 130.259 134.742  0.00  0.00    +0.000 OA
ATOM     27  O   UNL     1     107.813 131.578 135.970  0.00  0.00    +0.000 OA
ATOM     28  C   UNL     1     108.922 130.919 135.357  0.00  0.00    +0.000 C 
ATOM     29  C   UNL     1     109.618 130.480 135.421  0.00  0.00    +0.000 C 
ATOM     30  C   UNL     1     108.509 131.139 136.035  0.00  0.00    +0.000 C 
ATOM     31  C   UNL     1     109.900 130.262 136.165  0.00  0.00    +0.000 C 
ATOM     32  C   UNL     1     108.790 130.922 136.779  0.00  0.00    +0.000 C 
BRANCH  32  34
ATOM     33  O   UNL     1     108.562 130.798 138.184  0.00  0.00    +0.000 OA
ATOM     34  C   UNL     1     108.377 131.143 137.458  0.00  0.00    +0.000 C 
ENDBRANCH  32  34
ENDBRANCH  23  31
ENDBRANCH   5  23
BRANCH   9  35
ATOM     35  O   UNL     1     113.153 130.069 137.481  0.00  0.00    +0.000 OA
BRANCH  35  43
ATOM     36  O   UNL     1     112.562 130.089 138.780  0.00  0.00    +0.000 OA
ATOM     37  O   UNL     1     114.685 130.931 139.734  0.00  0.00    +0.000 OA
ATOM     38  O   UNL     1     114.569 130.630 138.116  0.00  0.00    +0.000 OA
ATOM     39  O   UNL     1     113.386 130.670 140.716  0.00  0.00    +0.000 OA
ATOM     40  C   UNL     1     113.977 130.650 139.416  0.00  0.00    +0.000 C 
ATOM     41  C   UNL     1     113.919 130.500 138.607  0.00  0.00    +0.000 C 
ATOM     42  C   UNL     1     113.327 130.520 139.908  0.00  0.00    +0.000 C 
ATOM     43  C   UNL     1     113.211 130.219 138.289  0.00  0.00    +0.000 C 
ATOM     44  C   UNL     1     112.619 130.239 139.590  0.00  0.00    +0.000 C 
BRANCH  44  46
ATOM     45  O   UNL     1     111.318 130.613 140.046  0.00  0.00    +0.000 OA
ATOM     46  C   UNL     1     111.970 130.109 140.081  0.00  0.00    +0.000 C 
ENDBRANCH  44  46
ENDBRANCH  35  43
ENDBRANCH   9  35
TORSDOF 9
ENDMDL
MODEL 10
REMARK VINA RESULT:      -9.0      1.454      4.554
REMARK  Name = 44257138
REMARK  9 active torsions:
REMARK  status: ('A' for Active; 'I' for Inactive)
REMARK    1  A    between atoms: O_3  and  C_20
REMARK    2  A    between atoms: O_3  and  C_29
REMARK    3  A    between atoms: O_4  and  C_25
REMARK    4  A    between atoms: O_4  and  C_33
REMARK    5  A    between atoms: O_16  and  C_45
REMARK    6  A    between atoms: C_23  and  C_36
REMARK    7  A    between atoms: C_26  and  C_37
REMARK    8  A    between atoms: C_32  and  C_38
REMARK    9  A    between atoms: C_34  and  C_39
REMARK                            x       y       z     vdW  Elec       q    Type
REMARK                         _______ _______ _______ _____ _____    ______ ____
ROOT
ATOM      1  O   UNL     1     110.797 129.958 136.297  0.00  0.00    +0.000 OA
ATOM      2  O   UNL     1     110.031 127.710 135.927  0.00  0.00    +0.000 OA
ATOM      3  C   UNL     1     111.294 128.600 136.535  0.00  0.00    +0.000 A 
ATOM      4  C   UNL     1     110.580 128.268 136.191  0.00  0.00    +0.000 C 
ATOM      5  C   UNL     1     111.878 128.090 136.815  0.00  0.00    +0.000 A 
ATOM      6  C   UNL     1     109.966 128.794 135.897  0.00  0.00    +0.000 C 
ATOM      7  C   UNL     1     111.399 129.416 136.585  0.00  0.00    +0.000 A 
ATOM      8  C   UNL     1     110.076 129.644 135.950  0.00  0.00    +0.000 C 
ATOM      9  C   UNL     1     112.674 129.213 137.198  0.00  0.00    +0.000 A 
ATOM     10  C   UNL     1     112.568 128.397 137.147  0.00  0.00    +0.000 A 
ATOM     11  C   UNL     1     112.089 129.723 136.917  0.00  0.00    +0.000 A 
ATOM     12  C   UNL     1     112.195 130.540 136.969  0.00  0.00    +0.000 C 
ENDROOT
BRANCH   8  13
ATOM     13  C   UNL     1     109.493 130.156 135.670  0.00  0.00    +0.000 A 
ATOM     14  C   UNL     1     108.878 130.394 136.167  0.00  0.00    +0.000 A 
ATOM     15  C   UNL     1     109.524 130.432 134.893  0.00  0.00    +0.000 A 
ATOM     16  C   UNL     1     108.295 130.906 135.887  0.00  0.00    +0.000 A 
ATOM     17  C   UNL     1     108.941 130.944 134.613  0.00  0.00    +0.000 A 
ATOM     18  C   UNL     1     108.327 131.181 135.110  0.00  0.00    +0.000 A 
BRANCH  18  19
ATOM     19  O   UNL     1     107.744 131.693 134.830  0.00  0.00    +0.000 OA
ATOM     20  C   UNL     1     107.942 132.463 134.612  0.00  0.00    +0.000 C 
ENDBRANCH  18  19
ENDBRANCH   8  13
BRANCH  10  22
ATOM     21  O   UNL     1     113.826 127.742 136.972  0.00  0.00    +0.000 OA
ATOM     22  C   UNL     1     113.153 127.888 137.428  0.00  0.00    +0.000 C 
ENDBRANCH  10  22
BRANCH   5  23
ATOM     23  O   UNL     1     111.773 127.274 136.764  0.00  0.00    +0.000 OA
BRANCH  23  31
ATOM     24  O   UNL     1     111.368 126.324 137.753  0.00  0.00    +0.000 OA
ATOM     25  O   UNL     1     111.872 124.476 136.186  0.00  0.00    +0.000 OA
ATOM     26  O   UNL     1     112.109 126.041 135.719  0.00  0.00    +0.000 OA
ATOM     27  O   UNL     1     111.300 124.143 137.696  0.00  0.00    +0.000 OA
ATOM     28  C   UNL     1     111.704 125.093 136.708  0.00  0.00    +0.000 C 
ATOM     29  C   UNL     1     111.823 125.875 136.475  0.00  0.00    +0.000 C 
ATOM     30  C   UNL     1     111.418 124.926 137.464  0.00  0.00    +0.000 C 
ATOM     31  C   UNL     1     111.655 126.491 136.997  0.00  0.00    +0.000 C 
ATOM     32  C   UNL     1     111.250 125.542 137.986  0.00  0.00    +0.000 C 
BRANCH  32  34
ATOM     33  O   UNL     1     111.280 125.762 139.398  0.00  0.00    +0.000 OA
ATOM     34  C   UNL     1     110.963 125.375 138.741  0.00  0.00    +0.000 C 
ENDBRANCH  32  34
ENDBRANCH  23  31
ENDBRANCH   5  23
BRANCH   9  35
ATOM     35  O   UNL     1     113.364 129.520 137.530  0.00  0.00    +0.000 OA
BRANCH  35  43
ATOM     36  O   UNL     1     112.773 129.536 138.830  0.00  0.00    +0.000 OA
ATOM     37  O   UNL     1     114.547 131.071 139.618  0.00  0.00    +0.000 OA
ATOM     38  O   UNL     1     114.547 130.543 138.056  0.00  0.00    +0.000 OA
ATOM     39  O   UNL     1     113.364 130.576 140.656  0.00  0.00    +0.000 OA
ATOM     40  C   UNL     1     113.956 130.560 139.355  0.00  0.00    +0.000 C 
ATOM     41  C   UNL     1     113.955 130.295 138.574  0.00  0.00    +0.000 C 
ATOM     42  C   UNL     1     113.364 130.312 139.875  0.00  0.00    +0.000 C 
ATOM     43  C   UNL     1     113.364 129.784 138.311  0.00  0.00    +0.000 C 
ATOM     44  C   UNL     1     112.772 129.800 139.612  0.00  0.00    +0.000 C 
BRANCH  44  46
ATOM     45  O   UNL     1     112.154 128.767 140.382  0.00  0.00    +0.000 OA
ATOM     46  C   UNL     1     112.181 129.552 140.131  0.00  0.00    +0.000 C 
ENDBRANCH  44  46
ENDBRANCH  35  43
ENDBRANCH   9  35
TORSDOF 9
ENDMDL
