MODEL 1
REMARK VINA RESULT:     -10.7      0.000      0.000
REMARK  Name = 44257728
REMARK  11 active torsions:
REMARK  status: ('A' for Active; 'I' for Inactive)
REMARK    1  A    between atoms: O_1  and  C_19
REMARK    2  A    between atoms: O_1  and  C_24
REMARK    3  A    between atoms: O_10  and  C_31
REMARK    4  A    between atoms: O_10  and  C_40
REMARK    5  A    between atoms: O_17  and  C_52
REMARK    6  A    between atoms: C_21  and  C_29
REMARK    7  A    between atoms: C_23  and  C_30
REMARK    8  A    between atoms: C_28  and  C_31
REMARK    9  A    between atoms: C_39  and  C_41
REMARK   10  A    between atoms: C_40  and  C_42
REMARK   11  A    between atoms: C_45  and  C_49
REMARK                            x       y       z     vdW  Elec       q    Type
REMARK                         _______ _______ _______ _____ _____    ______ ____
ROOT
ATOM      1  O   UNL     1     112.846 129.204 136.759  0.00  0.00    +0.000 OA
ATOM      2  O   UNL     1     110.977 129.694 135.212  0.00  0.00    +0.000 OA
ATOM      3  O   UNL     1     112.469 129.323 134.612  0.00  0.00    +0.000 OA
ATOM      4  C   UNL     1     111.478 129.554 136.543  0.00  0.00    +0.000 C 
ATOM      5  C   UNL     1     111.600 129.531 135.728  0.00  0.00    +0.000 C 
ATOM      6  C   UNL     1     112.100 129.390 137.059  0.00  0.00    +0.000 C 
ATOM      7  C   UNL     1     112.345 129.345 135.428  0.00  0.00    +0.000 C 
ATOM      8  C   UNL     1     112.969 129.182 135.943  0.00  0.00    +0.000 C 
ENDROOT
BRANCH   6  13
ATOM      9  O   UNL     1     111.947 127.985 137.910  0.00  0.00    +0.000 OA
ATOM     10  O   UNL     1     112.009 130.842 137.838  0.00  0.00    +0.000 OA
ATOM     11  O   UNL     1     111.607 129.496 140.354  0.00  0.00    +0.000 OA
ATOM     12  O   UNL     1     111.749 127.274 139.150  0.00  0.00    +0.000 OA
ATOM     13  C   UNL     1     111.978 129.413 137.874  0.00  0.00    +0.000 A 
ATOM     14  C   UNL     1     111.902 128.711 138.300  0.00  0.00    +0.000 A 
ATOM     15  C   UNL     1     111.932 130.138 138.264  0.00  0.00    +0.000 A 
ATOM     16  C   UNL     1     111.780 128.733 139.116  0.00  0.00    +0.000 A 
ATOM     17  C   UNL     1     111.810 130.162 139.080  0.00  0.00    +0.000 A 
ATOM     18  C   UNL     1     111.734 129.459 139.506  0.00  0.00    +0.000 A 
ATOM     19  C   UNL     1     111.702 127.995 139.548  0.00  0.00    +0.000 A 
ATOM     20  C   UNL     1     111.575 128.012 140.398  0.00  0.00    +0.000 A 
ATOM     21  C   UNL     1     111.527 128.768 140.804  0.00  0.00    +0.000 A 
BRANCH  21  23
ATOM     22  O   UNL     1     111.042 128.875 144.066  0.00  0.00    +0.000 OA
ATOM     23  C   UNL     1     111.405 128.795 141.620  0.00  0.00    +0.000 A 
ATOM     24  C   UNL     1     110.638 128.816 141.922  0.00  0.00    +0.000 A 
ATOM     25  C   UNL     1     112.051 128.800 142.133  0.00  0.00    +0.000 A 
ATOM     26  C   UNL     1     110.516 128.843 142.737  0.00  0.00    +0.000 A 
ATOM     27  C   UNL     1     111.930 128.827 142.948  0.00  0.00    +0.000 A 
ATOM     28  C   UNL     1     111.163 128.848 143.250  0.00  0.00    +0.000 A 
ENDBRANCH  21  23
ENDBRANCH   6  13
BRANCH   8  30
ATOM     29  O   UNL     1     114.371 129.444 135.864  0.00  0.00    +0.000 OA
ATOM     30  C   UNL     1     113.715 128.996 135.643  0.00  0.00    +0.000 C 
ENDBRANCH   8  30
BRANCH   4  31
ATOM     31  O   UNL     1     110.732 129.740 136.843  0.00  0.00    +0.000 OA
BRANCH  31  36
ATOM     32  O   UNL     1     110.109 128.580 136.288  0.00  0.00    +0.000 OA
ATOM     33  O   UNL     1     109.297 130.549 136.763  0.00  0.00    +0.000 OA
ATOM     34  O   UNL     1     107.956 129.794 136.167  0.00  0.00    +0.000 OA
ATOM     35  O   UNL     1     108.050 128.230 135.652  0.00  0.00    +0.000 OA
ATOM     36  C   UNL     1     110.061 129.362 136.545  0.00  0.00    +0.000 C 
ATOM     37  C   UNL     1     109.343 129.767 136.505  0.00  0.00    +0.000 C 
ATOM     38  C   UNL     1     108.673 129.390 136.207  0.00  0.00    +0.000 C 
ATOM     39  C   UNL     1     108.720 128.607 135.949  0.00  0.00    +0.000 C 
ATOM     40  C   UNL     1     109.438 128.202 135.990  0.00  0.00    +0.000 C 
BRANCH  40  41
ATOM     41  C   UNL     1     109.486 127.420 135.732  0.00  0.00    +0.000 C 
BRANCH  41  42
ATOM     42  O   UNL     1     109.936 126.873 136.157  0.00  0.00    +0.000 OA
BRANCH  42  44
ATOM     43  O   UNL     1     109.793 125.924 135.098  0.00  0.00    +0.000 OA
ATOM     44  C   UNL     1     110.132 126.148 135.816  0.00  0.00    +0.000 C 
BRANCH  44  45
ATOM     45  C   UNL     1     110.669 125.647 136.194  0.00  0.00    +0.000 C 
ATOM     46  C   UNL     1     111.382 125.455 135.825  0.00  0.00    +0.000 C 
BRANCH  46  48
ATOM     47  O   UNL     1     113.524 123.450 137.336  0.00  0.00    +0.000 OA
ATOM     48  C   UNL     1     111.918 124.954 136.203  0.00  0.00    +0.000 A 
ATOM     49  C   UNL     1     112.666 125.232 136.412  0.00  0.00    +0.000 A 
ATOM     50  C   UNL     1     111.705 124.174 136.372  0.00  0.00    +0.000 A 
ATOM     51  C   UNL     1     113.201 124.730 136.790  0.00  0.00    +0.000 A 
ATOM     52  C   UNL     1     112.240 123.674 136.750  0.00  0.00    +0.000 A 
ATOM     53  C   UNL     1     112.989 123.952 136.959  0.00  0.00    +0.000 A 
BRANCH  51  54
ATOM     54  O   UNL     1     113.949 125.008 136.999  0.00  0.00    +0.000 OA
ATOM     55  C   UNL     1     114.328 125.568 136.527  0.00  0.00    +0.000 C 
ENDBRANCH  51  54
ENDBRANCH  46  48
ENDBRANCH  44  45
ENDBRANCH  42  44
ENDBRANCH  41  42
ENDBRANCH  40  41
ENDBRANCH  31  36
ENDBRANCH   4  31
TORSDOF 11
ENDMDL
MODEL 2
REMARK VINA RESULT:     -10.5      1.899      5.780
REMARK  Name = 44257728
REMARK  11 active torsions:
REMARK  status: ('A' for Active; 'I' for Inactive)
REMARK    1  A    between atoms: O_1  and  C_19
REMARK    2  A    between atoms: O_1  and  C_24
REMARK    3  A    between atoms: O_10  and  C_31
REMARK    4  A    between atoms: O_10  and  C_40
REMARK    5  A    between atoms: O_17  and  C_52
REMARK    6  A    between atoms: C_21  and  C_29
REMARK    7  A    between atoms: C_23  and  C_30
REMARK    8  A    between atoms: C_28  and  C_31
REMARK    9  A    between atoms: C_39  and  C_41
REMARK   10  A    between atoms: C_40  and  C_42
REMARK   11  A    between atoms: C_45  and  C_49
REMARK                            x       y       z     vdW  Elec       q    Type
REMARK                         _______ _______ _______ _____ _____    ______ ____
ROOT
ATOM      1  O   UNL     1     114.225 129.696 140.366  0.00  0.00    +0.000 OA
ATOM      2  O   UNL     1     112.602 130.342 142.118  0.00  0.00    +0.000 OA
ATOM      3  O   UNL     1     113.875 131.331 141.768  0.00  0.00    +0.000 OA
ATOM      4  C   UNL     1     113.048 129.416 141.124  0.00  0.00    +0.000 C 
ATOM      5  C   UNL     1     113.143 130.127 141.534  0.00  0.00    +0.000 C 
ATOM      6  C   UNL     1     113.589 129.201 140.541  0.00  0.00    +0.000 C 
ATOM      7  C   UNL     1     113.779 130.621 141.359  0.00  0.00    +0.000 C 
ATOM      8  C   UNL     1     114.321 130.406 140.774  0.00  0.00    +0.000 C 
ENDROOT
BRANCH   6  13
ATOM      9  O   UNL     1     112.991 129.208 139.003  0.00  0.00    +0.000 OA
ATOM     10  O   UNL     1     113.998 127.774 141.261  0.00  0.00    +0.000 OA
ATOM     11  O   UNL     1     113.212 126.325 138.898  0.00  0.00    +0.000 OA
ATOM     12  O   UNL     1     112.587 128.519 137.800  0.00  0.00    +0.000 OA
ATOM     13  C   UNL     1     113.494 128.491 140.131  0.00  0.00    +0.000 A 
ATOM     14  C   UNL     1     113.196 128.494 139.363  0.00  0.00    +0.000 A 
ATOM     15  C   UNL     1     113.699 127.778 140.491  0.00  0.00    +0.000 A 
ATOM     16  C   UNL     1     113.101 127.784 138.953  0.00  0.00    +0.000 A 
ATOM     17  C   UNL     1     113.604 127.067 140.083  0.00  0.00    +0.000 A 
ATOM     18  C   UNL     1     113.305 127.071 139.313  0.00  0.00    +0.000 A 
ATOM     19  C   UNL     1     112.789 127.801 138.153  0.00  0.00    +0.000 A 
ATOM     20  C   UNL     1     112.688 127.064 137.721  0.00  0.00    +0.000 A 
ATOM     21  C   UNL     1     112.901 126.321 138.096  0.00  0.00    +0.000 A 
BRANCH  21  23
ATOM     22  O   UNL     1     112.531 123.473 136.472  0.00  0.00    +0.000 OA
ATOM     23  C   UNL     1     112.808 125.609 137.690  0.00  0.00    +0.000 A 
ATOM     24  C   UNL     1     112.068 125.245 137.657  0.00  0.00    +0.000 A 
ATOM     25  C   UNL     1     113.456 125.260 137.316  0.00  0.00    +0.000 A 
ATOM     26  C   UNL     1     111.975 124.534 137.252  0.00  0.00    +0.000 A 
ATOM     27  C   UNL     1     113.363 124.548 136.910  0.00  0.00    +0.000 A 
ATOM     28  C   UNL     1     112.623 124.185 136.878  0.00  0.00    +0.000 A 
ENDBRANCH  21  23
ENDBRANCH   6  13
BRANCH   8  30
ATOM     29  O   UNL     1     115.710 130.581 140.489  0.00  0.00    +0.000 OA
ATOM     30  C   UNL     1     114.957 130.901 140.599  0.00  0.00    +0.000 C 
ENDBRANCH   8  30
BRANCH   4  31
ATOM     31  O   UNL     1     112.411 128.922 141.299  0.00  0.00    +0.000 OA
BRANCH  31  36
ATOM     32  O   UNL     1     111.405 129.819 140.827  0.00  0.00    +0.000 OA
ATOM     33  O   UNL     1     111.376 128.373 142.461  0.00  0.00    +0.000 OA
ATOM     34  O   UNL     1     109.852 128.996 142.569  0.00  0.00    +0.000 OA
ATOM     35  O   UNL     1     109.363 130.168 141.516  0.00  0.00    +0.000 OA
ATOM     36  C   UNL     1     111.649 129.233 141.354  0.00  0.00    +0.000 C 
ATOM     37  C   UNL     1     111.131 128.959 141.935  0.00  0.00    +0.000 C 
ATOM     38  C   UNL     1     110.370 129.270 141.988  0.00  0.00    +0.000 C 
ATOM     39  C   UNL     1     110.125 129.856 141.462  0.00  0.00    +0.000 C 
ATOM     40  C   UNL     1     110.642 130.131 140.881  0.00  0.00    +0.000 C 
BRANCH  40  41
ATOM     41  C   UNL     1     110.398 130.717 140.354  0.00  0.00    +0.000 C 
BRANCH  41  42
ATOM     42  O   UNL     1     110.481 130.600 139.541  0.00  0.00    +0.000 OA
BRANCH  42  44
ATOM     43  O   UNL     1     110.636 131.978 139.195  0.00  0.00    +0.000 OA
ATOM     44  C   UNL     1     110.348 131.225 139.019  0.00  0.00    +0.000 C 
BRANCH  44  45
ATOM     45  C   UNL     1     109.926 131.096 138.321  0.00  0.00    +0.000 C 
ATOM     46  C   UNL     1     110.284 131.240 137.592  0.00  0.00    +0.000 C 
BRANCH  46  48
ATOM     47  O   UNL     1     108.596 130.728 134.803  0.00  0.00    +0.000 OA
ATOM     48  C   UNL     1     109.863 131.111 136.894  0.00  0.00    +0.000 A 
ATOM     49  C   UNL     1     110.225 130.734 136.256  0.00  0.00    +0.000 A 
ATOM     50  C   UNL     1     109.078 131.361 136.835  0.00  0.00    +0.000 A 
ATOM     51  C   UNL     1     109.802 130.606 135.559  0.00  0.00    +0.000 A 
ATOM     52  C   UNL     1     108.657 131.233 136.138  0.00  0.00    +0.000 A 
ATOM     53  C   UNL     1     109.019 130.855 135.500  0.00  0.00    +0.000 A 
BRANCH  51  54
ATOM     54  O   UNL     1     110.164 130.229 134.921  0.00  0.00    +0.000 OA
ATOM     55  C   UNL     1     110.683 129.601 135.053  0.00  0.00    +0.000 C 
ENDBRANCH  51  54
ENDBRANCH  46  48
ENDBRANCH  44  45
ENDBRANCH  42  44
ENDBRANCH  41  42
ENDBRANCH  40  41
ENDBRANCH  31  36
ENDBRANCH   4  31
TORSDOF 11
ENDMDL
MODEL 3
REMARK VINA RESULT:     -10.4      2.048      5.738
REMARK  Name = 44257728
REMARK  11 active torsions:
REMARK  status: ('A' for Active; 'I' for Inactive)
REMARK    1  A    between atoms: O_1  and  C_19
REMARK    2  A    between atoms: O_1  and  C_24
REMARK    3  A    between atoms: O_10  and  C_31
REMARK    4  A    between atoms: O_10  and  C_40
REMARK    5  A    between atoms: O_17  and  C_52
REMARK    6  A    between atoms: C_21  and  C_29
REMARK    7  A    between atoms: C_23  and  C_30
REMARK    8  A    between atoms: C_28  and  C_31
REMARK    9  A    between atoms: C_39  and  C_41
REMARK   10  A    between atoms: C_40  and  C_42
REMARK   11  A    between atoms: C_45  and  C_49
REMARK                            x       y       z     vdW  Elec       q    Type
REMARK                         _______ _______ _______ _____ _____    ______ ____
ROOT
ATOM      1  O   UNL     1     111.488 125.936 136.879  0.00  0.00    +0.000 OA
ATOM      2  O   UNL     1     110.566 124.899 138.927  0.00  0.00    +0.000 OA
ATOM      3  O   UNL     1     111.696 124.096 138.033  0.00  0.00    +0.000 OA
ATOM      4  C   UNL     1     110.616 125.992 138.008  0.00  0.00    +0.000 C 
ATOM      5  C   UNL     1     110.873 125.245 138.245  0.00  0.00    +0.000 C 
ATOM      6  C   UNL     1     110.923 126.338 137.326  0.00  0.00    +0.000 C 
ATOM      7  C   UNL     1     111.438 124.843 137.798  0.00  0.00    +0.000 C 
ATOM      8  C   UNL     1     111.746 125.189 137.114  0.00  0.00    +0.000 C 
ENDROOT
BRANCH   6  13
ATOM      9  O   UNL     1     109.469 126.509 136.565  0.00  0.00    +0.000 OA
ATOM     10  O   UNL     1     111.864 127.662 137.614  0.00  0.00    +0.000 OA
ATOM     11  O   UNL     1     109.896 129.364 136.376  0.00  0.00    +0.000 OA
ATOM     12  O   UNL     1     108.459 127.327 135.937  0.00  0.00    +0.000 OA
ATOM     13  C   UNL     1     110.666 127.085 137.089  0.00  0.00    +0.000 A 
ATOM     14  C   UNL     1     109.939 127.171 136.709  0.00  0.00    +0.000 A 
ATOM     15  C   UNL     1     111.136 127.748 137.234  0.00  0.00    +0.000 A 
ATOM     16  C   UNL     1     109.682 127.918 136.473  0.00  0.00    +0.000 A 
ATOM     17  C   UNL     1     110.880 128.495 136.998  0.00  0.00    +0.000 A 
ATOM     18  C   UNL     1     110.152 128.581 136.617  0.00  0.00    +0.000 A 
ATOM     19  C   UNL     1     108.923 127.994 136.078  0.00  0.00    +0.000 A 
ATOM     20  C   UNL     1     108.650 128.771 135.829  0.00  0.00    +0.000 A 
ATOM     21  C   UNL     1     109.140 129.460 135.979  0.00  0.00    +0.000 A 
BRANCH  21  23
ATOM     22  O   UNL     1     108.125 132.456 135.042  0.00  0.00    +0.000 OA
ATOM     23  C   UNL     1     108.886 130.210 135.744  0.00  0.00    +0.000 A 
ATOM     24  C   UNL     1     109.133 130.522 135.021  0.00  0.00    +0.000 A 
ATOM     25  C   UNL     1     108.385 130.647 136.233  0.00  0.00    +0.000 A 
ATOM     26  C   UNL     1     108.880 131.270 134.787  0.00  0.00    +0.000 A 
ATOM     27  C   UNL     1     108.131 131.396 135.999  0.00  0.00    +0.000 A 
ATOM     28  C   UNL     1     108.379 131.707 135.276  0.00  0.00    +0.000 A 
ENDBRANCH  21  23
ENDBRANCH   6  13
BRANCH   8  30
ATOM     29  O   UNL     1     112.256 124.778 135.844  0.00  0.00    +0.000 OA
ATOM     30  C   UNL     1     112.312 124.788 136.668  0.00  0.00    +0.000 C 
ENDBRANCH   8  30
BRANCH   4  31
ATOM     31  O   UNL     1     110.050 126.394 138.455  0.00  0.00    +0.000 OA
BRANCH  31  36
ATOM     32  O   UNL     1     110.849 126.568 139.627  0.00  0.00    +0.000 OA
ATOM     33  O   UNL     1     108.719 126.152 139.399  0.00  0.00    +0.000 OA
ATOM     34  O   UNL     1     108.852 126.205 141.043  0.00  0.00    +0.000 OA
ATOM     35  O   UNL     1     110.316 126.500 141.743  0.00  0.00    +0.000 OA
ATOM     36  C   UNL     1     110.117 126.420 139.278  0.00  0.00    +0.000 C 
ATOM     37  C   UNL     1     109.451 126.299 139.750  0.00  0.00    +0.000 C 
ATOM     38  C   UNL     1     109.518 126.326 140.571  0.00  0.00    +0.000 C 
ATOM     39  C   UNL     1     110.250 126.473 140.922  0.00  0.00    +0.000 C 
ATOM     40  C   UNL     1     110.916 126.594 140.450  0.00  0.00    +0.000 C 
BRANCH  40  41
ATOM     41  C   UNL     1     111.648 126.742 140.799  0.00  0.00    +0.000 C 
BRANCH  41  42
ATOM     42  O   UNL     1     112.142 127.327 140.490  0.00  0.00    +0.000 OA
BRANCH  42  44
ATOM     43  O   UNL     1     113.284 126.885 141.226  0.00  0.00    +0.000 OA
ATOM     44  C   UNL     1     112.865 127.489 140.851  0.00  0.00    +0.000 C 
BRANCH  44  45
ATOM     45  C   UNL     1     113.170 128.256 140.838  0.00  0.00    +0.000 C 
ATOM     46  C   UNL     1     113.724 128.469 140.265  0.00  0.00    +0.000 C 
BRANCH  46  48
ATOM     47  O   UNL     1     114.943 131.536 140.217  0.00  0.00    +0.000 OA
ATOM     48  C   UNL     1     114.028 129.236 140.253  0.00  0.00    +0.000 A 
ATOM     49  C   UNL     1     113.921 129.712 139.587  0.00  0.00    +0.000 A 
ATOM     50  C   UNL     1     114.440 129.526 140.906  0.00  0.00    +0.000 A 
ATOM     51  C   UNL     1     114.226 130.479 139.576  0.00  0.00    +0.000 A 
ATOM     52  C   UNL     1     114.745 130.293 140.894  0.00  0.00    +0.000 A 
ATOM     53  C   UNL     1     114.638 130.769 140.229  0.00  0.00    +0.000 A 
BRANCH  51  54
ATOM     54  O   UNL     1     114.119 130.955 138.911  0.00  0.00    +0.000 OA
ATOM     55  C   UNL     1     113.967 130.611 138.177  0.00  0.00    +0.000 C 
ENDBRANCH  51  54
ENDBRANCH  46  48
ENDBRANCH  44  45
ENDBRANCH  42  44
ENDBRANCH  41  42
ENDBRANCH  40  41
ENDBRANCH  31  36
ENDBRANCH   4  31
TORSDOF 11
ENDMDL
MODEL 4
REMARK VINA RESULT:     -10.3      4.020      6.201
REMARK  Name = 44257728
REMARK  11 active torsions:
REMARK  status: ('A' for Active; 'I' for Inactive)
REMARK    1  A    between atoms: O_1  and  C_19
REMARK    2  A    between atoms: O_1  and  C_24
REMARK    3  A    between atoms: O_10  and  C_31
REMARK    4  A    between atoms: O_10  and  C_40
REMARK    5  A    between atoms: O_17  and  C_52
REMARK    6  A    between atoms: C_21  and  C_29
REMARK    7  A    between atoms: C_23  and  C_30
REMARK    8  A    between atoms: C_28  and  C_31
REMARK    9  A    between atoms: C_39  and  C_41
REMARK   10  A    between atoms: C_40  and  C_42
REMARK   11  A    between atoms: C_45  and  C_49
REMARK                            x       y       z     vdW  Elec       q    Type
REMARK                         _______ _______ _______ _____ _____    ______ ____
ROOT
ATOM      1  O   UNL     1     110.281 130.889 141.732  0.00  0.00    +0.000 OA
ATOM      2  O   UNL     1     112.057 130.607 140.033  0.00  0.00    +0.000 OA
ATOM      3  O   UNL     1     110.470 130.556 139.584  0.00  0.00    +0.000 OA
ATOM      4  C   UNL     1     111.666 130.821 141.391  0.00  0.00    +0.000 C 
ATOM      5  C   UNL     1     111.466 130.701 140.599  0.00  0.00    +0.000 C 
ATOM      6  C   UNL     1     111.075 130.915 141.957  0.00  0.00    +0.000 C 
ATOM      7  C   UNL     1     110.672 130.675 140.375  0.00  0.00    +0.000 C 
ATOM      8  C   UNL     1     110.079 130.769 140.942  0.00  0.00    +0.000 C 
ENDROOT
BRANCH   6  13
ATOM      9  O   UNL     1     111.525 132.414 142.477  0.00  0.00    +0.000 OA
ATOM     10  O   UNL     1     111.025 129.653 143.019  0.00  0.00    +0.000 OA
ATOM     11  O   UNL     1     111.883 131.384 145.157  0.00  0.00    +0.000 OA
ATOM     12  O   UNL     1     111.956 133.314 143.520  0.00  0.00    +0.000 OA
ATOM     13  C   UNL     1     111.275 131.035 142.748  0.00  0.00    +0.000 A 
ATOM     14  C   UNL     1     111.500 131.784 143.008  0.00  0.00    +0.000 A 
ATOM     15  C   UNL     1     111.251 130.404 143.280  0.00  0.00    +0.000 A 
ATOM     16  C   UNL     1     111.701 131.904 143.800  0.00  0.00    +0.000 A 
ATOM     17  C   UNL     1     111.451 130.522 144.071  0.00  0.00    +0.000 A 
ATOM     18  C   UNL     1     111.676 131.273 144.331  0.00  0.00    +0.000 A 
ATOM     19  C   UNL     1     111.934 132.689 144.058  0.00  0.00    +0.000 A 
ATOM     20  C   UNL     1     112.144 132.820 144.882  0.00  0.00    +0.000 A 
ATOM     21  C   UNL     1     112.118 132.163 145.435  0.00  0.00    +0.000 A 
BRANCH  21  23
ATOM     22  O   UNL     1     112.919 132.624 148.602  0.00  0.00    +0.000 OA
ATOM     23  C   UNL     1     112.318 132.279 146.227  0.00  0.00    +0.000 A 
ATOM     24  C   UNL     1     111.792 132.661 146.735  0.00  0.00    +0.000 A 
ATOM     25  C   UNL     1     113.045 132.011 146.512  0.00  0.00    +0.000 A 
ATOM     26  C   UNL     1     111.992 132.776 147.526  0.00  0.00    +0.000 A 
ATOM     27  C   UNL     1     113.245 132.126 147.304  0.00  0.00    +0.000 A 
ATOM     28  C   UNL     1     112.719 132.509 147.810  0.00  0.00    +0.000 A 
ENDBRANCH  21  23
ENDBRANCH   6  13
BRANCH   8  30
ATOM     29  O   UNL     1     108.734 131.225 141.098  0.00  0.00    +0.000 OA
ATOM     30  C   UNL     1     109.286 130.744 140.717  0.00  0.00    +0.000 C 
ENDBRANCH   8  30
BRANCH   4  31
ATOM     31  O   UNL     1     112.460 130.846 141.615  0.00  0.00    +0.000 OA
BRANCH  31  36
ATOM     32  O   UNL     1     112.733 129.502 141.215  0.00  0.00    +0.000 OA
ATOM     33  O   UNL     1     114.022 131.262 141.285  0.00  0.00    +0.000 OA
ATOM     34  O   UNL     1     115.076 130.125 140.720  0.00  0.00    +0.000 OA
ATOM     35  O   UNL     1     114.568 128.573 140.485  0.00  0.00    +0.000 OA
ATOM     36  C   UNL     1     112.987 130.277 141.332  0.00  0.00    +0.000 C 
ATOM     37  C   UNL     1     113.769 130.485 141.168  0.00  0.00    +0.000 C 
ATOM     38  C   UNL     1     114.295 129.917 140.885  0.00  0.00    +0.000 C 
ATOM     39  C   UNL     1     114.042 129.141 140.768  0.00  0.00    +0.000 C 
ATOM     40  C   UNL     1     113.261 128.933 140.932  0.00  0.00    +0.000 C 
BRANCH  40  41
ATOM     41  C   UNL     1     113.006 128.157 140.815  0.00  0.00    +0.000 C 
BRANCH  41  42
ATOM     42  O   UNL     1     112.436 127.830 141.316  0.00  0.00    +0.000 OA
BRANCH  42  44
ATOM     43  O   UNL     1     112.580 126.417 141.160  0.00  0.00    +0.000 OA
ATOM     44  C   UNL     1     112.109 127.094 141.141  0.00  0.00    +0.000 C 
BRANCH  44  45
ATOM     45  C   UNL     1     111.308 127.034 140.948  0.00  0.00    +0.000 C 
ATOM     46  C   UNL     1     110.796 126.617 141.441  0.00  0.00    +0.000 C 
BRANCH  46  48
ATOM     47  O   UNL     1     107.597 126.377 140.665  0.00  0.00    +0.000 OA
ATOM     48  C   UNL     1     109.996 126.557 141.247  0.00  0.00    +0.000 A 
ATOM     49  C   UNL     1     109.461 127.121 141.525  0.00  0.00    +0.000 A 
ATOM     50  C   UNL     1     109.731 125.934 140.775  0.00  0.00    +0.000 A 
ATOM     51  C   UNL     1     108.661 127.060 141.331  0.00  0.00    +0.000 A 
ATOM     52  C   UNL     1     108.932 125.874 140.582  0.00  0.00    +0.000 A 
ATOM     53  C   UNL     1     108.397 126.438 140.860  0.00  0.00    +0.000 A 
BRANCH  51  54
ATOM     54  O   UNL     1     108.126 127.623 141.608  0.00  0.00    +0.000 OA
ATOM     55  C   UNL     1     108.032 127.739 142.420  0.00  0.00    +0.000 C 
ENDBRANCH  51  54
ENDBRANCH  46  48
ENDBRANCH  44  45
ENDBRANCH  42  44
ENDBRANCH  41  42
ENDBRANCH  40  41
ENDBRANCH  31  36
ENDBRANCH   4  31
TORSDOF 11
ENDMDL
MODEL 5
REMARK VINA RESULT:     -10.2      6.110      9.782
REMARK  Name = 44257728
REMARK  11 active torsions:
REMARK  status: ('A' for Active; 'I' for Inactive)
REMARK    1  A    between atoms: O_1  and  C_19
REMARK    2  A    between atoms: O_1  and  C_24
REMARK    3  A    between atoms: O_10  and  C_31
REMARK    4  A    between atoms: O_10  and  C_40
REMARK    5  A    between atoms: O_17  and  C_52
REMARK    6  A    between atoms: C_21  and  C_29
REMARK    7  A    between atoms: C_23  and  C_30
REMARK    8  A    between atoms: C_28  and  C_31
REMARK    9  A    between atoms: C_39  and  C_41
REMARK   10  A    between atoms: C_40  and  C_42
REMARK   11  A    between atoms: C_45  and  C_49
REMARK                            x       y       z     vdW  Elec       q    Type
REMARK                         _______ _______ _______ _____ _____    ______ ____
ROOT
ATOM      1  O   UNL     1     105.261 127.146 142.902  0.00  0.00    +0.000 OA
ATOM      2  O   UNL     1     107.611 127.453 142.192  0.00  0.00    +0.000 OA
ATOM      3  O   UNL     1     107.167 126.089 143.006  0.00  0.00    +0.000 OA
ATOM      4  C   UNL     1     106.266 127.930 142.259  0.00  0.00    +0.000 C 
ATOM      5  C   UNL     1     106.828 127.351 142.429  0.00  0.00    +0.000 C 
ATOM      6  C   UNL     1     105.483 127.828 142.495  0.00  0.00    +0.000 C 
ATOM      7  C   UNL     1     106.606 126.669 142.836  0.00  0.00    +0.000 C 
ATOM      8  C   UNL     1     105.822 126.566 143.073  0.00  0.00    +0.000 C 
ENDROOT
BRANCH   6  13
ATOM      9  O   UNL     1     105.012 128.891 143.666  0.00  0.00    +0.000 OA
ATOM     10  O   UNL     1     104.830 127.923 140.983  0.00  0.00    +0.000 OA
ATOM     11  O   UNL     1     103.210 130.164 141.793  0.00  0.00    +0.000 OA
ATOM     12  O   UNL     1     104.218 130.012 144.111  0.00  0.00    +0.000 OA
ATOM     13  C   UNL     1     104.921 128.408 142.325  0.00  0.00    +0.000 A 
ATOM     14  C   UNL     1     104.686 128.939 142.910  0.00  0.00    +0.000 A 
ATOM     15  C   UNL     1     104.594 128.455 141.569  0.00  0.00    +0.000 A 
ATOM     16  C   UNL     1     104.123 129.519 142.739  0.00  0.00    +0.000 A 
ATOM     17  C   UNL     1     104.032 129.034 141.397  0.00  0.00    +0.000 A 
ATOM     18  C   UNL     1     103.796 129.566 141.983  0.00  0.00    +0.000 A 
ATOM     19  C   UNL     1     103.887 130.066 143.357  0.00  0.00    +0.000 A 
ATOM     20  C   UNL     1     103.301 130.672 143.186  0.00  0.00    +0.000 A 
ATOM     21  C   UNL     1     102.961 130.721 142.399  0.00  0.00    +0.000 A 
BRANCH  21  23
ATOM     22  O   UNL     1     100.710 133.031 141.702  0.00  0.00    +0.000 OA
ATOM     23  C   UNL     1     102.398 131.300 142.224  0.00  0.00    +0.000 A 
ATOM     24  C   UNL     1     102.639 132.058 142.007  0.00  0.00    +0.000 A 
ATOM     25  C   UNL     1     101.594 131.118 142.267  0.00  0.00    +0.000 A 
ATOM     26  C   UNL     1     102.077 132.635 141.833  0.00  0.00    +0.000 A 
ATOM     27  C   UNL     1     101.031 131.696 142.093  0.00  0.00    +0.000 A 
ATOM     28  C   UNL     1     101.273 132.454 141.876  0.00  0.00    +0.000 A 
ENDBRANCH  21  23
ENDBRANCH   6  13
BRANCH   8  30
ATOM     29  O   UNL     1     105.207 125.944 144.203  0.00  0.00    +0.000 OA
ATOM     30  C   UNL     1     105.600 125.883 143.480  0.00  0.00    +0.000 C 
ENDBRANCH   8  30
BRANCH   4  31
ATOM     31  O   UNL     1     106.488 128.613 141.851  0.00  0.00    +0.000 OA
BRANCH  31  36
ATOM     32  O   UNL     1     107.344 129.092 142.890  0.00  0.00    +0.000 OA
ATOM     33  O   UNL     1     107.443 129.350 140.725  0.00  0.00    +0.000 OA
ATOM     34  O   UNL     1     108.776 130.197 141.201  0.00  0.00    +0.000 OA
ATOM     35  O   UNL     1     109.155 130.308 142.803  0.00  0.00    +0.000 OA
ATOM     36  C   UNL     1     107.155 129.037 142.089  0.00  0.00    +0.000 C 
ATOM     37  C   UNL     1     107.633 129.405 141.526  0.00  0.00    +0.000 C 
ATOM     38  C   UNL     1     108.299 129.829 141.764  0.00  0.00    +0.000 C 
ATOM     39  C   UNL     1     108.489 129.885 142.565  0.00  0.00    +0.000 C 
ATOM     40  C   UNL     1     108.012 129.516 143.128  0.00  0.00    +0.000 C 
BRANCH  40  41
ATOM     41  C   UNL     1     108.200 129.571 143.929  0.00  0.00    +0.000 C 
BRANCH  41  42
ATOM     42  O   UNL     1     107.598 129.610 144.493  0.00  0.00    +0.000 OA
BRANCH  42  44
ATOM     43  O   UNL     1     108.170 130.077 145.717  0.00  0.00    +0.000 OA
ATOM     44  C   UNL     1     107.773 129.493 145.291  0.00  0.00    +0.000 C 
BRANCH  44  45
ATOM     45  C   UNL     1     107.549 128.791 145.663  0.00  0.00    +0.000 C 
ATOM     46  C   UNL     1     106.977 128.804 146.257  0.00  0.00    +0.000 C 
BRANCH  46  48
ATOM     47  O   UNL     1     106.088 125.994 147.743  0.00  0.00    +0.000 OA
ATOM     48  C   UNL     1     106.754 128.102 146.628  0.00  0.00    +0.000 A 
ATOM     49  C   UNL     1     106.009 128.037 146.976  0.00  0.00    +0.000 A 
ATOM     50  C   UNL     1     107.278 127.463 146.652  0.00  0.00    +0.000 A 
ATOM     51  C   UNL     1     105.787 127.334 147.348  0.00  0.00    +0.000 A 
ATOM     52  C   UNL     1     107.055 126.762 147.023  0.00  0.00    +0.000 A 
ATOM     53  C   UNL     1     106.310 126.697 147.371  0.00  0.00    +0.000 A 
BRANCH  51  54
ATOM     54  O   UNL     1     105.042 127.270 147.696  0.00  0.00    +0.000 OA
ATOM     55  C   UNL     1     104.654 127.944 147.970  0.00  0.00    +0.000 C 
ENDBRANCH  51  54
ENDBRANCH  46  48
ENDBRANCH  44  45
ENDBRANCH  42  44
ENDBRANCH  41  42
ENDBRANCH  40  41
ENDBRANCH  31  36
ENDBRANCH   4  31
TORSDOF 11
ENDMDL
MODEL 6
REMARK VINA RESULT:     -10.2      1.652      2.636
REMARK  Name = 44257728
REMARK  11 active torsions:
REMARK  status: ('A' for Active; 'I' for Inactive)
REMARK    1  A    between atoms: O_1  and  C_19
REMARK    2  A    between atoms: O_1  and  C_24
REMARK    3  A    between atoms: O_10  and  C_31
REMARK    4  A    between atoms: O_10  and  C_40
REMARK    5  A    between atoms: O_17  and  C_52
REMARK    6  A    between atoms: C_21  and  C_29
REMARK    7  A    between atoms: C_23  and  C_30
REMARK    8  A    between atoms: C_28  and  C_31
REMARK    9  A    between atoms: C_39  and  C_41
REMARK   10  A    between atoms: C_40  and  C_42
REMARK   11  A    between atoms: C_45  and  C_49
REMARK                            x       y       z     vdW  Elec       q    Type
REMARK                         _______ _______ _______ _____ _____    ______ ____
ROOT
ATOM      1  O   UNL     1     110.478 132.492 137.464  0.00  0.00    +0.000 OA
ATOM      2  O   UNL     1     109.066 131.395 135.754  0.00  0.00    +0.000 OA
ATOM      3  O   UNL     1     109.789 132.840 135.422  0.00  0.00    +0.000 OA
ATOM      4  C   UNL     1     109.646 131.404 137.060  0.00  0.00    +0.000 C 
ATOM      5  C   UNL     1     109.536 131.760 136.324  0.00  0.00    +0.000 C 
ATOM      6  C   UNL     1     110.117 131.770 137.630  0.00  0.00    +0.000 C 
ATOM      7  C   UNL     1     109.898 132.483 136.158  0.00  0.00    +0.000 C 
ATOM      8  C   UNL     1     110.369 132.849 136.728  0.00  0.00    +0.000 C 
ENDROOT
BRANCH   6  13
ATOM      9  O   UNL     1     111.535 130.998 137.971  0.00  0.00    +0.000 OA
ATOM     10  O   UNL     1     108.917 131.829 138.761  0.00  0.00    +0.000 OA
ATOM     11  O   UNL     1     110.546 130.335 140.609  0.00  0.00    +0.000 OA
ATOM     12  O   UNL     1     112.382 130.248 138.867  0.00  0.00    +0.000 OA
ATOM     13  C   UNL     1     110.226 131.413 138.366  0.00  0.00    +0.000 A 
ATOM     14  C   UNL     1     110.935 131.028 138.537  0.00  0.00    +0.000 A 
ATOM     15  C   UNL     1     109.626 131.443 138.932  0.00  0.00    +0.000 A 
ATOM     16  C   UNL     1     111.044 130.672 139.273  0.00  0.00    +0.000 A 
ATOM     17  C   UNL     1     109.735 131.088 139.668  0.00  0.00    +0.000 A 
ATOM     18  C   UNL     1     110.444 130.702 139.839  0.00  0.00    +0.000 A 
ATOM     19  C   UNL     1     111.787 130.273 139.439  0.00  0.00    +0.000 A 
ATOM     20  C   UNL     1     111.907 129.901 140.204  0.00  0.00    +0.000 A 
ATOM     21  C   UNL     1     111.282 129.932 140.793  0.00  0.00    +0.000 A 
BRANCH  21  23
ATOM     22  O   UNL     1     111.706 128.514 143.742  0.00  0.00    +0.000 OA
ATOM     23  C   UNL     1     111.388 129.577 141.531  0.00  0.00    +0.000 A 
ATOM     24  C   UNL     1     111.124 128.806 141.660  0.00  0.00    +0.000 A 
ATOM     25  C   UNL     1     111.758 129.993 142.139  0.00  0.00    +0.000 A 
ATOM     26  C   UNL     1     111.229 128.452 142.396  0.00  0.00    +0.000 A 
ATOM     27  C   UNL     1     111.864 129.639 142.876  0.00  0.00    +0.000 A 
ATOM     28  C   UNL     1     111.600 128.868 143.005  0.00  0.00    +0.000 A 
ENDBRANCH  21  23
ENDBRANCH   6  13
BRANCH   8  30
ATOM     29  O   UNL     1     110.646 134.205 137.085  0.00  0.00    +0.000 OA
ATOM     30  C   UNL     1     110.731 133.572 136.562  0.00  0.00    +0.000 C 
ENDBRANCH   8  30
BRANCH   4  31
ATOM     31  O   UNL     1     109.284 130.681 137.226  0.00  0.00    +0.000 OA
BRANCH  31  36
ATOM     32  O   UNL     1     110.067 129.825 136.392  0.00  0.00    +0.000 OA
ATOM     33  O   UNL     1     107.912 129.915 136.724  0.00  0.00    +0.000 OA
ATOM     34  O   UNL     1     108.009 128.676 135.640  0.00  0.00    +0.000 OA
ATOM     35  O   UNL     1     109.478 128.202 135.056  0.00  0.00    +0.000 OA
ATOM     36  C   UNL     1     109.333 130.061 136.683  0.00  0.00    +0.000 C 
ATOM     37  C   UNL     1     108.646 129.678 136.432  0.00  0.00    +0.000 C 
ATOM     38  C   UNL     1     108.695 129.059 135.890  0.00  0.00    +0.000 C 
ATOM     39  C   UNL     1     109.429 128.822 135.598  0.00  0.00    +0.000 C 
ATOM     40  C   UNL     1     110.116 129.205 135.849  0.00  0.00    +0.000 C 
BRANCH  40  41
ATOM     41  C   UNL     1     110.850 128.969 135.558  0.00  0.00    +0.000 C 
BRANCH  41  42
ATOM     42  O   UNL     1     111.440 128.721 136.080  0.00  0.00    +0.000 OA
BRANCH  42  44
ATOM     43  O   UNL     1     112.554 128.868 135.197  0.00  0.00    +0.000 OA
ATOM     44  C   UNL     1     112.160 128.446 135.787  0.00  0.00    +0.000 C 
BRANCH  44  45
ATOM     45  C   UNL     1     112.487 127.748 136.083  0.00  0.00    +0.000 C 
ATOM     46  C   UNL     1     113.139 127.780 136.588  0.00  0.00    +0.000 C 
BRANCH  46  48
ATOM     47  O   UNL     1     114.444 124.989 137.770  0.00  0.00    +0.000 OA
ATOM     48  C   UNL     1     113.465 127.083 136.884  0.00  0.00    +0.000 A 
ATOM     49  C   UNL     1     113.372 126.890 137.681  0.00  0.00    +0.000 A 
ATOM     50  C   UNL     1     113.883 126.578 136.382  0.00  0.00    +0.000 A 
ATOM     51  C   UNL     1     113.699 126.191 137.976  0.00  0.00    +0.000 A 
ATOM     52  C   UNL     1     114.209 125.881 136.679  0.00  0.00    +0.000 A 
ATOM     53  C   UNL     1     114.117 125.687 137.475  0.00  0.00    +0.000 A 
BRANCH  51  54
ATOM     54  O   UNL     1     113.606 125.998 138.772  0.00  0.00    +0.000 OA
ATOM     55  C   UNL     1     113.449 126.589 139.325  0.00  0.00    +0.000 C 
ENDBRANCH  51  54
ENDBRANCH  46  48
ENDBRANCH  44  45
ENDBRANCH  42  44
ENDBRANCH  41  42
ENDBRANCH  40  41
ENDBRANCH  31  36
ENDBRANCH   4  31
TORSDOF 11
ENDMDL
MODEL 7
REMARK VINA RESULT:     -10.1      2.087      4.747
REMARK  Name = 44257728
REMARK  11 active torsions:
REMARK  status: ('A' for Active; 'I' for Inactive)
REMARK    1  A    between atoms: O_1  and  C_19
REMARK    2  A    between atoms: O_1  and  C_24
REMARK    3  A    between atoms: O_10  and  C_31
REMARK    4  A    between atoms: O_10  and  C_40
REMARK    5  A    between atoms: O_17  and  C_52
REMARK    6  A    between atoms: C_21  and  C_29
REMARK    7  A    between atoms: C_23  and  C_30
REMARK    8  A    between atoms: C_28  and  C_31
REMARK    9  A    between atoms: C_39  and  C_41
REMARK   10  A    between atoms: C_40  and  C_42
REMARK   11  A    between atoms: C_45  and  C_49
REMARK                            x       y       z     vdW  Elec       q    Type
REMARK                         _______ _______ _______ _____ _____    ______ ____
ROOT
ATOM      1  O   UNL     1     113.296 125.815 137.487  0.00  0.00    +0.000 OA
ATOM      2  O   UNL     1     111.184 124.628 137.992  0.00  0.00    +0.000 OA
ATOM      3  O   UNL     1     112.090 124.181 136.687  0.00  0.00    +0.000 OA
ATOM      4  C   UNL     1     112.139 125.643 138.307  0.00  0.00    +0.000 C 
ATOM      5  C   UNL     1     111.888 125.023 137.824  0.00  0.00    +0.000 C 
ATOM      6  C   UNL     1     112.843 126.039 138.139  0.00  0.00    +0.000 C 
ATOM      7  C   UNL     1     112.341 124.800 137.171  0.00  0.00    +0.000 C 
ATOM      8  C   UNL     1     113.045 125.196 137.003  0.00  0.00    +0.000 C 
ENDROOT
BRANCH   6  13
ATOM      9  O   UNL     1     112.635 127.602 137.654  0.00  0.00    +0.000 OA
ATOM     10  O   UNL     1     113.554 125.713 139.592  0.00  0.00    +0.000 OA
ATOM     11  O   UNL     1     113.864 128.532 140.103  0.00  0.00    +0.000 OA
ATOM     12  O   UNL     1     112.772 129.022 137.872  0.00  0.00    +0.000 OA
ATOM     13  C   UNL     1     113.094 126.658 138.622  0.00  0.00    +0.000 A 
ATOM     14  C   UNL     1     112.990 127.439 138.380  0.00  0.00    +0.000 A 
ATOM     15  C   UNL     1     113.450 126.496 139.349  0.00  0.00    +0.000 A 
ATOM     16  C   UNL     1     113.242 128.059 138.864  0.00  0.00    +0.000 A 
ATOM     17  C   UNL     1     113.701 127.114 139.833  0.00  0.00    +0.000 A 
ATOM     18  C   UNL     1     113.597 127.896 139.590  0.00  0.00    +0.000 A 
ATOM     19  C   UNL     1     113.128 128.868 138.600  0.00  0.00    +0.000 A 
ATOM     20  C   UNL     1     113.388 129.518 139.099  0.00  0.00    +0.000 A 
ATOM     21  C   UNL     1     113.758 129.349 139.856  0.00  0.00    +0.000 A 
BRANCH  21  23
ATOM     22  O   UNL     1     114.771 131.815 141.800  0.00  0.00    +0.000 OA
ATOM     23  C   UNL     1     114.011 129.966 140.342  0.00  0.00    +0.000 A 
ATOM     24  C   UNL     1     113.546 130.206 140.980  0.00  0.00    +0.000 A 
ATOM     25  C   UNL     1     114.730 130.341 140.191  0.00  0.00    +0.000 A 
ATOM     26  C   UNL     1     113.799 130.822 141.465  0.00  0.00    +0.000 A 
ATOM     27  C   UNL     1     114.984 130.958 140.677  0.00  0.00    +0.000 A 
ATOM     28  C   UNL     1     114.518 131.198 141.314  0.00  0.00    +0.000 A 
ENDBRANCH  21  23
ENDBRANCH   6  13
BRANCH   8  30
ATOM     29  O   UNL     1     114.322 124.964 136.404  0.00  0.00    +0.000 OA
ATOM     30  C   UNL     1     113.498 124.972 136.351  0.00  0.00    +0.000 C 
ENDBRANCH   8  30
BRANCH   4  31
ATOM     31  O   UNL     1     111.686 125.867 138.959  0.00  0.00    +0.000 OA
BRANCH  31  36
ATOM     32  O   UNL     1     110.576 126.284 138.162  0.00  0.00    +0.000 OA
ATOM     33  O   UNL     1     110.664 125.542 140.213  0.00  0.00    +0.000 OA
ATOM     34  O   UNL     1     109.042 125.797 140.043  0.00  0.00    +0.000 OA
ATOM     35  O   UNL     1     108.443 126.377 138.619  0.00  0.00    +0.000 OA
ATOM     36  C   UNL     1     110.875 125.994 138.874  0.00  0.00    +0.000 C 
ATOM     37  C   UNL     1     110.364 125.832 139.501  0.00  0.00    +0.000 C 
ATOM     38  C   UNL     1     109.554 125.959 139.416  0.00  0.00    +0.000 C 
ATOM     39  C   UNL     1     109.253 126.249 138.704  0.00  0.00    +0.000 C 
ATOM     40  C   UNL     1     109.765 126.412 138.077  0.00  0.00    +0.000 C 
BRANCH  40  41
ATOM     41  C   UNL     1     109.466 126.701 137.365  0.00  0.00    +0.000 C 
BRANCH  41  42
ATOM     42  O   UNL     1     109.657 127.466 137.119  0.00  0.00    +0.000 OA
BRANCH  42  44
ATOM     43  O   UNL     1     109.249 127.151 135.786  0.00  0.00    +0.000 OA
ATOM     44  C   UNL     1     109.479 127.707 136.350  0.00  0.00    +0.000 C 
BRANCH  44  45
ATOM     45  C   UNL     1     109.533 128.505 136.146  0.00  0.00    +0.000 C 
ATOM     46  C   UNL     1     108.885 128.888 135.807  0.00  0.00    +0.000 C 
BRANCH  46  48
ATOM     47  O   UNL     1     109.101 132.078 134.990  0.00  0.00    +0.000 OA
ATOM     48  C   UNL     1     108.939 129.685 135.603  0.00  0.00    +0.000 A 
ATOM     49  C   UNL     1     108.530 130.252 136.042  0.00  0.00    +0.000 A 
ATOM     50  C   UNL     1     109.402 129.916 134.960  0.00  0.00    +0.000 A 
ATOM     51  C   UNL     1     108.585 131.050 135.837  0.00  0.00    +0.000 A 
ATOM     52  C   UNL     1     109.456 130.714 134.756  0.00  0.00    +0.000 A 
ATOM     53  C   UNL     1     109.047 131.280 135.195  0.00  0.00    +0.000 A 
BRANCH  51  54
ATOM     54  O   UNL     1     108.176 131.616 136.276  0.00  0.00    +0.000 OA
ATOM     55  C   UNL     1     108.343 131.717 137.077  0.00  0.00    +0.000 C 
ENDBRANCH  51  54
ENDBRANCH  46  48
ENDBRANCH  44  45
ENDBRANCH  42  44
ENDBRANCH  41  42
ENDBRANCH  40  41
ENDBRANCH  31  36
ENDBRANCH   4  31
TORSDOF 11
ENDMDL
MODEL 8
REMARK VINA RESULT:     -10.1      8.307     12.635
REMARK  Name = 44257728
REMARK  11 active torsions:
REMARK  status: ('A' for Active; 'I' for Inactive)
REMARK    1  A    between atoms: O_1  and  C_19
REMARK    2  A    between atoms: O_1  and  C_24
REMARK    3  A    between atoms: O_10  and  C_31
REMARK    4  A    between atoms: O_10  and  C_40
REMARK    5  A    between atoms: O_17  and  C_52
REMARK    6  A    between atoms: C_21  and  C_29
REMARK    7  A    between atoms: C_23  and  C_30
REMARK    8  A    between atoms: C_28  and  C_31
REMARK    9  A    between atoms: C_39  and  C_41
REMARK   10  A    between atoms: C_40  and  C_42
REMARK   11  A    between atoms: C_45  and  C_49
REMARK                            x       y       z     vdW  Elec       q    Type
REMARK                         _______ _______ _______ _____ _____    ______ ____
ROOT
ATOM      1  O   UNL     1     106.862 125.784 146.678  0.00  0.00    +0.000 OA
ATOM      2  O   UNL     1     105.299 123.988 147.353  0.00  0.00    +0.000 OA
ATOM      3  O   UNL     1     106.690 124.235 148.206  0.00  0.00    +0.000 OA
ATOM      4  C   UNL     1     105.646 125.062 146.477  0.00  0.00    +0.000 C 
ATOM      5  C   UNL     1     105.820 124.586 147.128  0.00  0.00    +0.000 C 
ATOM      6  C   UNL     1     106.166 125.661 146.252  0.00  0.00    +0.000 C 
ATOM      7  C   UNL     1     106.515 124.710 147.555  0.00  0.00    +0.000 C 
ATOM      8  C   UNL     1     107.036 125.310 147.330  0.00  0.00    +0.000 C 
ENDROOT
BRANCH   6  13
ATOM      9  O   UNL     1     105.591 127.191 146.476  0.00  0.00    +0.000 OA
ATOM     10  O   UNL     1     106.394 125.080 144.724  0.00  0.00    +0.000 OA
ATOM     11  O   UNL     1     105.468 127.571 143.610  0.00  0.00    +0.000 OA
ATOM     12  O   UNL     1     105.122 128.454 145.958  0.00  0.00    +0.000 OA
ATOM     13  C   UNL     1     105.992 126.136 145.600  0.00  0.00    +0.000 A 
ATOM     14  C   UNL     1     105.705 126.901 145.712  0.00  0.00    +0.000 A 
ATOM     15  C   UNL     1     106.106 125.846 144.836  0.00  0.00    +0.000 A 
ATOM     16  C   UNL     1     105.531 127.376 145.061  0.00  0.00    +0.000 A 
ATOM     17  C   UNL     1     105.933 126.321 144.184  0.00  0.00    +0.000 A 
ATOM     18  C   UNL     1     105.645 127.086 144.297  0.00  0.00    +0.000 A 
ATOM     19  C   UNL     1     105.233 128.171 145.190  0.00  0.00    +0.000 A 
ATOM     20  C   UNL     1     105.050 128.671 144.515  0.00  0.00    +0.000 A 
ATOM     21  C   UNL     1     105.169 128.369 143.720  0.00  0.00    +0.000 A 
BRANCH  21  23
ATOM     22  O   UNL     1     104.477 130.257 141.104  0.00  0.00    +0.000 OA
ATOM     23  C   UNL     1     104.996 128.842 143.066  0.00  0.00    +0.000 A 
ATOM     24  C   UNL     1     105.567 129.356 142.765  0.00  0.00    +0.000 A 
ATOM     25  C   UNL     1     104.252 128.800 142.712  0.00  0.00    +0.000 A 
ATOM     26  C   UNL     1     105.394 129.827 142.111  0.00  0.00    +0.000 A 
ATOM     27  C   UNL     1     104.078 129.272 142.058  0.00  0.00    +0.000 A 
ATOM     28  C   UNL     1     104.650 129.785 141.758  0.00  0.00    +0.000 A 
ENDBRANCH  21  23
ENDBRANCH   6  13
BRANCH   8  30
ATOM     29  O   UNL     1     108.420 125.665 147.364  0.00  0.00    +0.000 OA
ATOM     30  C   UNL     1     107.732 125.433 147.756  0.00  0.00    +0.000 C 
ENDBRANCH   8  30
BRANCH   4  31
ATOM     31  O   UNL     1     104.951 124.938 146.050  0.00  0.00    +0.000 OA
BRANCH  31  36
ATOM     32  O   UNL     1     104.047 125.338 147.082  0.00  0.00    +0.000 OA
ATOM     33  O   UNL     1     103.891 123.766 145.576  0.00  0.00    +0.000 OA
ATOM     34  O   UNL     1     102.457 123.580 146.371  0.00  0.00    +0.000 OA
ATOM     35  O   UNL     1     102.083 124.566 147.640  0.00  0.00    +0.000 OA
ATOM     36  C   UNL     1     104.233 124.845 146.448  0.00  0.00    +0.000 C 
ATOM     37  C   UNL     1     103.703 124.259 146.211  0.00  0.00    +0.000 C 
ATOM     38  C   UNL     1     102.987 124.166 146.608  0.00  0.00    +0.000 C 
ATOM     39  C   UNL     1     102.799 124.659 147.243  0.00  0.00    +0.000 C 
ATOM     40  C   UNL     1     103.329 125.245 147.480  0.00  0.00    +0.000 C 
BRANCH  40  41
ATOM     41  C   UNL     1     103.143 125.738 148.114  0.00  0.00    +0.000 C 
BRANCH  41  42
ATOM     42  O   UNL     1     103.182 126.558 148.024  0.00  0.00    +0.000 OA
BRANCH  42  44
ATOM     43  O   UNL     1     103.365 126.880 149.405  0.00  0.00    +0.000 OA
ATOM     44  C   UNL     1     103.033 127.051 148.669  0.00  0.00    +0.000 C 
BRANCH  44  45
ATOM     45  C   UNL     1     102.550 127.714 148.577  0.00  0.00    +0.000 C 
ATOM     46  C   UNL     1     102.873 128.470 148.644  0.00  0.00    +0.000 C 
BRANCH  46  48
ATOM     47  O   UNL     1     100.940 131.120 148.279  0.00  0.00    +0.000 OA
ATOM     48  C   UNL     1     102.390 129.133 148.553  0.00  0.00    +0.000 A 
ATOM     49  C   UNL     1     102.672 129.797 148.152  0.00  0.00    +0.000 A 
ATOM     50  C   UNL     1     101.625 129.131 148.862  0.00  0.00    +0.000 A 
ATOM     51  C   UNL     1     102.188 130.459 148.061  0.00  0.00    +0.000 A 
ATOM     52  C   UNL     1     101.142 129.794 148.770  0.00  0.00    +0.000 A 
ATOM     53  C   UNL     1     101.424 130.458 148.370  0.00  0.00    +0.000 A 
BRANCH  51  54
ATOM     54  O   UNL     1     102.470 131.123 147.661  0.00  0.00    +0.000 OA
ATOM     55  C   UNL     1     103.132 131.061 147.173  0.00  0.00    +0.000 C 
ENDBRANCH  51  54
ENDBRANCH  46  48
ENDBRANCH  44  45
ENDBRANCH  42  44
ENDBRANCH  41  42
ENDBRANCH  40  41
ENDBRANCH  31  36
ENDBRANCH   4  31
TORSDOF 11
ENDMDL
MODEL 9
REMARK VINA RESULT:     -10.1      3.107      4.956
REMARK  Name = 44257728
REMARK  11 active torsions:
REMARK  status: ('A' for Active; 'I' for Inactive)
REMARK    1  A    between atoms: O_1  and  C_19
REMARK    2  A    between atoms: O_1  and  C_24
REMARK    3  A    between atoms: O_10  and  C_31
REMARK    4  A    between atoms: O_10  and  C_40
REMARK    5  A    between atoms: O_17  and  C_52
REMARK    6  A    between atoms: C_21  and  C_29
REMARK    7  A    between atoms: C_23  and  C_30
REMARK    8  A    between atoms: C_28  and  C_31
REMARK    9  A    between atoms: C_39  and  C_41
REMARK   10  A    between atoms: C_40  and  C_42
REMARK   11  A    between atoms: C_45  and  C_49
REMARK                            x       y       z     vdW  Elec       q    Type
REMARK                         _______ _______ _______ _____ _____    ______ ____
ROOT
ATOM      1  O   UNL     1     110.323 128.184 142.474  0.00  0.00    +0.000 OA
ATOM      2  O   UNL     1     110.400 130.229 141.084  0.00  0.00    +0.000 OA
ATOM      3  O   UNL     1     111.529 129.990 142.263  0.00  0.00    +0.000 OA
ATOM      4  C   UNL     1     109.784 128.985 141.421  0.00  0.00    +0.000 C 
ATOM      5  C   UNL     1     110.375 129.548 141.547  0.00  0.00    +0.000 C 
ATOM      6  C   UNL     1     109.759 128.303 141.884  0.00  0.00    +0.000 C 
ATOM      7  C   UNL     1     110.939 129.428 142.136  0.00  0.00    +0.000 C 
ATOM      8  C   UNL     1     110.914 128.746 142.600  0.00  0.00    +0.000 C 
ENDROOT
BRANCH   6  13
ATOM      9  O   UNL     1     110.111 126.899 141.092  0.00  0.00    +0.000 OA
ATOM     10  O   UNL     1     108.225 128.582 142.426  0.00  0.00    +0.000 OA
ATOM     11  O   UNL     1     107.364 126.037 141.384  0.00  0.00    +0.000 OA
ATOM     12  O   UNL     1     109.720 125.618 140.556  0.00  0.00    +0.000 OA
ATOM     13  C   UNL     1     109.169 127.740 141.759  0.00  0.00    +0.000 A 
ATOM     14  C   UNL     1     109.345 127.039 141.363  0.00  0.00    +0.000 A 
ATOM     15  C   UNL     1     108.402 127.879 142.030  0.00  0.00    +0.000 A 
ATOM     16  C   UNL     1     108.755 126.476 141.237  0.00  0.00    +0.000 A 
ATOM     17  C   UNL     1     107.811 127.317 141.905  0.00  0.00    +0.000 A 
ATOM     18  C   UNL     1     107.988 126.615 141.508  0.00  0.00    +0.000 A 
ATOM     19  C   UNL     1     108.951 125.749 140.823  0.00  0.00    +0.000 A 
ATOM     20  C   UNL     1     108.340 125.159 140.690  0.00  0.00    +0.000 A 
ATOM     21  C   UNL     1     107.542 125.304 140.972  0.00  0.00    +0.000 A 
BRANCH  21  23
ATOM     22  O   UNL     1     105.171 123.062 140.480  0.00  0.00    +0.000 OA
ATOM     23  C   UNL     1     106.948 124.743 140.849  0.00  0.00    +0.000 A 
ATOM     24  C   UNL     1     106.418 124.834 140.223  0.00  0.00    +0.000 A 
ATOM     25  C   UNL     1     106.887 124.092 141.351  0.00  0.00    +0.000 A 
ATOM     26  C   UNL     1     105.826 124.274 140.100  0.00  0.00    +0.000 A 
ATOM     27  C   UNL     1     106.294 123.531 141.228  0.00  0.00    +0.000 A 
ATOM     28  C   UNL     1     105.764 123.623 140.603  0.00  0.00    +0.000 A 
ENDBRANCH  21  23
ENDBRANCH   6  13
BRANCH   8  30
ATOM     29  O   UNL     1     111.244 128.371 143.939  0.00  0.00    +0.000 OA
ATOM     30  C   UNL     1     111.478 128.626 143.190  0.00  0.00    +0.000 C 
ENDBRANCH   8  30
BRANCH   4  31
ATOM     31  O   UNL     1     109.220 129.104 140.832  0.00  0.00    +0.000 OA
BRANCH  31  36
ATOM     32  O   UNL     1     110.147 128.985 139.751  0.00  0.00    +0.000 OA
ATOM     33  O   UNL     1     108.315 130.156 139.939  0.00  0.00    +0.000 OA
ATOM     34  O   UNL     1     108.790 130.564 138.413  0.00  0.00    +0.000 OA
ATOM     35  O   UNL     1     110.170 129.919 137.778  0.00  0.00    +0.000 OA
ATOM     36  C   UNL     1     109.457 129.308 140.068  0.00  0.00    +0.000 C 
ATOM     37  C   UNL     1     109.005 129.834 139.621  0.00  0.00    +0.000 C 
ATOM     38  C   UNL     1     109.242 130.038 138.859  0.00  0.00    +0.000 C 
ATOM     39  C   UNL     1     109.932 129.716 138.541  0.00  0.00    +0.000 C 
ATOM     40  C   UNL     1     110.385 129.190 138.987  0.00  0.00    +0.000 C 
BRANCH  40  41
ATOM     41  C   UNL     1     111.075 128.867 138.670  0.00  0.00    +0.000 C 
BRANCH  41  42
ATOM     42  O   UNL     1     111.175 128.048 138.649  0.00  0.00    +0.000 OA
BRANCH  42  44
ATOM     43  O   UNL     1     112.599 128.104 138.757  0.00  0.00    +0.000 OA
ATOM     44  C   UNL     1     111.917 127.727 138.485  0.00  0.00    +0.000 C 
BRANCH  44  45
ATOM     45  C   UNL     1     111.977 127.030 138.047  0.00  0.00    +0.000 C 
ATOM     46  C   UNL     1     112.365 126.376 138.366  0.00  0.00    +0.000 C 
BRANCH  46  48
ATOM     47  O   UNL     1     112.601 123.588 136.615  0.00  0.00    +0.000 OA
ATOM     48  C   UNL     1     112.424 125.679 137.928  0.00  0.00    +0.000 A 
ATOM     49  C   UNL     1     113.158 125.433 137.641  0.00  0.00    +0.000 A 
ATOM     50  C   UNL     1     111.749 125.228 137.777  0.00  0.00    +0.000 A 
ATOM     51  C   UNL     1     113.216 124.736 137.204  0.00  0.00    +0.000 A 
ATOM     52  C   UNL     1     111.809 124.532 137.339  0.00  0.00    +0.000 A 
ATOM     53  C   UNL     1     112.542 124.285 137.053  0.00  0.00    +0.000 A 
BRANCH  51  54
ATOM     54  O   UNL     1     113.949 124.490 136.917  0.00  0.00    +0.000 OA
ATOM     55  C   UNL     1     114.642 124.735 137.291  0.00  0.00    +0.000 C 
ENDBRANCH  51  54
ENDBRANCH  46  48
ENDBRANCH  44  45
ENDBRANCH  42  44
ENDBRANCH  41  42
ENDBRANCH  40  41
ENDBRANCH  31  36
ENDBRANCH   4  31
TORSDOF 11
ENDMDL
MODEL 10
REMARK VINA RESULT:     -10.1      5.569      9.063
REMARK  Name = 44257728
REMARK  11 active torsions:
REMARK  status: ('A' for Active; 'I' for Inactive)
REMARK    1  A    between atoms: O_1  and  C_19
REMARK    2  A    between atoms: O_1  and  C_24
REMARK    3  A    between atoms: O_10  and  C_31
REMARK    4  A    between atoms: O_10  and  C_40
REMARK    5  A    between atoms: O_17  and  C_52
REMARK    6  A    between atoms: C_21  and  C_29
REMARK    7  A    between atoms: C_23  and  C_30
REMARK    8  A    between atoms: C_28  and  C_31
REMARK    9  A    between atoms: C_39  and  C_41
REMARK   10  A    between atoms: C_40  and  C_42
REMARK   11  A    between atoms: C_45  and  C_49
REMARK                            x       y       z     vdW  Elec       q    Type
REMARK                         _______ _______ _______ _____ _____    ______ ____
ROOT
ATOM      1  O   UNL     1     105.074 127.939 143.413  0.00  0.00    +0.000 OA
ATOM      2  O   UNL     1     106.466 127.772 141.374  0.00  0.00    +0.000 OA
ATOM      3  O   UNL     1     105.145 128.761 141.393  0.00  0.00    +0.000 OA
ATOM      4  C   UNL     1     106.198 127.389 142.725  0.00  0.00    +0.000 C 
ATOM      5  C   UNL     1     106.003 127.828 142.054  0.00  0.00    +0.000 C 
ATOM      6  C   UNL     1     105.735 127.445 143.404  0.00  0.00    +0.000 C 
ATOM      7  C   UNL     1     105.342 128.322 142.063  0.00  0.00    +0.000 C 
ATOM      8  C   UNL     1     104.878 128.378 142.743  0.00  0.00    +0.000 C 
ENDROOT
BRANCH   6  13
ATOM      9  O   UNL     1     106.466 128.180 144.687  0.00  0.00    +0.000 OA
ATOM     10  O   UNL     1     105.394 125.832 143.463  0.00  0.00    +0.000 OA
ATOM     11  O   UNL     1     106.520 125.661 146.109  0.00  0.00    +0.000 OA
ATOM     12  O   UNL     1     107.039 128.137 146.011  0.00  0.00    +0.000 OA
ATOM     13  C   UNL     1     105.931 127.006 144.075  0.00  0.00    +0.000 A 
ATOM     14  C   UNL     1     106.296 127.374 144.716  0.00  0.00    +0.000 A 
ATOM     15  C   UNL     1     105.760 126.200 144.105  0.00  0.00    +0.000 A 
ATOM     16  C   UNL     1     106.492 126.935 145.388  0.00  0.00    +0.000 A 
ATOM     17  C   UNL     1     105.955 125.760 144.775  0.00  0.00    +0.000 A 
ATOM     18  C   UNL     1     106.321 126.129 145.417  0.00  0.00    +0.000 A 
ATOM     19  C   UNL     1     106.872 127.330 146.049  0.00  0.00    +0.000 A 
ATOM     20  C   UNL     1     107.079 126.878 146.751  0.00  0.00    +0.000 A 
ATOM     21  C   UNL     1     106.901 126.038 146.781  0.00  0.00    +0.000 A 
BRANCH  21  23
ATOM     22  O   UNL     1     107.675 124.271 149.458  0.00  0.00    +0.000 OA
ATOM     23  C   UNL     1     107.095 125.596 147.450  0.00  0.00    +0.000 A 
ATOM     24  C   UNL     1     107.865 125.317 147.552  0.00  0.00    +0.000 A 
ATOM     25  C   UNL     1     106.519 125.433 148.018  0.00  0.00    +0.000 A 
ATOM     26  C   UNL     1     108.059 124.876 148.221  0.00  0.00    +0.000 A 
ATOM     27  C   UNL     1     106.712 124.991 148.687  0.00  0.00    +0.000 A 
ATOM     28  C   UNL     1     107.482 124.713 148.788  0.00  0.00    +0.000 A 
ENDBRANCH  21  23
ENDBRANCH   6  13
BRANCH   8  30
ATOM     29  O   UNL     1     104.127 129.429 143.355  0.00  0.00    +0.000 OA
ATOM     30  C   UNL     1     104.217 128.872 142.752  0.00  0.00    +0.000 C 
ENDBRANCH   8  30
BRANCH   4  31
ATOM     31  O   UNL     1     106.859 126.895 142.716  0.00  0.00    +0.000 OA
BRANCH  31  36
ATOM     32  O   UNL     1     107.829 127.940 142.614  0.00  0.00    +0.000 OA
ATOM     33  O   UNL     1     107.803 125.926 141.772  0.00  0.00    +0.000 OA
ATOM     34  O   UNL     1     109.245 126.486 141.198  0.00  0.00    +0.000 OA
ATOM     35  O   UNL     1     109.743 128.015 141.568  0.00  0.00    +0.000 OA
ATOM     36  C   UNL     1     107.580 127.175 142.428  0.00  0.00    +0.000 C 
ATOM     37  C   UNL     1     108.053 126.690 141.956  0.00  0.00    +0.000 C 
ATOM     38  C   UNL     1     108.773 126.970 141.670  0.00  0.00    +0.000 C 
ATOM     39  C   UNL     1     109.022 127.735 141.854  0.00  0.00    +0.000 C 
ATOM     40  C   UNL     1     108.550 128.220 142.326  0.00  0.00    +0.000 C 
BRANCH  40  41
ATOM     41  C   UNL     1     108.798 128.984 142.511  0.00  0.00    +0.000 C 
BRANCH  41  42
ATOM     42  O   UNL     1     108.884 129.210 143.301  0.00  0.00    +0.000 OA
BRANCH  42  44
ATOM     43  O   UNL     1     108.358 130.539 143.327  0.00  0.00    +0.000 OA
ATOM     44  C   UNL     1     108.967 130.007 143.495  0.00  0.00    +0.000 C 
BRANCH  44  45
ATOM     45  C   UNL     1     109.660 130.273 143.857  0.00  0.00    +0.000 C 
ATOM     46  C   UNL     1     109.626 130.627 144.601  0.00  0.00    +0.000 C 
BRANCH  46  48
ATOM     47  O   UNL     1     112.397 131.688 146.045  0.00  0.00    +0.000 OA
ATOM     48  C   UNL     1     110.318 130.893 144.962  0.00  0.00    +0.000 A 
ATOM     49  C   UNL     1     110.359 131.661 145.262  0.00  0.00    +0.000 A 
ATOM     50  C   UNL     1     110.970 130.390 145.024  0.00  0.00    +0.000 A 
ATOM     51  C   UNL     1     111.052 131.925 145.623  0.00  0.00    +0.000 A 
ATOM     52  C   UNL     1     111.662 130.656 145.385  0.00  0.00    +0.000 A 
ATOM     53  C   UNL     1     111.704 131.423 145.684  0.00  0.00    +0.000 A 
BRANCH  51  54
ATOM     54  O   UNL     1     111.094 132.693 145.922  0.00  0.00    +0.000 OA
ATOM     55  C   UNL     1     110.477 133.223 145.786  0.00  0.00    +0.000 C 
ENDBRANCH  51  54
ENDBRANCH  46  48
ENDBRANCH  44  45
ENDBRANCH  42  44
ENDBRANCH  41  42
ENDBRANCH  40  41
ENDBRANCH  31  36
ENDBRANCH   4  31
TORSDOF 11
ENDMDL
