MODEL 1
REMARK VINA RESULT:     -10.5      0.000      0.000
REMARK  Name = 131752827
REMARK  8 active torsions:
REMARK  status: ('A' for Active; 'I' for Inactive)
REMARK    1  A    between atoms: O_2  and  C_18
REMARK    2  A    between atoms: O_2  and  C_20
REMARK    3  A    between atoms: O_10  and  C_31
REMARK    4  A    between atoms: O_10  and  C_35
REMARK    5  A    between atoms: C_17  and  C_19
REMARK    6  A    between atoms: C_21  and  C_25
REMARK    7  A    between atoms: C_35  and  C_36
REMARK    8  A    between atoms: C_37  and  C_38
REMARK                            x       y       z     vdW  Elec       q    Type
REMARK                         _______ _______ _______ _____ _____    ______ ____
ROOT
ATOM      1  O   UNL     1     113.455 126.179 138.479  0.00  0.00    +0.000 OA
ATOM      2  O   UNL     1     111.083 125.660 138.001  0.00  0.00    +0.000 OA
ATOM      3  O   UNL     1     110.679 126.191 139.280  0.00  0.00    +0.000 OA
ATOM      4  C   UNL     1     112.456 125.654 137.604  0.00  0.00    +0.000 A 
ATOM      5  C   UNL     1     113.247 125.826 137.763  0.00  0.00    +0.000 A 
ATOM      6  C   UNL     1     111.874 125.833 138.160  0.00  0.00    +0.000 A 
ATOM      7  C   UNL     1     112.083 126.185 138.876  0.00  0.00    +0.000 A 
ATOM      8  C   UNL     1     112.873 126.359 139.036  0.00  0.00    +0.000 A 
ATOM      9  C   UNL     1     111.467 126.367 139.447  0.00  0.00    +0.000 A 
ATOM     10  C   UNL     1     113.104 126.725 139.778  0.00  0.00    +0.000 A 
ATOM     11  C   UNL     1     111.679 126.735 140.196  0.00  0.00    +0.000 A 
ATOM     12  C   UNL     1     112.502 126.915 140.361  0.00  0.00    +0.000 A 
ENDROOT
BRANCH   5  14
ATOM     13  O   UNL     1     115.575 125.108 135.537  0.00  0.00    +0.000 OA
ATOM     14  C   UNL     1     113.828 125.647 137.207  0.00  0.00    +0.000 A 
ATOM     15  C   UNL     1     114.074 124.866 137.104  0.00  0.00    +0.000 A 
ATOM     16  C   UNL     1     114.165 126.248 136.752  0.00  0.00    +0.000 A 
ATOM     17  C   UNL     1     114.657 124.686 136.548  0.00  0.00    +0.000 A 
ATOM     18  C   UNL     1     114.747 126.069 136.196  0.00  0.00    +0.000 A 
ATOM     19  C   UNL     1     114.992 125.288 136.094  0.00  0.00    +0.000 A 
ENDBRANCH   5  14
BRANCH   4  20
ATOM     20  O   UNL     1     112.247 125.301 136.888  0.00  0.00    +0.000 OA
BRANCH  20  29
ATOM     21  O   UNL     1     111.715 126.503 136.326  0.00  0.00    +0.000 OA
ATOM     22  O   UNL     1     110.134 125.168 134.968  0.00  0.00    +0.000 OA
ATOM     23  O   UNL     1     110.130 126.814 134.859  0.00  0.00    +0.000 OA
ATOM     24  O   UNL     1     111.192 124.412 135.983  0.00  0.00    +0.000 OA
ATOM     25  C   UNL     1     110.661 125.613 135.421  0.00  0.00    +0.000 C 
ATOM     26  C   UNL     1     110.659 126.436 135.366  0.00  0.00    +0.000 C 
ATOM     27  C   UNL     1     111.190 125.234 135.928  0.00  0.00    +0.000 C 
ATOM     28  C   UNL     1     111.186 126.881 135.819  0.00  0.00    +0.000 C 
ATOM     29  C   UNL     1     111.717 125.679 136.380  0.00  0.00    +0.000 C 
BRANCH  28  31
ATOM     30  O   UNL     1     111.854 128.100 135.489  0.00  0.00    +0.000 OA
ATOM     31  C   UNL     1     111.184 127.704 135.764  0.00  0.00    +0.000 C 
ENDBRANCH  28  31
ENDBRANCH  20  29
ENDBRANCH   4  20
BRANCH  12  32
ATOM     32  O   UNL     1     112.714 127.267 141.077  0.00  0.00    +0.000 OA
BRANCH  32  34
ATOM     33  O   UNL     1     111.799 128.293 141.467  0.00  0.00    +0.000 OA
ATOM     34  C   UNL     1     112.549 128.065 141.209  0.00  0.00    +0.000 C 
BRANCH  34  35
ATOM     35  C   UNL     1     113.132 128.633 141.084  0.00  0.00    +0.000 C 
ATOM     36  C   UNL     1     113.024 129.404 141.360  0.00  0.00    +0.000 C 
BRANCH  36  38
ATOM     37  O   UNL     1     115.361 131.680 140.858  0.00  0.00    +0.000 OA
ATOM     38  C   UNL     1     113.609 129.972 141.234  0.00  0.00    +0.000 A 
ATOM     39  C   UNL     1     114.172 129.861 140.643  0.00  0.00    +0.000 A 
ATOM     40  C   UNL     1     113.629 130.652 141.701  0.00  0.00    +0.000 A 
ATOM     41  C   UNL     1     114.756 130.430 140.517  0.00  0.00    +0.000 A 
ATOM     42  C   UNL     1     114.213 131.221 141.575  0.00  0.00    +0.000 A 
ATOM     43  C   UNL     1     114.777 131.111 140.983  0.00  0.00    +0.000 A 
ENDBRANCH  36  38
ENDBRANCH  34  35
ENDBRANCH  32  34
ENDBRANCH  12  32
TORSDOF 8
ENDMDL
MODEL 2
REMARK VINA RESULT:     -10.4      8.718     11.416
REMARK  Name = 131752827
REMARK  8 active torsions:
REMARK  status: ('A' for Active; 'I' for Inactive)
REMARK    1  A    between atoms: O_2  and  C_18
REMARK    2  A    between atoms: O_2  and  C_20
REMARK    3  A    between atoms: O_10  and  C_31
REMARK    4  A    between atoms: O_10  and  C_35
REMARK    5  A    between atoms: C_17  and  C_19
REMARK    6  A    between atoms: C_21  and  C_25
REMARK    7  A    between atoms: C_35  and  C_36
REMARK    8  A    between atoms: C_37  and  C_38
REMARK                            x       y       z     vdW  Elec       q    Type
REMARK                         _______ _______ _______ _____ _____    ______ ____
ROOT
ATOM      1  O   UNL     1     105.312 128.165 144.948  0.00  0.00    +0.000 OA
ATOM      2  O   UNL     1     107.103 126.456 144.997  0.00  0.00    +0.000 OA
ATOM      3  O   UNL     1     106.881 126.142 143.606  0.00  0.00    +0.000 OA
ATOM      4  C   UNL     1     106.327 127.456 145.661  0.00  0.00    +0.000 A 
ATOM      5  C   UNL     1     105.730 128.026 145.645  0.00  0.00    +0.000 A 
ATOM      6  C   UNL     1     106.506 127.026 144.981  0.00  0.00    +0.000 A 
ATOM      7  C   UNL     1     106.087 127.165 144.284  0.00  0.00    +0.000 A 
ATOM      8  C   UNL     1     105.490 127.734 144.266  0.00  0.00    +0.000 A 
ATOM      9  C   UNL     1     106.283 126.710 143.581  0.00  0.00    +0.000 A 
ATOM     10  C   UNL     1     105.047 127.888 143.547  0.00  0.00    +0.000 A 
ATOM     11  C   UNL     1     105.850 126.850 142.851  0.00  0.00    +0.000 A 
ATOM     12  C   UNL     1     105.229 127.443 142.835  0.00  0.00    +0.000 A 
ENDROOT
BRANCH   5  14
ATOM     13  O   UNL     1     105.016 129.749 148.368  0.00  0.00    +0.000 OA
ATOM     14  C   UNL     1     105.552 128.456 146.325  0.00  0.00    +0.000 A 
ATOM     15  C   UNL     1     106.058 129.056 146.579  0.00  0.00    +0.000 A 
ATOM     16  C   UNL     1     104.867 128.287 146.753  0.00  0.00    +0.000 A 
ATOM     17  C   UNL     1     105.880 129.487 147.260  0.00  0.00    +0.000 A 
ATOM     18  C   UNL     1     104.688 128.718 147.433  0.00  0.00    +0.000 A 
ATOM     19  C   UNL     1     105.195 129.317 147.687  0.00  0.00    +0.000 A 
ENDBRANCH   5  14
BRANCH   4  20
ATOM     20  O   UNL     1     106.746 127.317 146.358  0.00  0.00    +0.000 OA
BRANCH  20  29
ATOM     21  O   UNL     1     106.077 126.095 146.676  0.00  0.00    +0.000 OA
ATOM     22  O   UNL     1     108.154 125.227 147.706  0.00  0.00    +0.000 OA
ATOM     23  O   UNL     1     106.794 124.295 147.680  0.00  0.00    +0.000 OA
ATOM     24  O   UNL     1     108.130 126.739 147.045  0.00  0.00    +0.000 OA
ATOM     25  C   UNL     1     107.462 125.517 147.362  0.00  0.00    +0.000 C 
ATOM     26  C   UNL     1     106.783 125.050 147.350  0.00  0.00    +0.000 C 
ATOM     27  C   UNL     1     107.451 126.273 147.032  0.00  0.00    +0.000 C 
ATOM     28  C   UNL     1     106.090 125.339 147.007  0.00  0.00    +0.000 C 
ATOM     29  C   UNL     1     106.758 126.562 146.689  0.00  0.00    +0.000 C 
BRANCH  28  31
ATOM     30  O   UNL     1     104.735 125.118 147.402  0.00  0.00    +0.000 OA
ATOM     31  C   UNL     1     105.410 124.873 146.994  0.00  0.00    +0.000 C 
ENDBRANCH  28  31
ENDBRANCH  20  29
ENDBRANCH   4  20
BRANCH  12  32
ATOM     32  O   UNL     1     104.809 127.584 142.139  0.00  0.00    +0.000 OA
BRANCH  32  34
ATOM     33  O   UNL     1     105.482 128.616 141.415  0.00  0.00    +0.000 OA
ATOM     34  C   UNL     1     104.808 128.337 141.801  0.00  0.00    +0.000 C 
BRANCH  34  35
ATOM     35  C   UNL     1     104.136 128.811 141.851  0.00  0.00    +0.000 C 
ATOM     36  C   UNL     1     103.931 129.305 141.222  0.00  0.00    +0.000 C 
BRANCH  36  38
ATOM     37  O   UNL     1     101.239 131.202 141.426  0.00  0.00    +0.000 OA
ATOM     38  C   UNL     1     103.258 129.779 141.272  0.00  0.00    +0.000 A 
ATOM     39  C   UNL     1     102.650 129.691 140.723  0.00  0.00    +0.000 A 
ATOM     40  C   UNL     1     103.194 130.341 141.873  0.00  0.00    +0.000 A 
ATOM     41  C   UNL     1     101.976 130.165 140.774  0.00  0.00    +0.000 A 
ATOM     42  C   UNL     1     102.521 130.815 141.924  0.00  0.00    +0.000 A 
ATOM     43  C   UNL     1     101.912 130.728 141.374  0.00  0.00    +0.000 A 
ENDBRANCH  36  38
ENDBRANCH  34  35
ENDBRANCH  32  34
ENDBRANCH  12  32
TORSDOF 8
ENDMDL
MODEL 3
REMARK VINA RESULT:     -10.4      2.377      5.259
REMARK  Name = 131752827
REMARK  8 active torsions:
REMARK  status: ('A' for Active; 'I' for Inactive)
REMARK    1  A    between atoms: O_2  and  C_18
REMARK    2  A    between atoms: O_2  and  C_20
REMARK    3  A    between atoms: O_10  and  C_31
REMARK    4  A    between atoms: O_10  and  C_35
REMARK    5  A    between atoms: C_17  and  C_19
REMARK    6  A    between atoms: C_21  and  C_25
REMARK    7  A    between atoms: C_35  and  C_36
REMARK    8  A    between atoms: C_37  and  C_38
REMARK                            x       y       z     vdW  Elec       q    Type
REMARK                         _______ _______ _______ _____ _____    ______ ____
ROOT
ATOM      1  O   UNL     1     112.832 127.186 136.622  0.00  0.00    +0.000 OA
ATOM      2  O   UNL     1     113.105 128.383 138.771  0.00  0.00    +0.000 OA
ATOM      3  O   UNL     1     112.613 129.606 138.186  0.00  0.00    +0.000 OA
ATOM      4  C   UNL     1     113.214 127.186 137.999  0.00  0.00    +0.000 A 
ATOM      5  C   UNL     1     113.123 126.786 137.283  0.00  0.00    +0.000 A 
ATOM      6  C   UNL     1     113.014 127.984 138.055  0.00  0.00    +0.000 A 
ATOM      7  C   UNL     1     112.723 128.383 137.395  0.00  0.00    +0.000 A 
ATOM      8  C   UNL     1     112.632 127.985 136.678  0.00  0.00    +0.000 A 
ATOM      9  C   UNL     1     112.519 129.215 137.466  0.00  0.00    +0.000 A 
ATOM     10  C   UNL     1     112.330 128.389 135.983  0.00  0.00    +0.000 A 
ATOM     11  C   UNL     1     112.215 129.636 136.781  0.00  0.00    +0.000 A 
ATOM     12  C   UNL     1     112.120 129.221 136.035  0.00  0.00    +0.000 A 
ENDROOT
BRANCH   5  14
ATOM     13  O   UNL     1     113.922 123.592 137.059  0.00  0.00    +0.000 OA
ATOM     14  C   UNL     1     113.323 125.988 137.227  0.00  0.00    +0.000 A 
ATOM     15  C   UNL     1     112.731 125.419 137.151  0.00  0.00    +0.000 A 
ATOM     16  C   UNL     1     114.115 125.758 137.246  0.00  0.00    +0.000 A 
ATOM     17  C   UNL     1     112.930 124.620 137.095  0.00  0.00    +0.000 A 
ATOM     18  C   UNL     1     114.315 124.961 137.190  0.00  0.00    +0.000 A 
ATOM     19  C   UNL     1     113.723 124.391 137.115  0.00  0.00    +0.000 A 
ENDBRANCH   5  14
BRANCH   4  20
ATOM     20  O   UNL     1     113.505 126.786 138.660  0.00  0.00    +0.000 OA
BRANCH  20  29
ATOM     21  O   UNL     1     112.242 126.653 139.315  0.00  0.00    +0.000 OA
ATOM     22  O   UNL     1     113.358 126.876 141.512  0.00  0.00    +0.000 OA
ATOM     23  O   UNL     1     111.724 126.668 141.435  0.00  0.00    +0.000 OA
ATOM     24  O   UNL     1     114.249 126.935 140.125  0.00  0.00    +0.000 OA
ATOM     25  C   UNL     1     112.986 126.802 140.780  0.00  0.00    +0.000 C 
ATOM     26  C   UNL     1     112.170 126.698 140.741  0.00  0.00    +0.000 C 
ATOM     27  C   UNL     1     113.433 126.831 140.086  0.00  0.00    +0.000 C 
ATOM     28  C   UNL     1     111.797 126.623 140.009  0.00  0.00    +0.000 C 
ATOM     29  C   UNL     1     113.060 126.757 139.354  0.00  0.00    +0.000 C 
BRANCH  28  31
ATOM     30  O   UNL     1     110.668 125.830 139.639  0.00  0.00    +0.000 OA
ATOM     31  C   UNL     1     110.980 126.520 139.969  0.00  0.00    +0.000 C 
ENDBRANCH  28  31
ENDBRANCH  20  29
ENDBRANCH   4  20
BRANCH  12  32
ATOM     32  O   UNL     1     111.829 129.618 135.373  0.00  0.00    +0.000 OA
BRANCH  32  34
ATOM     33  O   UNL     1     110.919 128.821 134.613  0.00  0.00    +0.000 OA
ATOM     34  C   UNL     1     111.063 129.468 135.104  0.00  0.00    +0.000 C 
BRANCH  34  35
ATOM     35  C   UNL     1     110.444 129.963 135.327  0.00  0.00    +0.000 C 
ATOM     36  C   UNL     1     109.823 130.109 134.802  0.00  0.00    +0.000 C 
BRANCH  36  38
ATOM     37  O   UNL     1     107.342 132.093 135.698  0.00  0.00    +0.000 OA
ATOM     38  C   UNL     1     109.203 130.606 135.026  0.00  0.00    +0.000 A 
ATOM     39  C   UNL     1     109.065 131.305 134.613  0.00  0.00    +0.000 A 
ATOM     40  C   UNL     1     108.721 130.401 135.664  0.00  0.00    +0.000 A 
ATOM     41  C   UNL     1     108.445 131.801 134.836  0.00  0.00    +0.000 A 
ATOM     42  C   UNL     1     108.101 130.897 135.888  0.00  0.00    +0.000 A 
ATOM     43  C   UNL     1     107.962 131.597 135.474  0.00  0.00    +0.000 A 
ENDBRANCH  36  38
ENDBRANCH  34  35
ENDBRANCH  32  34
ENDBRANCH  12  32
TORSDOF 8
ENDMDL
MODEL 4
REMARK VINA RESULT:     -10.3      3.071      6.391
REMARK  Name = 131752827
REMARK  8 active torsions:
REMARK  status: ('A' for Active; 'I' for Inactive)
REMARK    1  A    between atoms: O_2  and  C_18
REMARK    2  A    between atoms: O_2  and  C_20
REMARK    3  A    between atoms: O_10  and  C_31
REMARK    4  A    between atoms: O_10  and  C_35
REMARK    5  A    between atoms: C_17  and  C_19
REMARK    6  A    between atoms: C_21  and  C_25
REMARK    7  A    between atoms: C_35  and  C_36
REMARK    8  A    between atoms: C_37  and  C_38
REMARK                            x       y       z     vdW  Elec       q    Type
REMARK                         _______ _______ _______ _____ _____    ______ ____
ROOT
ATOM      1  O   UNL     1     112.208 129.294 136.512  0.00  0.00    +0.000 OA
ATOM      2  O   UNL     1     110.408 130.890 135.933  0.00  0.00    +0.000 OA
ATOM      3  O   UNL     1     109.848 129.959 134.983  0.00  0.00    +0.000 OA
ATOM      4  C   UNL     1     111.575 130.562 136.689  0.00  0.00    +0.000 A 
ATOM      5  C   UNL     1     112.175 130.030 136.882  0.00  0.00    +0.000 A 
ATOM      6  C   UNL     1     111.008 130.358 136.126  0.00  0.00    +0.000 A 
ATOM      7  C   UNL     1     111.041 129.622 135.755  0.00  0.00    +0.000 A 
ATOM      8  C   UNL     1     111.641 129.089 135.948  0.00  0.00    +0.000 A 
ATOM      9  C   UNL     1     110.445 129.421 135.170  0.00  0.00    +0.000 A 
ATOM     10  C   UNL     1     111.687 128.319 135.569  0.00  0.00    +0.000 A 
ATOM     11  C   UNL     1     110.475 128.655 134.780  0.00  0.00    +0.000 A 
ATOM     12  C   UNL     1     111.100 128.101 134.981  0.00  0.00    +0.000 A 
ENDROOT
BRANCH   5  14
ATOM     13  O   UNL     1     114.443 130.845 139.137  0.00  0.00    +0.000 OA
ATOM     14  C   UNL     1     112.742 130.234 137.446  0.00  0.00    +0.000 A 
ATOM     15  C   UNL     1     112.715 129.897 138.198  0.00  0.00    +0.000 A 
ATOM     16  C   UNL     1     113.336 130.774 137.257  0.00  0.00    +0.000 A 
ATOM     17  C   UNL     1     113.282 130.101 138.763  0.00  0.00    +0.000 A 
ATOM     18  C   UNL     1     113.902 130.978 137.820  0.00  0.00    +0.000 A 
ATOM     19  C   UNL     1     113.875 130.641 138.573  0.00  0.00    +0.000 A 
ENDBRANCH   5  14
BRANCH   4  20
ATOM     20  O   UNL     1     111.541 131.298 137.060  0.00  0.00    +0.000 OA
BRANCH  20  29
ATOM     21  O   UNL     1     110.431 130.937 137.884  0.00  0.00    +0.000 OA
ATOM     22  O   UNL     1     109.741 133.312 137.993  0.00  0.00    +0.000 OA
ATOM     23  O   UNL     1     108.861 132.160 138.780  0.00  0.00    +0.000 OA
ATOM     24  O   UNL     1     111.081 132.881 137.133  0.00  0.00    +0.000 OA
ATOM     25  C   UNL     1     109.971 132.520 137.957  0.00  0.00    +0.000 C 
ATOM     26  C   UNL     1     109.531 131.945 138.350  0.00  0.00    +0.000 C 
ATOM     27  C   UNL     1     110.641 132.305 137.526  0.00  0.00    +0.000 C 
ATOM     28  C   UNL     1     109.761 131.153 138.314  0.00  0.00    +0.000 C 
ATOM     29  C   UNL     1     110.871 131.514 137.490  0.00  0.00    +0.000 C 
BRANCH  28  31
ATOM     30  O   UNL     1     109.664 130.145 139.322  0.00  0.00    +0.000 OA
ATOM     31  C   UNL     1     109.321 130.577 138.707  0.00  0.00    +0.000 C 
ENDBRANCH  28  31
ENDBRANCH  20  29
ENDBRANCH   4  20
BRANCH  12  32
ATOM     32  O   UNL     1     111.135 127.364 134.612  0.00  0.00    +0.000 OA
BRANCH  32  34
ATOM     33  O   UNL     1     109.930 126.608 134.741  0.00  0.00    +0.000 OA
ATOM     34  C   UNL     1     110.725 126.722 134.930  0.00  0.00    +0.000 C 
BRANCH  34  35
ATOM     35  C   UNL     1     111.108 126.196 135.435  0.00  0.00    +0.000 C 
ATOM     36  C   UNL     1     110.765 125.467 135.610  0.00  0.00    +0.000 C 
BRANCH  36  38
ATOM     37  O   UNL     1     112.303 123.364 137.635  0.00  0.00    +0.000 OA
ATOM     38  C   UNL     1     111.149 124.940 136.116  0.00  0.00    +0.000 A 
ATOM     39  C   UNL     1     111.598 124.324 135.805  0.00  0.00    +0.000 A 
ATOM     40  C   UNL     1     111.084 125.033 136.933  0.00  0.00    +0.000 A 
ATOM     41  C   UNL     1     111.983 123.797 136.311  0.00  0.00    +0.000 A 
ATOM     42  C   UNL     1     111.468 124.507 137.440  0.00  0.00    +0.000 A 
ATOM     43  C   UNL     1     111.918 123.889 137.129  0.00  0.00    +0.000 A 
ENDBRANCH  36  38
ENDBRANCH  34  35
ENDBRANCH  32  34
ENDBRANCH  12  32
TORSDOF 8
ENDMDL
MODEL 5
REMARK VINA RESULT:     -10.3      4.627      7.572
REMARK  Name = 131752827
REMARK  8 active torsions:
REMARK  status: ('A' for Active; 'I' for Inactive)
REMARK    1  A    between atoms: O_2  and  C_18
REMARK    2  A    between atoms: O_2  and  C_20
REMARK    3  A    between atoms: O_10  and  C_31
REMARK    4  A    between atoms: O_10  and  C_35
REMARK    5  A    between atoms: C_17  and  C_19
REMARK    6  A    between atoms: C_21  and  C_25
REMARK    7  A    between atoms: C_35  and  C_36
REMARK    8  A    between atoms: C_37  and  C_38
REMARK                            x       y       z     vdW  Elec       q    Type
REMARK                         _______ _______ _______ _____ _____    ______ ____
ROOT
ATOM      1  O   UNL     1     107.780 125.370 140.258  0.00  0.00    +0.000 OA
ATOM      2  O   UNL     1     107.907 126.454 142.480  0.00  0.00    +0.000 OA
ATOM      3  O   UNL     1     109.113 127.150 142.104  0.00  0.00    +0.000 OA
ATOM      4  C   UNL     1     107.247 125.573 141.568  0.00  0.00    +0.000 A 
ATOM      5  C   UNL     1     107.204 125.212 140.827  0.00  0.00    +0.000 A 
ATOM      6  C   UNL     1     107.864 126.092 141.740  0.00  0.00    +0.000 A 
ATOM      7  C   UNL     1     108.440 126.250 141.170  0.00  0.00    +0.000 A 
ATOM      8  C   UNL     1     108.399 125.889 140.430  0.00  0.00    +0.000 A 
ATOM      9  C   UNL     1     109.079 126.793 141.361  0.00  0.00    +0.000 A 
ATOM     10  C   UNL     1     108.992 126.045 139.828  0.00  0.00    +0.000 A 
ATOM     11  C   UNL     1     109.682 126.961 140.772  0.00  0.00    +0.000 A 
ATOM     12  C   UNL     1     109.638 126.585 140.001  0.00  0.00    +0.000 A 
ENDROOT
BRANCH   5  14
ATOM     13  O   UNL     1     104.733 123.135 140.141  0.00  0.00    +0.000 OA
ATOM     14  C   UNL     1     106.587 124.693 140.656  0.00  0.00    +0.000 A 
ATOM     15  C   UNL     1     106.576 123.940 140.992  0.00  0.00    +0.000 A 
ATOM     16  C   UNL     1     105.979 124.927 140.149  0.00  0.00    +0.000 A 
ATOM     17  C   UNL     1     105.958 123.420 140.820  0.00  0.00    +0.000 A 
ATOM     18  C   UNL     1     105.362 124.408 139.977  0.00  0.00    +0.000 A 
ATOM     19  C   UNL     1     105.352 123.654 140.313  0.00  0.00    +0.000 A 
ENDBRANCH   5  14
BRANCH   4  20
ATOM     20  O   UNL     1     106.671 125.415 142.137  0.00  0.00    +0.000 OA
BRANCH  20  29
ATOM     21  O   UNL     1     105.995 126.667 142.002  0.00  0.00    +0.000 OA
ATOM     22  O   UNL     1     105.436 126.627 144.412  0.00  0.00    +0.000 OA
ATOM     23  O   UNL     1     104.948 127.891 143.473  0.00  0.00    +0.000 OA
ATOM     24  O   UNL     1     106.298 125.388 143.744  0.00  0.00    +0.000 OA
ATOM     25  C   UNL     1     105.622 126.640 143.609  0.00  0.00    +0.000 C 
ATOM     26  C   UNL     1     105.378 127.273 143.140  0.00  0.00    +0.000 C 
ATOM     27  C   UNL     1     106.054 126.021 143.275  0.00  0.00    +0.000 C 
ATOM     28  C   UNL     1     105.565 127.286 142.336  0.00  0.00    +0.000 C 
ATOM     29  C   UNL     1     106.240 126.034 142.472  0.00  0.00    +0.000 C 
BRANCH  28  31
ATOM     30  O   UNL     1     104.821 127.785 141.223  0.00  0.00    +0.000 OA
ATOM     31  C   UNL     1     105.321 127.919 141.866  0.00  0.00    +0.000 C 
ENDBRANCH  28  31
ENDBRANCH  20  29
ENDBRANCH   4  20
BRANCH  12  32
ATOM     32  O   UNL     1     110.212 126.741 139.430  0.00  0.00    +0.000 OA
BRANCH  32  34
ATOM     33  O   UNL     1     111.453 126.220 139.910  0.00  0.00    +0.000 OA
ATOM     34  C   UNL     1     110.856 126.232 139.341  0.00  0.00    +0.000 C 
BRANCH  34  35
ATOM     35  C   UNL     1     110.902 125.736 138.684  0.00  0.00    +0.000 C 
ATOM     36  C   UNL     1     111.599 125.698 138.244  0.00  0.00    +0.000 C 
BRANCH  36  38
ATOM     37  O   UNL     1     111.782 123.709 135.617  0.00  0.00    +0.000 OA
ATOM     38  C   UNL     1     111.644 125.201 137.586  0.00  0.00    +0.000 A 
ATOM     39  C   UNL     1     111.354 125.453 136.858  0.00  0.00    +0.000 A 
ATOM     40  C   UNL     1     111.980 124.451 137.660  0.00  0.00    +0.000 A 
ATOM     41  C   UNL     1     111.400 124.957 136.201  0.00  0.00    +0.000 A 
ATOM     42  C   UNL     1     112.026 123.954 137.003  0.00  0.00    +0.000 A 
ATOM     43  C   UNL     1     111.736 124.206 136.273  0.00  0.00    +0.000 A 
ENDBRANCH  36  38
ENDBRANCH  34  35
ENDBRANCH  32  34
ENDBRANCH  12  32
TORSDOF 8
ENDMDL
MODEL 6
REMARK VINA RESULT:     -10.3      1.075      1.538
REMARK  Name = 131752827
REMARK  8 active torsions:
REMARK  status: ('A' for Active; 'I' for Inactive)
REMARK    1  A    between atoms: O_2  and  C_18
REMARK    2  A    between atoms: O_2  and  C_20
REMARK    3  A    between atoms: O_10  and  C_31
REMARK    4  A    between atoms: O_10  and  C_35
REMARK    5  A    between atoms: C_17  and  C_19
REMARK    6  A    between atoms: C_21  and  C_25
REMARK    7  A    between atoms: C_35  and  C_36
REMARK    8  A    between atoms: C_37  and  C_38
REMARK                            x       y       z     vdW  Elec       q    Type
REMARK                         _______ _______ _______ _____ _____    ______ ____
ROOT
ATOM      1  O   UNL     1     113.448 126.207 138.645  0.00  0.00    +0.000 OA
ATOM      2  O   UNL     1     111.064 125.728 138.180  0.00  0.00    +0.000 OA
ATOM      3  O   UNL     1     110.675 126.285 139.453  0.00  0.00    +0.000 OA
ATOM      4  C   UNL     1     112.436 125.689 137.780  0.00  0.00    +0.000 A 
ATOM      5  C   UNL     1     113.230 125.849 137.934  0.00  0.00    +0.000 A 
ATOM      6  C   UNL     1     111.859 125.888 138.335  0.00  0.00    +0.000 A 
ATOM      7  C   UNL     1     112.077 126.246 139.045  0.00  0.00    +0.000 A 
ATOM      8  C   UNL     1     112.871 126.406 139.201  0.00  0.00    +0.000 A 
ATOM      9  C   UNL     1     111.467 126.448 139.616  0.00  0.00    +0.000 A 
ATOM     10  C   UNL     1     113.111 126.778 139.937  0.00  0.00    +0.000 A 
ATOM     11  C   UNL     1     111.688 126.821 140.358  0.00  0.00    +0.000 A 
ATOM     12  C   UNL     1     112.515 126.987 140.519  0.00  0.00    +0.000 A 
ENDROOT
BRANCH   5  14
ATOM     13  O   UNL     1     115.538 125.056 135.712  0.00  0.00    +0.000 OA
ATOM     14  C   UNL     1     113.807 125.650 137.379  0.00  0.00    +0.000 A 
ATOM     15  C   UNL     1     114.139 126.236 136.902  0.00  0.00    +0.000 A 
ATOM     16  C   UNL     1     114.052 124.867 137.300  0.00  0.00    +0.000 A 
ATOM     17  C   UNL     1     114.716 126.038 136.346  0.00  0.00    +0.000 A 
ATOM     18  C   UNL     1     114.628 124.668 136.745  0.00  0.00    +0.000 A 
ATOM     19  C   UNL     1     114.960 125.254 136.268  0.00  0.00    +0.000 A 
ENDBRANCH   5  14
BRANCH   4  20
ATOM     20  O   UNL     1     112.218 125.331 137.069  0.00  0.00    +0.000 OA
BRANCH  20  29
ATOM     21  O   UNL     1     111.698 126.538 136.506  0.00  0.00    +0.000 OA
ATOM     22  O   UNL     1     110.130 125.216 135.121  0.00  0.00    +0.000 OA
ATOM     23  O   UNL     1     110.134 126.862 135.020  0.00  0.00    +0.000 OA
ATOM     24  O   UNL     1     111.172 124.450 136.146  0.00  0.00    +0.000 OA
ATOM     25  C   UNL     1     110.653 125.657 135.583  0.00  0.00    +0.000 C 
ATOM     26  C   UNL     1     110.654 126.480 135.532  0.00  0.00    +0.000 C 
ATOM     27  C   UNL     1     111.174 125.273 136.095  0.00  0.00    +0.000 C 
ATOM     28  C   UNL     1     111.177 126.920 135.994  0.00  0.00    +0.000 C 
ATOM     29  C   UNL     1     111.697 125.714 136.557  0.00  0.00    +0.000 C 
BRANCH  28  31
ATOM     30  O   UNL     1     111.849 128.137 135.664  0.00  0.00    +0.000 OA
ATOM     31  C   UNL     1     111.180 127.743 135.944  0.00  0.00    +0.000 C 
ENDBRANCH  28  31
ENDBRANCH  20  29
ENDBRANCH   4  20
BRANCH  12  32
ATOM     32  O   UNL     1     112.736 127.345 141.229  0.00  0.00    +0.000 OA
BRANCH  32  34
ATOM     33  O   UNL     1     113.654 128.403 140.948  0.00  0.00    +0.000 OA
ATOM     34  C   UNL     1     112.928 128.148 141.245  0.00  0.00    +0.000 C 
BRANCH  34  35
ATOM     35  C   UNL     1     112.396 128.693 141.557  0.00  0.00    +0.000 C 
ATOM     36  C   UNL     1     112.672 129.393 141.896  0.00  0.00    +0.000 C 
BRANCH  36  38
ATOM     37  O   UNL     1     110.536 131.576 143.148  0.00  0.00    +0.000 OA
ATOM     38  C   UNL     1     112.138 129.939 142.208  0.00  0.00    +0.000 A 
ATOM     39  C   UNL     1     111.773 130.489 141.715  0.00  0.00    +0.000 A 
ATOM     40  C   UNL     1     111.969 129.934 143.016  0.00  0.00    +0.000 A 
ATOM     41  C   UNL     1     111.239 131.034 142.027  0.00  0.00    +0.000 A 
ATOM     42  C   UNL     1     111.436 130.480 143.329  0.00  0.00    +0.000 A 
ATOM     43  C   UNL     1     111.070 131.030 142.835  0.00  0.00    +0.000 A 
ENDBRANCH  36  38
ENDBRANCH  34  35
ENDBRANCH  32  34
ENDBRANCH  12  32
TORSDOF 8
ENDMDL
MODEL 7
REMARK VINA RESULT:     -10.3      7.801     10.017
REMARK  Name = 131752827
REMARK  8 active torsions:
REMARK  status: ('A' for Active; 'I' for Inactive)
REMARK    1  A    between atoms: O_2  and  C_18
REMARK    2  A    between atoms: O_2  and  C_20
REMARK    3  A    between atoms: O_10  and  C_31
REMARK    4  A    between atoms: O_10  and  C_35
REMARK    5  A    between atoms: C_17  and  C_19
REMARK    6  A    between atoms: C_21  and  C_25
REMARK    7  A    between atoms: C_35  and  C_36
REMARK    8  A    between atoms: C_37  and  C_38
REMARK                            x       y       z     vdW  Elec       q    Type
REMARK                         _______ _______ _______ _____ _____    ______ ____
ROOT
ATOM      1  O   UNL     1     104.854 127.763 143.129  0.00  0.00    +0.000 OA
ATOM      2  O   UNL     1     107.195 128.364 142.596  0.00  0.00    +0.000 OA
ATOM      3  O   UNL     1     107.691 127.337 143.481  0.00  0.00    +0.000 OA
ATOM      4  C   UNL     1     105.793 128.575 142.421  0.00  0.00    +0.000 A 
ATOM      5  C   UNL     1     105.012 128.375 142.599  0.00  0.00    +0.000 A 
ATOM      6  C   UNL     1     106.415 128.164 142.773  0.00  0.00    +0.000 A 
ATOM      7  C   UNL     1     106.256 127.552 143.304  0.00  0.00    +0.000 A 
ATOM      8  C   UNL     1     105.476 127.351 143.482  0.00  0.00    +0.000 A 
ATOM      9  C   UNL     1     106.913 127.131 143.664  0.00  0.00    +0.000 A 
ATOM     10  C   UNL     1     105.298 126.717 144.033  0.00  0.00    +0.000 A 
ATOM     11  C   UNL     1     106.754 126.492 144.218  0.00  0.00    +0.000 A 
ATOM     12  C   UNL     1     105.942 126.284 144.403  0.00  0.00    +0.000 A 
ENDROOT
BRANCH   5  14
ATOM     13  O   UNL     1     102.523 130.021 141.188  0.00  0.00    +0.000 OA
ATOM     14  C   UNL     1     104.390 128.786 142.247  0.00  0.00    +0.000 A 
ATOM     15  C   UNL     1     104.181 128.627 141.465  0.00  0.00    +0.000 A 
ATOM     16  C   UNL     1     103.977 129.357 142.676  0.00  0.00    +0.000 A 
ATOM     17  C   UNL     1     103.559 129.039 141.111  0.00  0.00    +0.000 A 
ATOM     18  C   UNL     1     103.355 129.768 142.323  0.00  0.00    +0.000 A 
ATOM     19  C   UNL     1     103.146 129.609 141.541  0.00  0.00    +0.000 A 
ENDBRANCH   5  14
BRANCH   4  20
ATOM     20  O   UNL     1     105.951 129.187 141.891  0.00  0.00    +0.000 OA
BRANCH  20  29
ATOM     21  O   UNL     1     106.334 130.128 142.896  0.00  0.00    +0.000 OA
ATOM     22  O   UNL     1     107.920 131.175 141.311  0.00  0.00    +0.000 OA
ATOM     23  O   UNL     1     107.773 131.767 142.843  0.00  0.00    +0.000 OA
ATOM     24  O   UNL     1     107.009 129.885 140.834  0.00  0.00    +0.000 OA
ATOM     25  C   UNL     1     107.391 130.826 141.839  0.00  0.00    +0.000 C 
ATOM     26  C   UNL     1     107.318 131.122 142.605  0.00  0.00    +0.000 C 
ATOM     27  C   UNL     1     106.936 130.181 141.600  0.00  0.00    +0.000 C 
ATOM     28  C   UNL     1     106.789 130.773 143.133  0.00  0.00    +0.000 C 
ATOM     29  C   UNL     1     106.407 129.832 142.128  0.00  0.00    +0.000 C 
BRANCH  28  31
ATOM     30  O   UNL     1     105.996 131.384 144.153  0.00  0.00    +0.000 OA
ATOM     31  C   UNL     1     106.716 131.068 143.900  0.00  0.00    +0.000 C 
ENDBRANCH  28  31
ENDBRANCH  20  29
ENDBRANCH   4  20
BRANCH  12  32
ATOM     32  O   UNL     1     105.780 125.673 144.933  0.00  0.00    +0.000 OA
BRANCH  32  34
ATOM     33  O   UNL     1     105.060 126.309 145.990  0.00  0.00    +0.000 OA
ATOM     34  C   UNL     1     105.687 125.837 145.737  0.00  0.00    +0.000 C 
BRANCH  34  35
ATOM     35  C   UNL     1     106.219 125.529 146.285  0.00  0.00    +0.000 C 
ATOM     36  C   UNL     1     106.030 125.529 147.089  0.00  0.00    +0.000 C 
BRANCH  36  38
ATOM     37  O   UNL     1     108.166 124.296 149.282  0.00  0.00    +0.000 OA
ATOM     38  C   UNL     1     106.564 125.221 147.638  0.00  0.00    +0.000 A 
ATOM     39  C   UNL     1     106.303 124.693 148.214  0.00  0.00    +0.000 A 
ATOM     40  C   UNL     1     107.358 125.441 147.608  0.00  0.00    +0.000 A 
ATOM     41  C   UNL     1     106.836 124.385 148.763  0.00  0.00    +0.000 A 
ATOM     42  C   UNL     1     107.892 125.133 148.157  0.00  0.00    +0.000 A 
ATOM     43  C   UNL     1     107.632 124.604 148.734  0.00  0.00    +0.000 A 
ENDBRANCH  36  38
ENDBRANCH  34  35
ENDBRANCH  32  34
ENDBRANCH  12  32
TORSDOF 8
ENDMDL
MODEL 8
REMARK VINA RESULT:     -10.3      8.187     10.527
REMARK  Name = 131752827
REMARK  8 active torsions:
REMARK  status: ('A' for Active; 'I' for Inactive)
REMARK    1  A    between atoms: O_2  and  C_18
REMARK    2  A    between atoms: O_2  and  C_20
REMARK    3  A    between atoms: O_10  and  C_31
REMARK    4  A    between atoms: O_10  and  C_35
REMARK    5  A    between atoms: C_17  and  C_19
REMARK    6  A    between atoms: C_21  and  C_25
REMARK    7  A    between atoms: C_35  and  C_36
REMARK    8  A    between atoms: C_37  and  C_38
REMARK                            x       y       z     vdW  Elec       q    Type
REMARK                         _______ _______ _______ _____ _____    ______ ____
ROOT
ATOM      1  O   UNL     1     107.122 126.989 147.165  0.00  0.00    +0.000 OA
ATOM      2  O   UNL     1     104.827 126.836 146.252  0.00  0.00    +0.000 OA
ATOM      3  O   UNL     1     105.018 128.045 145.489  0.00  0.00    +0.000 OA
ATOM      4  C   UNL     1     105.867 126.313 147.081  0.00  0.00    +0.000 A 
ATOM      5  C   UNL     1     106.632 126.364 147.386  0.00  0.00    +0.000 A 
ATOM      6  C   UNL     1     105.592 126.886 146.557  0.00  0.00    +0.000 A 
ATOM      7  C   UNL     1     106.082 127.512 146.336  0.00  0.00    +0.000 A 
ATOM      8  C   UNL     1     106.848 127.564 146.640  0.00  0.00    +0.000 A 
ATOM      9  C   UNL     1     105.785 128.104 145.788  0.00  0.00    +0.000 A 
ATOM     10  C   UNL     1     107.369 128.210 146.418  0.00  0.00    +0.000 A 
ATOM     11  C   UNL     1     106.291 128.758 145.555  0.00  0.00    +0.000 A 
ATOM     12  C   UNL     1     107.088 128.811 145.872  0.00  0.00    +0.000 A 
ENDROOT
BRANCH   5  14
ATOM     13  O   UNL     1     107.732 124.067 149.484  0.00  0.00    +0.000 OA
ATOM     14  C   UNL     1     106.906 125.790 147.910  0.00  0.00    +0.000 A 
ATOM     15  C   UNL     1     107.504 125.270 147.677  0.00  0.00    +0.000 A 
ATOM     16  C   UNL     1     106.584 125.734 148.668  0.00  0.00    +0.000 A 
ATOM     17  C   UNL     1     107.779 124.696 148.202  0.00  0.00    +0.000 A 
ATOM     18  C   UNL     1     106.859 125.161 149.192  0.00  0.00    +0.000 A 
ATOM     19  C   UNL     1     107.456 124.641 148.959  0.00  0.00    +0.000 A 
ENDBRANCH   5  14
BRANCH   4  20
ATOM     20  O   UNL     1     105.376 125.687 147.302  0.00  0.00    +0.000 OA
BRANCH  20  29
ATOM     21  O   UNL     1     105.485 125.035 146.035  0.00  0.00    +0.000 OA
ATOM     22  O   UNL     1     103.266 123.993 146.381  0.00  0.00    +0.000 OA
ATOM     23  O   UNL     1     104.114 123.688 145.000  0.00  0.00    +0.000 OA
ATOM     24  O   UNL     1     103.897 124.993 147.532  0.00  0.00    +0.000 OA
ATOM     25  C   UNL     1     104.006 124.340 146.266  0.00  0.00    +0.000 C 
ATOM     26  C   UNL     1     104.429 124.188 145.575  0.00  0.00    +0.000 C 
ATOM     27  C   UNL     1     104.321 124.840 146.842  0.00  0.00    +0.000 C 
ATOM     28  C   UNL     1     105.169 124.535 145.460  0.00  0.00    +0.000 C 
ATOM     29  C   UNL     1     105.060 125.187 146.726  0.00  0.00    +0.000 C 
BRANCH  28  31
ATOM     30  O   UNL     1     106.387 124.159 144.814  0.00  0.00    +0.000 OA
ATOM     31  C   UNL     1     105.593 124.383 144.769  0.00  0.00    +0.000 C 
ENDBRANCH  28  31
ENDBRANCH  20  29
ENDBRANCH   4  20
BRANCH  12  32
ATOM     32  O   UNL     1     107.581 129.436 145.653  0.00  0.00    +0.000 OA
BRANCH  32  34
ATOM     33  O   UNL     1     108.181 128.815 144.514  0.00  0.00    +0.000 OA
ATOM     34  C   UNL     1     108.245 129.293 145.183  0.00  0.00    +0.000 C 
BRANCH  34  35
ATOM     35  C   UNL     1     108.970 129.629 145.383  0.00  0.00    +0.000 C 
ATOM     36  C   UNL     1     109.430 129.994 144.802  0.00  0.00    +0.000 C 
BRANCH  36  38
ATOM     37  O   UNL     1     112.338 131.333 145.603  0.00  0.00    +0.000 OA
ATOM     38  C   UNL     1     110.157 130.329 145.002  0.00  0.00    +0.000 A 
ATOM     39  C   UNL     1     110.207 131.133 145.174  0.00  0.00    +0.000 A 
ATOM     40  C   UNL     1     110.834 129.858 145.031  0.00  0.00    +0.000 A 
ATOM     41  C   UNL     1     110.933 131.469 145.374  0.00  0.00    +0.000 A 
ATOM     42  C   UNL     1     111.561 130.193 145.232  0.00  0.00    +0.000 A 
ATOM     43  C   UNL     1     111.611 130.999 145.403  0.00  0.00    +0.000 A 
ENDBRANCH  36  38
ENDBRANCH  34  35
ENDBRANCH  32  34
ENDBRANCH  12  32
TORSDOF 8
ENDMDL
MODEL 9
REMARK VINA RESULT:     -10.3      6.665     10.014
REMARK  Name = 131752827
REMARK  8 active torsions:
REMARK  status: ('A' for Active; 'I' for Inactive)
REMARK    1  A    between atoms: O_2  and  C_18
REMARK    2  A    between atoms: O_2  and  C_20
REMARK    3  A    between atoms: O_10  and  C_31
REMARK    4  A    between atoms: O_10  and  C_35
REMARK    5  A    between atoms: C_17  and  C_19
REMARK    6  A    between atoms: C_21  and  C_25
REMARK    7  A    between atoms: C_35  and  C_36
REMARK    8  A    between atoms: C_37  and  C_38
REMARK                            x       y       z     vdW  Elec       q    Type
REMARK                         _______ _______ _______ _____ _____    ______ ____
ROOT
ATOM      1  O   UNL     1     105.103 127.327 141.921  0.00  0.00    +0.000 OA
ATOM      2  O   UNL     1     107.371 127.447 142.907  0.00  0.00    +0.000 OA
ATOM      3  O   UNL     1     107.702 126.148 142.375  0.00  0.00    +0.000 OA
ATOM      4  C   UNL     1     106.086 128.031 142.683  0.00  0.00    +0.000 A 
ATOM      5  C   UNL     1     105.330 127.991 142.354  0.00  0.00    +0.000 A 
ATOM      6  C   UNL     1     106.615 127.408 142.578  0.00  0.00    +0.000 A 
ATOM      7  C   UNL     1     106.388 126.743 142.145  0.00  0.00    +0.000 A 
ATOM      8  C   UNL     1     105.633 126.702 141.816  0.00  0.00    +0.000 A 
ATOM      9  C   UNL     1     106.949 126.099 142.043  0.00  0.00    +0.000 A 
ATOM     10  C   UNL     1     105.384 126.016 141.363  0.00  0.00    +0.000 A 
ATOM     11  C   UNL     1     106.718 125.404 141.593  0.00  0.00    +0.000 A 
ATOM     12  C   UNL     1     105.931 125.363 141.251  0.00  0.00    +0.000 A 
ENDROOT
BRANCH   5  14
ATOM     13  O   UNL     1     103.213 130.488 142.773  0.00  0.00    +0.000 OA
ATOM     14  C   UNL     1     104.801 128.615 142.459  0.00  0.00    +0.000 A 
ATOM     15  C   UNL     1     104.511 128.788 143.212  0.00  0.00    +0.000 A 
ATOM     16  C   UNL     1     104.561 129.067 141.811  0.00  0.00    +0.000 A 
ATOM     17  C   UNL     1     103.982 129.413 143.317  0.00  0.00    +0.000 A 
ATOM     18  C   UNL     1     104.032 129.690 141.916  0.00  0.00    +0.000 A 
ATOM     19  C   UNL     1     103.742 129.863 142.668  0.00  0.00    +0.000 A 
ENDBRANCH   5  14
BRANCH   4  20
ATOM     20  O   UNL     1     106.312 128.696 143.116  0.00  0.00    +0.000 OA
BRANCH  20  29
ATOM     21  O   UNL     1     107.146 129.233 142.087  0.00  0.00    +0.000 OA
ATOM     22  O   UNL     1     108.624 130.229 143.805  0.00  0.00    +0.000 OA
ATOM     23  O   UNL     1     108.964 130.434 142.205  0.00  0.00    +0.000 OA
ATOM     24  O   UNL     1     107.298 129.359 144.261  0.00  0.00    +0.000 OA
ATOM     25  C   UNL     1     108.131 129.897 143.233  0.00  0.00    +0.000 C 
ATOM     26  C   UNL     1     108.302 130.000 142.433  0.00  0.00    +0.000 C 
ATOM     27  C   UNL     1     107.468 129.462 143.461  0.00  0.00    +0.000 C 
ATOM     28  C   UNL     1     107.809 129.668 141.860  0.00  0.00    +0.000 C 
ATOM     29  C   UNL     1     106.976 129.131 142.889  0.00  0.00    +0.000 C 
BRANCH  28  31
ATOM     30  O   UNL     1     107.438 130.156 140.569  0.00  0.00    +0.000 OA
ATOM     31  C   UNL     1     107.979 129.771 141.059  0.00  0.00    +0.000 C 
ENDBRANCH  28  31
ENDBRANCH  20  29
ENDBRANCH   4  20
BRANCH  12  32
ATOM     32  O   UNL     1     105.702 124.699 140.817  0.00  0.00    +0.000 OA
BRANCH  32  34
ATOM     33  O   UNL     1     106.355 124.906 139.563  0.00  0.00    +0.000 OA
ATOM     34  C   UNL     1     105.672 124.734 139.993  0.00  0.00    +0.000 C 
BRANCH  34  35
ATOM     35  C   UNL     1     104.961 124.597 139.600  0.00  0.00    +0.000 C 
ATOM     36  C   UNL     1     104.855 123.903 139.166  0.00  0.00    +0.000 C 
BRANCH  36  38
ATOM     37  O   UNL     1     102.005 123.359 137.595  0.00  0.00    +0.000 OA
ATOM     38  C   UNL     1     104.143 123.767 138.773  0.00  0.00    +0.000 A 
ATOM     39  C   UNL     1     104.137 123.660 137.956  0.00  0.00    +0.000 A 
ATOM     40  C   UNL     1     103.437 123.738 139.198  0.00  0.00    +0.000 A 
ATOM     41  C   UNL     1     103.424 123.524 137.563  0.00  0.00    +0.000 A 
ATOM     42  C   UNL     1     102.724 123.602 138.806  0.00  0.00    +0.000 A 
ATOM     43  C   UNL     1     102.717 123.495 137.988  0.00  0.00    +0.000 A 
ENDBRANCH  36  38
ENDBRANCH  34  35
ENDBRANCH  32  34
ENDBRANCH  12  32
TORSDOF 8
ENDMDL
MODEL 10
REMARK VINA RESULT:     -10.2      2.503      5.311
REMARK  Name = 131752827
REMARK  8 active torsions:
REMARK  status: ('A' for Active; 'I' for Inactive)
REMARK    1  A    between atoms: O_2  and  C_18
REMARK    2  A    between atoms: O_2  and  C_20
REMARK    3  A    between atoms: O_10  and  C_31
REMARK    4  A    between atoms: O_10  and  C_35
REMARK    5  A    between atoms: C_17  and  C_19
REMARK    6  A    between atoms: C_21  and  C_25
REMARK    7  A    between atoms: C_35  and  C_36
REMARK    8  A    between atoms: C_37  and  C_38
REMARK                            x       y       z     vdW  Elec       q    Type
REMARK                         _______ _______ _______ _____ _____    ______ ____
ROOT
ATOM      1  O   UNL     1     112.005 128.188 138.147  0.00  0.00    +0.000 OA
ATOM      2  O   UNL     1     113.846 127.164 136.848  0.00  0.00    +0.000 OA
ATOM      3  O   UNL     1     113.685 128.139 135.796  0.00  0.00    +0.000 OA
ATOM      4  C   UNL     1     113.016 127.187 138.010  0.00  0.00    +0.000 A 
ATOM      5  C   UNL     1     112.402 127.528 138.444  0.00  0.00    +0.000 A 
ATOM      6  C   UNL     1     113.232 127.505 137.281  0.00  0.00    +0.000 A 
ATOM      7  C   UNL     1     112.835 128.164 136.984  0.00  0.00    +0.000 A 
ATOM      8  C   UNL     1     112.222 128.506 137.417  0.00  0.00    +0.000 A 
ATOM      9  C   UNL     1     113.071 128.486 136.223  0.00  0.00    +0.000 A 
ATOM     10  C   UNL     1     111.800 129.193 137.119  0.00  0.00    +0.000 A 
ATOM     11  C   UNL     1     112.660 129.173 135.908  0.00  0.00    +0.000 A 
ATOM     12  C   UNL     1     112.021 129.528 136.359  0.00  0.00    +0.000 A 
ENDROOT
BRANCH   5  14
ATOM     13  O   UNL     1     111.536 126.258 141.364  0.00  0.00    +0.000 OA
ATOM     14  C   UNL     1     112.185 127.211 139.173  0.00  0.00    +0.000 A 
ATOM     15  C   UNL     1     112.685 127.296 139.824  0.00  0.00    +0.000 A 
ATOM     16  C   UNL     1     111.470 126.808 139.253  0.00  0.00    +0.000 A 
ATOM     17  C   UNL     1     112.468 126.978 140.555  0.00  0.00    +0.000 A 
ATOM     18  C   UNL     1     111.253 126.491 139.982  0.00  0.00    +0.000 A 
ATOM     19  C   UNL     1     111.752 126.576 140.633  0.00  0.00    +0.000 A 
ENDBRANCH   5  14
BRANCH   4  20
ATOM     20  O   UNL     1     113.413 126.528 138.307  0.00  0.00    +0.000 OA
BRANCH  20  29
ATOM     21  O   UNL     1     112.784 125.587 137.436  0.00  0.00    +0.000 OA
ATOM     22  O   UNL     1     114.856 124.233 137.404  0.00  0.00    +0.000 OA
ATOM     23  O   UNL     1     113.537 123.743 136.543  0.00  0.00    +0.000 OA
ATOM     24  O   UNL     1     114.794 125.626 138.286  0.00  0.00    +0.000 OA
ATOM     25  C   UNL     1     114.165 124.684 137.414  0.00  0.00    +0.000 C 
ATOM     26  C   UNL     1     113.506 124.439 136.984  0.00  0.00    +0.000 C 
ATOM     27  C   UNL     1     114.135 125.380 137.856  0.00  0.00    +0.000 C 
ATOM     28  C   UNL     1     112.816 124.890 136.995  0.00  0.00    +0.000 C 
ATOM     29  C   UNL     1     113.445 125.832 137.866  0.00  0.00    +0.000 C 
BRANCH  28  31
ATOM     30  O   UNL     1     111.433 124.531 136.947  0.00  0.00    +0.000 OA
ATOM     31  C   UNL     1     112.156 124.646 136.564  0.00  0.00    +0.000 C 
ENDBRANCH  28  31
ENDBRANCH  20  29
ENDBRANCH   4  20
BRANCH  12  32
ATOM     32  O   UNL     1     111.622 130.188 136.065  0.00  0.00    +0.000 OA
BRANCH  32  34
ATOM     33  O   UNL     1     111.105 129.690 134.829  0.00  0.00    +0.000 OA
ATOM     34  C   UNL     1     110.991 130.090 135.542  0.00  0.00    +0.000 C 
BRANCH  34  35
ATOM     35  C   UNL     1     110.248 130.391 135.731  0.00  0.00    +0.000 C 
ATOM     36  C   UNL     1     109.732 130.625 135.131  0.00  0.00    +0.000 C 
BRANCH  36  38
ATOM     37  O   UNL     1     106.755 131.828 135.895  0.00  0.00    +0.000 OA
ATOM     38  C   UNL     1     108.988 130.926 135.322  0.00  0.00    +0.000 A 
ATOM     39  C   UNL     1     108.719 131.618 134.965  0.00  0.00    +0.000 A 
ATOM     40  C   UNL     1     108.513 130.534 135.870  0.00  0.00    +0.000 A 
ATOM     41  C   UNL     1     107.975 131.920 135.155  0.00  0.00    +0.000 A 
ATOM     42  C   UNL     1     107.768 130.834 136.061  0.00  0.00    +0.000 A 
ATOM     43  C   UNL     1     107.499 131.528 135.704  0.00  0.00    +0.000 A 
ENDBRANCH  36  38
ENDBRANCH  34  35
ENDBRANCH  32  34
ENDBRANCH  12  32
TORSDOF 8
ENDMDL
