MODEL 1
REMARK VINA RESULT:      -8.2      0.000      0.000
REMARK  Name = 42607699
REMARK  8 active torsions:
REMARK  status: ('A' for Active; 'I' for Inactive)
REMARK    1  A    between atoms: O_2  and  C_15
REMARK    2  A    between atoms: O_2  and  C_17
REMARK    3  A    between atoms: O_10  and  C_31
REMARK    4  A    between atoms: C_14  and  C_16
REMARK    5  A    between atoms: C_18  and  C_20
REMARK    6  A    between atoms: C_20  and  C_22
REMARK    7  A    between atoms: C_22  and  C_24
REMARK    8  A    between atoms: C_24  and  C_26
REMARK                            x       y       z     vdW  Elec       q    Type
REMARK                         _______ _______ _______ _____ _____    ______ ____
ROOT
ATOM      1  O   UNL     1     108.457 125.410 147.663  0.00  0.00    +0.000 OA
ATOM      2  O   UNL     1     107.098 123.824 149.612  0.00  0.00    +0.000 OA
ATOM      3  C   UNL     1     106.357 124.838 147.827  0.00  0.00    +0.000 A 
ATOM      4  C   UNL     1     107.053 125.180 147.542  0.00  0.00    +0.000 A 
ATOM      5  C   UNL     1     106.373 124.386 148.517  0.00  0.00    +0.000 A 
ATOM      6  C   UNL     1     107.763 125.069 147.947  0.00  0.00    +0.000 A 
ATOM      7  C   UNL     1     107.083 124.276 148.923  0.00  0.00    +0.000 A 
ATOM      8  C   UNL     1     107.777 124.617 148.638  0.00  0.00    +0.000 A 
ENDROOT
BRANCH   4  10
ATOM      9  O   UNL     1     107.085 125.263 146.116  0.00  0.00    +0.000 OA
ATOM     10  C   UNL     1     107.037 125.632 146.852  0.00  0.00    +0.000 C 
BRANCH  10  11
ATOM     11  C   UNL     1     106.972 126.453 146.899  0.00  0.00    +0.000 C 
BRANCH  11  12
ATOM     12  C   UNL     1     106.894 126.900 146.210  0.00  0.00    +0.000 C 
BRANCH  12  13
ATOM     13  C   UNL     1     106.830 127.722 146.257  0.00  0.00    +0.000 A 
ATOM     14  C   UNL     1     106.115 128.068 146.481  0.00  0.00    +0.000 A 
ATOM     15  C   UNL     1     107.481 128.196 146.080  0.00  0.00    +0.000 A 
ATOM     16  C   UNL     1     106.052 128.889 146.528  0.00  0.00    +0.000 A 
ATOM     17  C   UNL     1     107.417 129.018 146.127  0.00  0.00    +0.000 A 
ATOM     18  C   UNL     1     106.702 129.365 146.351  0.00  0.00    +0.000 A 
BRANCH  18  19
ATOM     19  O   UNL     1     106.639 130.185 146.397  0.00  0.00    +0.000 OA
ATOM     20  C   UNL     1     106.801 130.651 145.736  0.00  0.00    +0.000 C 
ENDBRANCH  18  19
ENDBRANCH  12  13
ENDBRANCH  11  12
ENDBRANCH  10  11
ENDBRANCH   4  10
BRANCH   3  21
ATOM     21  O   UNL     1     105.647 124.949 147.422  0.00  0.00    +0.000 OA
BRANCH  21  30
ATOM     22  O   UNL     1     104.800 125.405 148.478  0.00  0.00    +0.000 OA
ATOM     23  O   UNL     1     103.041 123.823 147.751  0.00  0.00    +0.000 OA
ATOM     24  O   UNL     1     102.780 124.807 149.050  0.00  0.00    +0.000 OA
ATOM     25  O   UNL     1     104.474 123.894 146.938  0.00  0.00    +0.000 OA
ATOM     26  C   UNL     1     103.628 124.350 147.993  0.00  0.00    +0.000 C 
ATOM     27  C   UNL     1     103.497 124.843 148.643  0.00  0.00    +0.000 C 
ATOM     28  C   UNL     1     104.344 124.386 147.587  0.00  0.00    +0.000 C 
ATOM     29  C   UNL     1     104.083 125.370 148.885  0.00  0.00    +0.000 C 
ATOM     30  C   UNL     1     104.931 124.914 147.829  0.00  0.00    +0.000 C 
BRANCH  29  32
ATOM     31  O   UNL     1     104.192 126.651 149.509  0.00  0.00    +0.000 OA
ATOM     32  C   UNL     1     103.953 125.862 149.534  0.00  0.00    +0.000 C 
ENDBRANCH  29  32
ENDBRANCH  21  30
ENDBRANCH   3  21
TORSDOF 8
ENDMDL
MODEL 2
REMARK VINA RESULT:      -8.2      1.903      5.153
REMARK  Name = 42607699
REMARK  8 active torsions:
REMARK  status: ('A' for Active; 'I' for Inactive)
REMARK    1  A    between atoms: O_2  and  C_15
REMARK    2  A    between atoms: O_2  and  C_17
REMARK    3  A    between atoms: O_10  and  C_31
REMARK    4  A    between atoms: C_14  and  C_16
REMARK    5  A    between atoms: C_18  and  C_20
REMARK    6  A    between atoms: C_20  and  C_22
REMARK    7  A    between atoms: C_22  and  C_24
REMARK    8  A    between atoms: C_24  and  C_26
REMARK                            x       y       z     vdW  Elec       q    Type
REMARK                         _______ _______ _______ _____ _____    ______ ____
ROOT
ATOM      1  O   UNL     1     102.606 126.574 148.367  0.00  0.00    +0.000 OA
ATOM      2  O   UNL     1     105.058 128.037 148.453  0.00  0.00    +0.000 OA
ATOM      3  C   UNL     1     104.675 125.889 148.478  0.00  0.00    +0.000 A 
ATOM      4  C   UNL     1     103.850 125.877 148.439  0.00  0.00    +0.000 A 
ATOM      5  C   UNL     1     105.077 126.609 148.482  0.00  0.00    +0.000 A 
ATOM      6  C   UNL     1     103.429 126.586 148.405  0.00  0.00    +0.000 A 
ATOM      7  C   UNL     1     104.656 127.317 148.448  0.00  0.00    +0.000 A 
ATOM      8  C   UNL     1     103.832 127.306 148.410  0.00  0.00    +0.000 A 
ENDROOT
BRANCH   4  10
ATOM      9  O   UNL     1     103.318 124.753 149.142  0.00  0.00    +0.000 OA
ATOM     10  C   UNL     1     103.448 125.157 148.435  0.00  0.00    +0.000 C 
BRANCH  10  11
ATOM     11  C   UNL     1     103.177 124.841 147.722  0.00  0.00    +0.000 C 
BRANCH  11  12
ATOM     12  C   UNL     1     102.751 124.134 147.720  0.00  0.00    +0.000 C 
BRANCH  12  13
ATOM     13  C   UNL     1     102.475 123.822 147.008  0.00  0.00    +0.000 A 
ATOM     14  C   UNL     1     101.682 123.911 146.798  0.00  0.00    +0.000 A 
ATOM     15  C   UNL     1     102.991 123.420 146.506  0.00  0.00    +0.000 A 
ATOM     16  C   UNL     1     101.405 123.599 146.087  0.00  0.00    +0.000 A 
ATOM     17  C   UNL     1     102.715 123.107 145.794  0.00  0.00    +0.000 A 
ATOM     18  C   UNL     1     101.922 123.197 145.584  0.00  0.00    +0.000 A 
BRANCH  18  19
ATOM     19  O   UNL     1     101.646 122.884 144.873  0.00  0.00    +0.000 OA
ATOM     20  C   UNL     1     100.834 122.809 144.742  0.00  0.00    +0.000 C 
ENDBRANCH  18  19
ENDBRANCH  12  13
ENDBRANCH  11  12
ENDBRANCH  10  11
ENDBRANCH   4  10
BRANCH   3  21
ATOM     21  O   UNL     1     105.096 125.180 148.511  0.00  0.00    +0.000 OA
BRANCH  21  30
ATOM     22  O   UNL     1     105.972 125.268 147.386  0.00  0.00    +0.000 OA
ATOM     23  O   UNL     1     107.900 124.741 148.846  0.00  0.00    +0.000 OA
ATOM     24  O   UNL     1     108.133 125.004 147.234  0.00  0.00    +0.000 OA
ATOM     25  O   UNL     1     106.382 124.829 149.484  0.00  0.00    +0.000 OA
ATOM     26  C   UNL     1     107.257 124.917 148.359  0.00  0.00    +0.000 C 
ATOM     27  C   UNL     1     107.374 125.048 147.553  0.00  0.00    +0.000 C 
ATOM     28  C   UNL     1     106.498 124.961 148.678  0.00  0.00    +0.000 C 
ATOM     29  C   UNL     1     106.731 125.224 147.066  0.00  0.00    +0.000 C 
ATOM     30  C   UNL     1     105.855 125.136 148.192  0.00  0.00    +0.000 C 
BRANCH  29  32
ATOM     31  O   UNL     1     106.464 124.882 145.705  0.00  0.00    +0.000 OA
ATOM     32  C   UNL     1     106.848 125.355 146.261  0.00  0.00    +0.000 C 
ENDBRANCH  29  32
ENDBRANCH  21  30
ENDBRANCH   3  21
TORSDOF 8
ENDMDL
MODEL 3
REMARK VINA RESULT:      -7.8     10.667     12.376
REMARK  Name = 42607699
REMARK  8 active torsions:
REMARK  status: ('A' for Active; 'I' for Inactive)
REMARK    1  A    between atoms: O_2  and  C_15
REMARK    2  A    between atoms: O_2  and  C_17
REMARK    3  A    between atoms: O_10  and  C_31
REMARK    4  A    between atoms: C_14  and  C_16
REMARK    5  A    between atoms: C_18  and  C_20
REMARK    6  A    between atoms: C_20  and  C_22
REMARK    7  A    between atoms: C_22  and  C_24
REMARK    8  A    between atoms: C_24  and  C_26
REMARK                            x       y       z     vdW  Elec       q    Type
REMARK                         _______ _______ _______ _____ _____    ______ ____
ROOT
ATOM      1  O   UNL     1     114.034 124.734 136.350  0.00  0.00    +0.000 OA
ATOM      2  O   UNL     1     111.642 123.240 136.810  0.00  0.00    +0.000 OA
ATOM      3  C   UNL     1     112.276 125.188 137.561  0.00  0.00    +0.000 A 
ATOM      4  C   UNL     1     113.015 125.261 137.201  0.00  0.00    +0.000 A 
ATOM      5  C   UNL     1     111.819 124.514 137.431  0.00  0.00    +0.000 A 
ATOM      6  C   UNL     1     113.296 124.660 136.710  0.00  0.00    +0.000 A 
ATOM      7  C   UNL     1     112.099 123.913 136.940  0.00  0.00    +0.000 A 
ATOM      8  C   UNL     1     112.837 123.986 136.580  0.00  0.00    +0.000 A 
ENDROOT
BRANCH   4  10
ATOM      9  O   UNL     1     113.920 126.003 138.021  0.00  0.00    +0.000 OA
ATOM     10  C   UNL     1     113.472 125.935 137.331  0.00  0.00    +0.000 C 
BRANCH  10  11
ATOM     11  C   UNL     1     113.481 126.542 136.772  0.00  0.00    +0.000 C 
BRANCH  11  12
ATOM     12  C   UNL     1     113.866 127.252 136.940  0.00  0.00    +0.000 C 
BRANCH  12  13
ATOM     13  C   UNL     1     113.874 127.859 136.381  0.00  0.00    +0.000 A 
ATOM     14  C   UNL     1     113.301 128.452 136.407  0.00  0.00    +0.000 A 
ATOM     15  C   UNL     1     114.455 127.872 135.795  0.00  0.00    +0.000 A 
ATOM     16  C   UNL     1     113.310 129.058 135.849  0.00  0.00    +0.000 A 
ATOM     17  C   UNL     1     114.463 128.479 135.236  0.00  0.00    +0.000 A 
ATOM     18  C   UNL     1     113.890 129.072 135.262  0.00  0.00    +0.000 A 
BRANCH  18  19
ATOM     19  O   UNL     1     113.899 129.678 134.704  0.00  0.00    +0.000 OA
ATOM     20  C   UNL     1     114.486 130.258 134.731  0.00  0.00    +0.000 C 
ENDBRANCH  18  19
ENDBRANCH  12  13
ENDBRANCH  11  12
ENDBRANCH  10  11
ENDBRANCH   4  10
BRANCH   3  21
ATOM     21  O   UNL     1     111.995 125.789 138.052  0.00  0.00    +0.000 OA
BRANCH  21  30
ATOM     22  O   UNL     1     110.777 126.163 137.407  0.00  0.00    +0.000 OA
ATOM     23  O   UNL     1     109.580 125.986 139.566  0.00  0.00    +0.000 OA
ATOM     24  O   UNL     1     108.760 126.420 138.201  0.00  0.00    +0.000 OA
ATOM     25  O   UNL     1     111.197 125.670 139.491  0.00  0.00    +0.000 OA
ATOM     26  C   UNL     1     109.979 126.045 138.847  0.00  0.00    +0.000 C 
ATOM     27  C   UNL     1     109.569 126.262 138.163  0.00  0.00    +0.000 C 
ATOM     28  C   UNL     1     110.787 125.887 138.809  0.00  0.00    +0.000 C 
ATOM     29  C   UNL     1     109.968 126.321 137.444  0.00  0.00    +0.000 C 
ATOM     30  C   UNL     1     111.187 125.946 138.089  0.00  0.00    +0.000 C 
BRANCH  29  32
ATOM     31  O   UNL     1     109.912 127.037 136.208  0.00  0.00    +0.000 OA
ATOM     32  C   UNL     1     109.558 126.538 136.762  0.00  0.00    +0.000 C 
ENDBRANCH  29  32
ENDBRANCH  21  30
ENDBRANCH   3  21
TORSDOF 8
ENDMDL
MODEL 4
REMARK VINA RESULT:      -7.8     11.016     12.899
REMARK  Name = 42607699
REMARK  8 active torsions:
REMARK  status: ('A' for Active; 'I' for Inactive)
REMARK    1  A    between atoms: O_2  and  C_15
REMARK    2  A    between atoms: O_2  and  C_17
REMARK    3  A    between atoms: O_10  and  C_31
REMARK    4  A    between atoms: C_14  and  C_16
REMARK    5  A    between atoms: C_18  and  C_20
REMARK    6  A    between atoms: C_20  and  C_22
REMARK    7  A    between atoms: C_22  and  C_24
REMARK    8  A    between atoms: C_24  and  C_26
REMARK                            x       y       z     vdW  Elec       q    Type
REMARK                         _______ _______ _______ _____ _____    ______ ____
ROOT
ATOM      1  O   UNL     1     114.650 126.142 135.656  0.00  0.00    +0.000 OA
ATOM      2  O   UNL     1     114.771 124.446 137.953  0.00  0.00    +0.000 OA
ATOM      3  C   UNL     1     113.519 126.182 137.523  0.00  0.00    +0.000 A 
ATOM      4  C   UNL     1     113.787 126.384 136.768  0.00  0.00    +0.000 A 
ATOM      5  C   UNL     1     113.847 125.536 137.917  0.00  0.00    +0.000 A 
ATOM      6  C   UNL     1     114.383 125.940 136.409  0.00  0.00    +0.000 A 
ATOM      7  C   UNL     1     114.443 125.092 137.558  0.00  0.00    +0.000 A 
ATOM      8  C   UNL     1     114.710 125.294 136.805  0.00  0.00    +0.000 A 
ENDROOT
BRANCH   4  10
ATOM      9  O   UNL     1     112.711 126.968 136.032  0.00  0.00    +0.000 OA
ATOM     10  C   UNL     1     113.459 127.030 136.374  0.00  0.00    +0.000 C 
BRANCH  10  11
ATOM     11  C   UNL     1     113.880 127.738 136.322  0.00  0.00    +0.000 C 
BRANCH  11  12
ATOM     12  C   UNL     1     113.546 128.388 135.939  0.00  0.00    +0.000 C 
BRANCH  12  13
ATOM     13  C   UNL     1     113.994 129.072 135.822  0.00  0.00    +0.000 A 
ATOM     14  C   UNL     1     114.021 129.652 136.408  0.00  0.00    +0.000 A 
ATOM     15  C   UNL     1     114.413 129.175 135.120  0.00  0.00    +0.000 A 
ATOM     16  C   UNL     1     114.468 130.335 136.292  0.00  0.00    +0.000 A 
ATOM     17  C   UNL     1     114.860 129.859 135.003  0.00  0.00    +0.000 A 
ATOM     18  C   UNL     1     114.888 130.439 135.589  0.00  0.00    +0.000 A 
BRANCH  18  19
ATOM     19  O   UNL     1     115.335 131.122 135.472  0.00  0.00    +0.000 OA
ATOM     20  C   UNL     1     115.632 131.298 134.723  0.00  0.00    +0.000 C 
ENDBRANCH  18  19
ENDBRANCH  12  13
ENDBRANCH  11  12
ENDBRANCH  10  11
ENDBRANCH   4  10
BRANCH   3  21
ATOM     21  O   UNL     1     112.924 126.625 137.882  0.00  0.00    +0.000 OA
BRANCH  21  30
ATOM     22  O   UNL     1     113.488 126.961 139.149  0.00  0.00    +0.000 OA
ATOM     23  O   UNL     1     111.458 126.111 140.280  0.00  0.00    +0.000 OA
ATOM     24  O   UNL     1     112.700 126.731 141.171  0.00  0.00    +0.000 OA
ATOM     25  O   UNL     1     111.570 126.059 138.635  0.00  0.00    +0.000 OA
ATOM     26  C   UNL     1     112.135 126.395 139.903  0.00  0.00    +0.000 C 
ATOM     27  C   UNL     1     112.756 126.705 140.349  0.00  0.00    +0.000 C 
ATOM     28  C   UNL     1     112.191 126.368 139.080  0.00  0.00    +0.000 C 
ATOM     29  C   UNL     1     113.433 126.988 139.972  0.00  0.00    +0.000 C 
ATOM     30  C   UNL     1     112.868 126.652 138.704  0.00  0.00    +0.000 C 
BRANCH  29  32
ATOM     31  O   UNL     1     114.351 128.049 140.248  0.00  0.00    +0.000 OA
ATOM     32  C   UNL     1     114.054 127.298 140.418  0.00  0.00    +0.000 C 
ENDBRANCH  29  32
ENDBRANCH  21  30
ENDBRANCH   3  21
TORSDOF 8
ENDMDL
MODEL 5
REMARK VINA RESULT:      -7.7      4.166      5.585
REMARK  Name = 42607699
REMARK  8 active torsions:
REMARK  status: ('A' for Active; 'I' for Inactive)
REMARK    1  A    between atoms: O_2  and  C_15
REMARK    2  A    between atoms: O_2  and  C_17
REMARK    3  A    between atoms: O_10  and  C_31
REMARK    4  A    between atoms: C_14  and  C_16
REMARK    5  A    between atoms: C_18  and  C_20
REMARK    6  A    between atoms: C_20  and  C_22
REMARK    7  A    between atoms: C_22  and  C_24
REMARK    8  A    between atoms: C_24  and  C_26
REMARK                            x       y       z     vdW  Elec       q    Type
REMARK                         _______ _______ _______ _____ _____    ______ ____
ROOT
ATOM      1  O   UNL     1     106.400 127.501 142.287  0.00  0.00    +0.000 OA
ATOM      2  O   UNL     1     105.103 128.021 144.779  0.00  0.00    +0.000 OA
ATOM      3  C   UNL     1     105.897 126.169 143.941  0.00  0.00    +0.000 A 
ATOM      4  C   UNL     1     106.185 126.437 143.216  0.00  0.00    +0.000 A 
ATOM      5  C   UNL     1     105.536 126.698 144.462  0.00  0.00    +0.000 A 
ATOM      6  C   UNL     1     106.112 127.234 143.012  0.00  0.00    +0.000 A 
ATOM      7  C   UNL     1     105.463 127.494 144.258  0.00  0.00    +0.000 A 
ATOM      8  C   UNL     1     105.751 127.761 143.533  0.00  0.00    +0.000 A 
ENDROOT
BRANCH   4  10
ATOM      9  O   UNL     1     107.358 125.772 142.742  0.00  0.00    +0.000 OA
ATOM     10  C   UNL     1     106.545 125.909 142.695  0.00  0.00    +0.000 C 
BRANCH  10  11
ATOM     11  C   UNL     1     106.093 125.517 142.126  0.00  0.00    +0.000 C 
BRANCH  11  12
ATOM     12  C   UNL     1     106.455 124.998 141.598  0.00  0.00    +0.000 C 
BRANCH  12  13
ATOM     13  C   UNL     1     105.998 124.577 141.054  0.00  0.00    +0.000 A 
ATOM     14  C   UNL     1     105.900 124.865 140.287  0.00  0.00    +0.000 A 
ATOM     15  C   UNL     1     105.639 123.869 141.278  0.00  0.00    +0.000 A 
ATOM     16  C   UNL     1     105.443 124.445 139.744  0.00  0.00    +0.000 A 
ATOM     17  C   UNL     1     105.181 123.449 140.734  0.00  0.00    +0.000 A 
ATOM     18  C   UNL     1     105.083 123.737 139.967  0.00  0.00    +0.000 A 
BRANCH  18  19
ATOM     19  O   UNL     1     104.627 123.317 139.425  0.00  0.00    +0.000 OA
ATOM     20  C   UNL     1     103.845 123.540 139.282  0.00  0.00    +0.000 C 
ENDBRANCH  18  19
ENDBRANCH  12  13
ENDBRANCH  11  12
ENDBRANCH  10  11
ENDBRANCH   4  10
BRANCH   3  21
ATOM     21  O   UNL     1     105.970 125.373 144.145  0.00  0.00    +0.000 OA
BRANCH  21  30
ATOM     22  O   UNL     1     106.486 125.429 145.476  0.00  0.00    +0.000 OA
ATOM     23  O   UNL     1     104.701 123.892 146.234  0.00  0.00    +0.000 OA
ATOM     24  O   UNL     1     105.813 124.461 147.312  0.00  0.00    +0.000 OA
ATOM     25  O   UNL     1     104.780 124.348 144.651  0.00  0.00    +0.000 OA
ATOM     26  C   UNL     1     105.296 124.404 145.981  0.00  0.00    +0.000 C 
ATOM     27  C   UNL     1     105.852 124.689 146.520  0.00  0.00    +0.000 C 
ATOM     28  C   UNL     1     105.336 124.633 145.189  0.00  0.00    +0.000 C 
ATOM     29  C   UNL     1     106.447 125.202 146.268  0.00  0.00    +0.000 C 
ATOM     30  C   UNL     1     105.931 125.145 144.937  0.00  0.00    +0.000 C 
BRANCH  29  32
ATOM     31  O   UNL     1     107.809 125.424 146.641  0.00  0.00    +0.000 OA
ATOM     32  C   UNL     1     107.003 125.486 146.807  0.00  0.00    +0.000 C 
ENDBRANCH  29  32
ENDBRANCH  21  30
ENDBRANCH   3  21
TORSDOF 8
ENDMDL
MODEL 6
REMARK VINA RESULT:      -7.7     10.832     12.833
REMARK  Name = 42607699
REMARK  8 active torsions:
REMARK  status: ('A' for Active; 'I' for Inactive)
REMARK    1  A    between atoms: O_2  and  C_15
REMARK    2  A    between atoms: O_2  and  C_17
REMARK    3  A    between atoms: O_10  and  C_31
REMARK    4  A    between atoms: C_14  and  C_16
REMARK    5  A    between atoms: C_18  and  C_20
REMARK    6  A    between atoms: C_20  and  C_22
REMARK    7  A    between atoms: C_22  and  C_24
REMARK    8  A    between atoms: C_24  and  C_26
REMARK                            x       y       z     vdW  Elec       q    Type
REMARK                         _______ _______ _______ _____ _____    ______ ____
ROOT
ATOM      1  O   UNL     1     112.313 128.887 139.046  0.00  0.00    +0.000 OA
ATOM      2  O   UNL     1     112.344 126.301 140.259  0.00  0.00    +0.000 OA
ATOM      3  C   UNL     1     112.120 126.897 138.172  0.00  0.00    +0.000 A 
ATOM      4  C   UNL     1     112.165 127.718 138.239  0.00  0.00    +0.000 A 
ATOM      5  C   UNL     1     112.180 126.425 138.846  0.00  0.00    +0.000 A 
ATOM      6  C   UNL     1     112.269 128.067 138.980  0.00  0.00    +0.000 A 
ATOM      7  C   UNL     1     112.285 126.773 139.586  0.00  0.00    +0.000 A 
ATOM      8  C   UNL     1     112.329 127.594 139.653  0.00  0.00    +0.000 A 
ENDROOT
BRANCH   4  10
ATOM      9  O   UNL     1     111.364 128.364 137.247  0.00  0.00    +0.000 OA
ATOM     10  C   UNL     1     112.105 128.190 137.565  0.00  0.00    +0.000 C 
BRANCH  10  11
ATOM     11  C   UNL     1     112.788 128.488 137.209  0.00  0.00    +0.000 C 
BRANCH  11  12
ATOM     12  C   UNL     1     112.728 128.954 136.531  0.00  0.00    +0.000 C 
BRANCH  12  13
ATOM     13  C   UNL     1     113.411 129.253 136.175  0.00  0.00    +0.000 A 
ATOM     14  C   UNL     1     113.671 130.015 136.355  0.00  0.00    +0.000 A 
ATOM     15  C   UNL     1     113.832 128.788 135.639  0.00  0.00    +0.000 A 
ATOM     16  C   UNL     1     114.352 130.312 135.999  0.00  0.00    +0.000 A 
ATOM     17  C   UNL     1     114.515 129.087 135.283  0.00  0.00    +0.000 A 
ATOM     18  C   UNL     1     114.775 129.849 135.463  0.00  0.00    +0.000 A 
BRANCH  18  19
ATOM     19  O   UNL     1     115.456 130.146 135.107  0.00  0.00    +0.000 OA
ATOM     20  C   UNL     1     115.571 130.962 135.050  0.00  0.00    +0.000 C 
ENDBRANCH  18  19
ENDBRANCH  12  13
ENDBRANCH  11  12
ENDBRANCH  10  11
ENDBRANCH   4  10
BRANCH   3  21
ATOM     21  O   UNL     1     112.016 126.548 137.432  0.00  0.00    +0.000 OA
BRANCH  21  30
ATOM     22  O   UNL     1     113.140 125.670 137.350  0.00  0.00    +0.000 OA
ATOM     23  O   UNL     1     111.641 123.815 136.688  0.00  0.00    +0.000 OA
ATOM     24  O   UNL     1     113.265 123.554 136.827  0.00  0.00    +0.000 OA
ATOM     25  O   UNL     1     111.017 125.311 136.990  0.00  0.00    +0.000 OA
ATOM     26  C   UNL     1     112.141 124.433 136.909  0.00  0.00    +0.000 C 
ATOM     27  C   UNL     1     112.953 124.303 136.979  0.00  0.00    +0.000 C 
ATOM     28  C   UNL     1     111.829 125.182 137.060  0.00  0.00    +0.000 C 
ATOM     29  C   UNL     1     113.453 124.921 137.199  0.00  0.00    +0.000 C 
ATOM     30  C   UNL     1     112.329 125.800 137.281  0.00  0.00    +0.000 C 
BRANCH  29  32
ATOM     31  O   UNL     1     114.798 125.342 136.965  0.00  0.00    +0.000 OA
ATOM     32  C   UNL     1     114.264 124.791 137.269  0.00  0.00    +0.000 C 
ENDBRANCH  29  32
ENDBRANCH  21  30
ENDBRANCH   3  21
TORSDOF 8
ENDMDL
MODEL 7
REMARK VINA RESULT:      -7.7     10.253     12.071
REMARK  Name = 42607699
REMARK  8 active torsions:
REMARK  status: ('A' for Active; 'I' for Inactive)
REMARK    1  A    between atoms: O_2  and  C_15
REMARK    2  A    between atoms: O_2  and  C_17
REMARK    3  A    between atoms: O_10  and  C_31
REMARK    4  A    between atoms: C_14  and  C_16
REMARK    5  A    between atoms: C_18  and  C_20
REMARK    6  A    between atoms: C_20  and  C_22
REMARK    7  A    between atoms: C_22  and  C_24
REMARK    8  A    between atoms: C_24  and  C_26
REMARK                            x       y       z     vdW  Elec       q    Type
REMARK                         _______ _______ _______ _____ _____    ______ ____
ROOT
ATOM      1  O   UNL     1     111.286 125.909 135.264  0.00  0.00    +0.000 OA
ATOM      2  O   UNL     1     111.565 123.858 137.233  0.00  0.00    +0.000 OA
ATOM      3  C   UNL     1     111.610 126.032 137.419  0.00  0.00    +0.000 A 
ATOM      4  C   UNL     1     111.494 126.257 136.633  0.00  0.00    +0.000 A 
ATOM      5  C   UNL     1     111.633 125.231 137.618  0.00  0.00    +0.000 A 
ATOM      6  C   UNL     1     111.402 125.683 136.048  0.00  0.00    +0.000 A 
ATOM      7  C   UNL     1     111.541 124.657 137.033  0.00  0.00    +0.000 A 
ATOM      8  C   UNL     1     111.425 124.883 136.249  0.00  0.00    +0.000 A 
ENDROOT
BRANCH   4  10
ATOM      9  O   UNL     1     110.758 127.472 136.473  0.00  0.00    +0.000 OA
ATOM     10  C   UNL     1     111.470 127.057 136.434  0.00  0.00    +0.000 C 
BRANCH  10  11
ATOM     11  C   UNL     1     112.160 127.443 136.195  0.00  0.00    +0.000 C 
BRANCH  11  12
ATOM     12  C   UNL     1     112.145 128.252 136.035  0.00  0.00    +0.000 C 
BRANCH  12  13
ATOM     13  C   UNL     1     112.826 128.631 135.761  0.00  0.00    +0.000 A 
ATOM     14  C   UNL     1     113.482 128.708 136.255  0.00  0.00    +0.000 A 
ATOM     15  C   UNL     1     112.849 128.932 134.993  0.00  0.00    +0.000 A 
ATOM     16  C   UNL     1     114.162 129.086 135.981  0.00  0.00    +0.000 A 
ATOM     17  C   UNL     1     113.530 129.310 134.719  0.00  0.00    +0.000 A 
ATOM     18  C   UNL     1     114.186 129.387 135.213  0.00  0.00    +0.000 A 
BRANCH  18  19
ATOM     19  O   UNL     1     114.866 129.765 134.940  0.00  0.00    +0.000 OA
ATOM     20  C   UNL     1     115.019 130.547 135.155  0.00  0.00    +0.000 C 
ENDBRANCH  18  19
ENDBRANCH  12  13
ENDBRANCH  11  12
ENDBRANCH  10  11
ENDBRANCH   4  10
BRANCH   3  21
ATOM     21  O   UNL     1     111.702 126.606 138.004  0.00  0.00    +0.000 OA
BRANCH  21  30
ATOM     22  O   UNL     1     110.609 126.317 138.876  0.00  0.00    +0.000 OA
ATOM     23  O   UNL     1     112.144 126.374 140.817  0.00  0.00    +0.000 OA
ATOM     24  O   UNL     1     110.539 126.065 141.044  0.00  0.00    +0.000 OA
ATOM     25  O   UNL     1     112.725 126.644 139.298  0.00  0.00    +0.000 OA
ATOM     26  C   UNL     1     111.632 126.355 140.170  0.00  0.00    +0.000 C 
ATOM     27  C   UNL     1     110.829 126.200 140.283  0.00  0.00    +0.000 C 
ATOM     28  C   UNL     1     111.923 126.490 139.410  0.00  0.00    +0.000 C 
ATOM     29  C   UNL     1     110.318 126.181 139.636  0.00  0.00    +0.000 C 
ATOM     30  C   UNL     1     111.411 126.471 138.763  0.00  0.00    +0.000 C 
BRANCH  29  32
ATOM     31  O   UNL     1     108.949 126.455 139.329  0.00  0.00    +0.000 OA
ATOM     32  C   UNL     1     109.516 126.027 139.750  0.00  0.00    +0.000 C 
ENDBRANCH  29  32
ENDBRANCH  21  30
ENDBRANCH   3  21
TORSDOF 8
ENDMDL
MODEL 8
REMARK VINA RESULT:      -7.7     10.531     12.635
REMARK  Name = 42607699
REMARK  8 active torsions:
REMARK  status: ('A' for Active; 'I' for Inactive)
REMARK    1  A    between atoms: O_2  and  C_15
REMARK    2  A    between atoms: O_2  and  C_17
REMARK    3  A    between atoms: O_10  and  C_31
REMARK    4  A    between atoms: C_14  and  C_16
REMARK    5  A    between atoms: C_18  and  C_20
REMARK    6  A    between atoms: C_20  and  C_22
REMARK    7  A    between atoms: C_22  and  C_24
REMARK    8  A    between atoms: C_24  and  C_26
REMARK                            x       y       z     vdW  Elec       q    Type
REMARK                         _______ _______ _______ _____ _____    ______ ____
ROOT
ATOM      1  O   UNL     1     108.926 126.503 137.937  0.00  0.00    +0.000 OA
ATOM      2  O   UNL     1     111.192 125.872 139.558  0.00  0.00    +0.000 OA
ATOM      3  C   UNL     1     111.044 126.345 137.433  0.00  0.00    +0.000 A 
ATOM      4  C   UNL     1     110.230 126.464 137.357  0.00  0.00    +0.000 A 
ATOM      5  C   UNL     1     111.364 126.148 138.168  0.00  0.00    +0.000 A 
ATOM      6  C   UNL     1     109.738 126.385 138.014  0.00  0.00    +0.000 A 
ATOM      7  C   UNL     1     110.872 126.069 138.825  0.00  0.00    +0.000 A 
ATOM      8  C   UNL     1     110.060 126.187 138.748  0.00  0.00    +0.000 A 
ENDROOT
BRANCH   4  10
ATOM      9  O   UNL     1     109.676 126.067 136.101  0.00  0.00    +0.000 OA
ATOM     10  C   UNL     1     109.910 126.661 136.623  0.00  0.00    +0.000 C 
BRANCH  10  11
ATOM     11  C   UNL     1     109.825 127.454 136.410  0.00  0.00    +0.000 C 
BRANCH  11  12
ATOM     12  C   UNL     1     109.472 127.652 135.691  0.00  0.00    +0.000 C 
BRANCH  12  13
ATOM     13  C   UNL     1     109.470 128.438 135.436  0.00  0.00    +0.000 A 
ATOM     14  C   UNL     1     110.013 128.688 134.867  0.00  0.00    +0.000 A 
ATOM     15  C   UNL     1     108.924 128.971 135.749  0.00  0.00    +0.000 A 
ATOM     16  C   UNL     1     110.010 129.472 134.613  0.00  0.00    +0.000 A 
ATOM     17  C   UNL     1     108.922 129.756 135.494  0.00  0.00    +0.000 A 
ATOM     18  C   UNL     1     109.465 130.007 134.925  0.00  0.00    +0.000 A 
BRANCH  18  19
ATOM     19  O   UNL     1     109.462 130.791 134.671  0.00  0.00    +0.000 OA
ATOM     20  C   UNL     1     108.897 131.318 134.960  0.00  0.00    +0.000 C 
ENDBRANCH  18  19
ENDBRANCH  12  13
ENDBRANCH  11  12
ENDBRANCH  10  11
ENDBRANCH   4  10
BRANCH   3  21
ATOM     21  O   UNL     1     111.536 126.424 136.776  0.00  0.00    +0.000 OA
BRANCH  21  30
ATOM     22  O   UNL     1     112.143 125.132 136.736  0.00  0.00    +0.000 OA
ATOM     23  O   UNL     1     114.363 126.185 136.438  0.00  0.00    +0.000 OA
ATOM     24  O   UNL     1     114.231 124.541 136.497  0.00  0.00    +0.000 OA
ATOM     25  O   UNL     1     113.016 127.126 136.577  0.00  0.00    +0.000 OA
ATOM     26  C   UNL     1     113.623 125.834 136.537  0.00  0.00    +0.000 C 
ATOM     27  C   UNL     1     113.557 125.011 136.567  0.00  0.00    +0.000 C 
ATOM     28  C   UNL     1     112.949 126.304 136.607  0.00  0.00    +0.000 C 
ATOM     29  C   UNL     1     112.817 124.661 136.666  0.00  0.00    +0.000 C 
ATOM     30  C   UNL     1     112.209 125.953 136.706  0.00  0.00    +0.000 C 
BRANCH  29  32
ATOM     31  O   UNL     1     112.077 123.468 136.398  0.00  0.00    +0.000 OA
ATOM     32  C   UNL     1     112.751 123.839 136.696  0.00  0.00    +0.000 C 
ENDBRANCH  29  32
ENDBRANCH  21  30
ENDBRANCH   3  21
TORSDOF 8
ENDMDL
MODEL 9
REMARK VINA RESULT:      -7.6      1.442      3.047
REMARK  Name = 42607699
REMARK  8 active torsions:
REMARK  status: ('A' for Active; 'I' for Inactive)
REMARK    1  A    between atoms: O_2  and  C_15
REMARK    2  A    between atoms: O_2  and  C_17
REMARK    3  A    between atoms: O_10  and  C_31
REMARK    4  A    between atoms: C_14  and  C_16
REMARK    5  A    between atoms: C_18  and  C_20
REMARK    6  A    between atoms: C_20  and  C_22
REMARK    7  A    between atoms: C_22  and  C_24
REMARK    8  A    between atoms: C_24  and  C_26
REMARK                            x       y       z     vdW  Elec       q    Type
REMARK                         _______ _______ _______ _____ _____    ______ ____
ROOT
ATOM      1  O   UNL     1     105.313 126.919 144.726  0.00  0.00    +0.000 OA
ATOM      2  O   UNL     1     106.005 124.166 145.050  0.00  0.00    +0.000 OA
ATOM      3  C   UNL     1     106.519 125.918 146.245  0.00  0.00    +0.000 A 
ATOM      4  C   UNL     1     106.131 126.513 145.825  0.00  0.00    +0.000 A 
ATOM      5  C   UNL     1     106.477 125.136 145.987  0.00  0.00    +0.000 A 
ATOM      6  C   UNL     1     105.701 126.325 145.146  0.00  0.00    +0.000 A 
ATOM      7  C   UNL     1     106.047 124.948 145.308  0.00  0.00    +0.000 A 
ATOM      8  C   UNL     1     105.659 125.542 144.888  0.00  0.00    +0.000 A 
ENDROOT
BRANCH   4  10
ATOM      9  O   UNL     1     105.638 127.573 146.646  0.00  0.00    +0.000 OA
ATOM     10  C   UNL     1     106.173 127.295 146.084  0.00  0.00    +0.000 C 
BRANCH  10  11
ATOM     11  C   UNL     1     106.753 127.799 145.780  0.00  0.00    +0.000 C 
BRANCH  11  12
ATOM     12  C   UNL     1     106.861 128.547 146.109  0.00  0.00    +0.000 C 
BRANCH  12  13
ATOM     13  C   UNL     1     107.390 129.077 145.762  0.00  0.00    +0.000 A 
ATOM     14  C   UNL     1     107.106 129.730 145.344  0.00  0.00    +0.000 A 
ATOM     15  C   UNL     1     108.203 128.954 145.832  0.00  0.00    +0.000 A 
ATOM     16  C   UNL     1     107.634 130.259 144.997  0.00  0.00    +0.000 A 
ATOM     17  C   UNL     1     108.731 129.485 145.485  0.00  0.00    +0.000 A 
ATOM     18  C   UNL     1     108.447 130.137 145.067  0.00  0.00    +0.000 A 
BRANCH  18  19
ATOM     19  O   UNL     1     108.975 130.666 144.720  0.00  0.00    +0.000 OA
ATOM     20  C   UNL     1     109.534 131.057 145.185  0.00  0.00    +0.000 C 
ENDBRANCH  18  19
ENDBRANCH  12  13
ENDBRANCH  11  12
ENDBRANCH  10  11
ENDBRANCH   4  10
BRANCH   3  21
ATOM     21  O   UNL     1     106.949 126.105 146.924  0.00  0.00    +0.000 OA
BRANCH  21  30
ATOM     22  O   UNL     1     106.269 125.339 147.919  0.00  0.00    +0.000 OA
ATOM     23  O   UNL     1     108.440 124.472 148.734  0.00  0.00    +0.000 OA
ATOM     24  O   UNL     1     107.036 123.994 149.458  0.00  0.00    +0.000 OA
ATOM     25  O   UNL     1     108.396 125.528 147.468  0.00  0.00    +0.000 OA
ATOM     26  C   UNL     1     107.716 124.761 148.462  0.00  0.00    +0.000 C 
ATOM     27  C   UNL     1     107.014 124.522 148.824  0.00  0.00    +0.000 C 
ATOM     28  C   UNL     1     107.694 125.289 147.829  0.00  0.00    +0.000 C 
ATOM     29  C   UNL     1     106.290 124.811 148.553  0.00  0.00    +0.000 C 
ATOM     30  C   UNL     1     106.970 125.578 147.557  0.00  0.00    +0.000 C 
BRANCH  29  32
ATOM     31  O   UNL     1     104.966 125.105 149.001  0.00  0.00    +0.000 OA
ATOM     32  C   UNL     1     105.589 124.572 148.914  0.00  0.00    +0.000 C 
ENDBRANCH  29  32
ENDBRANCH  21  30
ENDBRANCH   3  21
TORSDOF 8
ENDMDL
MODEL 10
REMARK VINA RESULT:      -7.6     10.853     13.156
REMARK  Name = 42607699
REMARK  8 active torsions:
REMARK  status: ('A' for Active; 'I' for Inactive)
REMARK    1  A    between atoms: O_2  and  C_15
REMARK    2  A    between atoms: O_2  and  C_17
REMARK    3  A    between atoms: O_10  and  C_31
REMARK    4  A    between atoms: C_14  and  C_16
REMARK    5  A    between atoms: C_18  and  C_20
REMARK    6  A    between atoms: C_20  and  C_22
REMARK    7  A    between atoms: C_22  and  C_24
REMARK    8  A    between atoms: C_24  and  C_26
REMARK                            x       y       z     vdW  Elec       q    Type
REMARK                         _______ _______ _______ _____ _____    ______ ____
ROOT
ATOM      1  O   UNL     1     108.505 128.880 135.324  0.00  0.00    +0.000 OA
ATOM      2  O   UNL     1     108.478 130.876 137.368  0.00  0.00    +0.000 OA
ATOM      3  C   UNL     1     110.140 129.850 136.396  0.00  0.00    +0.000 A 
ATOM      4  C   UNL     1     109.734 129.357 135.872  0.00  0.00    +0.000 A 
ATOM      5  C   UNL     1     109.721 130.356 136.895  0.00  0.00    +0.000 A 
ATOM      6  C   UNL     1     108.910 129.372 135.847  0.00  0.00    +0.000 A 
ATOM      7  C   UNL     1     108.897 130.370 136.870  0.00  0.00    +0.000 A 
ATOM      8  C   UNL     1     108.491 129.878 136.347  0.00  0.00    +0.000 A 
ENDROOT
BRANCH   4  10
ATOM      9  O   UNL     1     110.467 129.135 134.666  0.00  0.00    +0.000 OA
ATOM     10  C   UNL     1     110.154 128.851 135.374  0.00  0.00    +0.000 C 
BRANCH  10  11
ATOM     11  C   UNL     1     110.260 128.060 135.584  0.00  0.00    +0.000 C 
BRANCH  11  12
ATOM     12  C   UNL     1     110.647 127.545 135.069  0.00  0.00    +0.000 C 
BRANCH  12  13
ATOM     13  C   UNL     1     110.802 126.768 135.302  0.00  0.00    +0.000 A 
ATOM     14  C   UNL     1     111.462 126.601 135.768  0.00  0.00    +0.000 A 
ATOM     15  C   UNL     1     110.296 126.160 135.069  0.00  0.00    +0.000 A 
ATOM     16  C   UNL     1     111.616 125.825 136.000  0.00  0.00    +0.000 A 
ATOM     17  C   UNL     1     110.451 125.383 135.302  0.00  0.00    +0.000 A 
ATOM     18  C   UNL     1     111.111 125.216 135.767  0.00  0.00    +0.000 A 
BRANCH  18  19
ATOM     19  O   UNL     1     111.265 124.440 136.000  0.00  0.00    +0.000 OA
ATOM     20  C   UNL     1     111.652 124.291 136.713  0.00  0.00    +0.000 C 
ENDBRANCH  18  19
ENDBRANCH  12  13
ENDBRANCH  11  12
ENDBRANCH  10  11
ENDBRANCH   4  10
BRANCH   3  21
ATOM     21  O   UNL     1     110.965 129.835 136.421  0.00  0.00    +0.000 OA
BRANCH  21  30
ATOM     22  O   UNL     1     111.229 129.551 137.795  0.00  0.00    +0.000 OA
ATOM     23  O   UNL     1     112.805 131.457 137.887  0.00  0.00    +0.000 OA
ATOM     24  O   UNL     1     112.543 130.538 139.232  0.00  0.00    +0.000 OA
ATOM     25  O   UNL     1     112.016 131.106 136.482  0.00  0.00    +0.000 OA
ATOM     26  C   UNL     1     112.279 130.822 137.856  0.00  0.00    +0.000 C 
ATOM     27  C   UNL     1     112.148 130.362 138.529  0.00  0.00    +0.000 C 
ATOM     28  C   UNL     1     111.885 130.646 137.154  0.00  0.00    +0.000 C 
ATOM     29  C   UNL     1     111.623 129.726 138.499  0.00  0.00    +0.000 C 
ATOM     30  C   UNL     1     111.359 130.011 137.123  0.00  0.00    +0.000 C 
BRANCH  29  32
ATOM     31  O   UNL     1     111.413 128.449 139.103  0.00  0.00    +0.000 OA
ATOM     32  C   UNL     1     111.492 129.267 139.171  0.00  0.00    +0.000 C 
ENDBRANCH  29  32
ENDBRANCH  21  30
ENDBRANCH   3  21
TORSDOF 8
ENDMDL
