MODEL 1
REMARK VINA RESULT:     -11.0      0.000      0.000
REMARK  Name = 44258007
REMARK  11 active torsions:
REMARK  status: ('A' for Active; 'I' for Inactive)
REMARK    1  A    between atoms: O_3  and  C_26
REMARK    2  A    between atoms: O_3  and  C_30
REMARK    3  A    between atoms: O_6  and  C_31
REMARK    4  A    between atoms: O_6  and  C_33
REMARK    5  A    between atoms: O_11  and  C_32
REMARK    6  A    between atoms: O_11  and  C_36
REMARK    7  A    between atoms: C_21  and  C_30
REMARK    8  A    between atoms: C_29  and  C_32
REMARK    9  A    between atoms: C_34  and  C_38
REMARK   10  A    between atoms: C_36  and  C_41
REMARK   11  A    between atoms: C_48  and  C_51
REMARK                            x       y       z     vdW  Elec       q    Type
REMARK                         _______ _______ _______ _____ _____    ______ ____
ROOT
ATOM      1  O   UNL     1     110.366 128.912 136.972  0.00  0.00    +0.000 OA
ATOM      2  O   UNL     1     108.884 127.419 136.392  0.00  0.00    +0.000 OA
ATOM      3  O   UNL     1     108.147 128.803 135.882  0.00  0.00    +0.000 OA
ATOM      4  O   UNL     1     108.889 130.261 136.099  0.00  0.00    +0.000 OA
ATOM      5  C   UNL     1     109.995 128.184 136.864  0.00  0.00    +0.000 C 
ATOM      6  C   UNL     1     109.255 128.147 136.500  0.00  0.00    +0.000 C 
ATOM      7  C   UNL     1     108.887 128.840 136.245  0.00  0.00    +0.000 C 
ATOM      8  C   UNL     1     109.258 129.569 136.354  0.00  0.00    +0.000 C 
ATOM      9  C   UNL     1     109.997 129.605 136.717  0.00  0.00    +0.000 C 
ENDROOT
BRANCH   9  10
ATOM     10  O   UNL     1     110.368 130.334 136.826  0.00  0.00    +0.000 OA
BRANCH  10  15
ATOM     11  O   UNL     1     112.359 130.709 137.638  0.00  0.00    +0.000 OA
ATOM     12  O   UNL     1     111.316 129.819 135.577  0.00  0.00    +0.000 OA
ATOM     13  O   UNL     1     112.613 129.589 134.987  0.00  0.00    +0.000 OA
ATOM     14  O   UNL     1     115.009 130.271 136.510  0.00  0.00    +0.000 OA
ATOM     15  C   UNL     1     111.191 130.373 136.889  0.00  0.00    +0.000 A 
ATOM     16  C   UNL     1     111.538 130.669 137.575  0.00  0.00    +0.000 A 
ATOM     17  C   UNL     1     111.664 130.116 136.264  0.00  0.00    +0.000 A 
ATOM     18  C   UNL     1     112.486 130.155 136.327  0.00  0.00    +0.000 A 
ATOM     19  C   UNL     1     112.834 130.451 137.014  0.00  0.00    +0.000 A 
ATOM     20  C   UNL     1     112.969 129.884 135.670  0.00  0.00    +0.000 A 
ATOM     21  C   UNL     1     113.688 130.497 137.092  0.00  0.00    +0.000 A 
ATOM     22  C   UNL     1     113.826 129.922 135.729  0.00  0.00    +0.000 A 
ATOM     23  C   UNL     1     114.188 130.231 136.445  0.00  0.00    +0.000 A 
BRANCH  16  26
ATOM     24  O   UNL     1     109.918 132.692 138.781  0.00  0.00    +0.000 OA
ATOM     25  O   UNL     1     109.639 131.700 140.070  0.00  0.00    +0.000 OA
ATOM     26  C   UNL     1     111.063 130.927 138.199  0.00  0.00    +0.000 A 
ATOM     27  C   UNL     1     110.728 131.680 138.179  0.00  0.00    +0.000 A 
ATOM     28  C   UNL     1     110.924 130.431 138.843  0.00  0.00    +0.000 A 
ATOM     29  C   UNL     1     110.253 131.938 138.802  0.00  0.00    +0.000 A 
ATOM     30  C   UNL     1     110.449 130.689 139.467  0.00  0.00    +0.000 A 
ATOM     31  C   UNL     1     110.114 131.442 139.446  0.00  0.00    +0.000 A 
ENDBRANCH  16  26
ENDBRANCH  10  15
ENDBRANCH   9  10
BRANCH   5  32
ATOM     32  C   UNL     1     110.363 127.491 137.119  0.00  0.00    +0.000 C 
BRANCH  32  33
ATOM     33  O   UNL     1     110.961 127.149 136.664  0.00  0.00    +0.000 OA
BRANCH  33  40
ATOM     34  O   UNL     1     111.838 126.890 137.762  0.00  0.00    +0.000 OA
ATOM     35  O   UNL     1     111.503 125.786 135.909  0.00  0.00    +0.000 OA
ATOM     36  O   UNL     1     112.651 124.845 136.630  0.00  0.00    +0.000 OA
ATOM     37  O   UNL     1     113.257 125.268 138.105  0.00  0.00    +0.000 OA
ATOM     38  C   UNL     1     111.806 125.998 136.648  0.00  0.00    +0.000 C 
ATOM     39  C   UNL     1     112.380 125.527 137.007  0.00  0.00    +0.000 C 
ATOM     40  C   UNL     1     111.535 126.679 137.025  0.00  0.00    +0.000 C 
ATOM     41  C   UNL     1     112.683 125.738 137.745  0.00  0.00    +0.000 C 
ATOM     42  C   UNL     1     112.412 126.420 138.123  0.00  0.00    +0.000 C 
BRANCH  42  43
ATOM     43  C   UNL     1     112.715 126.631 138.860  0.00  0.00    +0.000 C 
BRANCH  43  44
ATOM     44  O   UNL     1     112.819 127.427 139.052  0.00  0.00    +0.000 OA
BRANCH  44  46
ATOM     45  O   UNL     1     113.051 127.122 140.428  0.00  0.00    +0.000 OA
ATOM     46  C   UNL     1     113.124 127.638 139.788  0.00  0.00    +0.000 C 
BRANCH  46  47
ATOM     47  C   UNL     1     113.503 128.364 139.886  0.00  0.00    +0.000 C 
ATOM     48  C   UNL     1     113.567 128.699 140.637  0.00  0.00    +0.000 C 
BRANCH  48  51
ATOM     49  O   UNL     1     113.593 131.350 141.702  0.00  0.00    +0.000 OA
ATOM     50  O   UNL     1     115.079 131.606 141.030  0.00  0.00    +0.000 OA
ATOM     51  C   UNL     1     113.946 129.425 140.735  0.00  0.00    +0.000 A 
ATOM     52  C   UNL     1     113.581 130.024 141.169  0.00  0.00    +0.000 A 
ATOM     53  C   UNL     1     114.688 129.553 140.399  0.00  0.00    +0.000 A 
ATOM     54  C   UNL     1     113.958 130.751 141.268  0.00  0.00    +0.000 A 
ATOM     55  C   UNL     1     115.065 130.279 140.498  0.00  0.00    +0.000 A 
ATOM     56  C   UNL     1     114.701 130.878 140.932  0.00  0.00    +0.000 A 
ENDBRANCH  48  51
ENDBRANCH  46  47
ENDBRANCH  44  46
ENDBRANCH  43  44
ENDBRANCH  42  43
ENDBRANCH  33  40
ENDBRANCH  32  33
ENDBRANCH   5  32
TORSDOF 11
ENDMDL
MODEL 2
REMARK VINA RESULT:     -10.9      1.915      4.318
REMARK  Name = 44258007
REMARK  11 active torsions:
REMARK  status: ('A' for Active; 'I' for Inactive)
REMARK    1  A    between atoms: O_3  and  C_26
REMARK    2  A    between atoms: O_3  and  C_30
REMARK    3  A    between atoms: O_6  and  C_31
REMARK    4  A    between atoms: O_6  and  C_33
REMARK    5  A    between atoms: O_11  and  C_32
REMARK    6  A    between atoms: O_11  and  C_36
REMARK    7  A    between atoms: C_21  and  C_30
REMARK    8  A    between atoms: C_29  and  C_32
REMARK    9  A    between atoms: C_34  and  C_38
REMARK   10  A    between atoms: C_36  and  C_41
REMARK   11  A    between atoms: C_48  and  C_51
REMARK                            x       y       z     vdW  Elec       q    Type
REMARK                         _______ _______ _______ _____ _____    ______ ____
ROOT
ATOM      1  O   UNL     1     109.876 129.503 138.429  0.00  0.00    +0.000 OA
ATOM      2  O   UNL     1     108.537 130.403 139.900  0.00  0.00    +0.000 OA
ATOM      3  O   UNL     1     108.321 131.419 138.619  0.00  0.00    +0.000 OA
ATOM      4  O   UNL     1     109.142 131.159 137.211  0.00  0.00    +0.000 OA
ATOM      5  C   UNL     1     109.466 129.633 139.133  0.00  0.00    +0.000 C 
ATOM      6  C   UNL     1     108.947 130.273 139.196  0.00  0.00    +0.000 C 
ATOM      7  C   UNL     1     108.840 130.781 138.555  0.00  0.00    +0.000 C 
ATOM      8  C   UNL     1     109.250 130.650 137.851  0.00  0.00    +0.000 C 
ATOM      9  C   UNL     1     109.767 130.012 137.788  0.00  0.00    +0.000 C 
ENDROOT
BRANCH   9  10
ATOM     10  O   UNL     1     110.178 129.882 137.084  0.00  0.00    +0.000 OA
BRANCH  10  15
ATOM     11  O   UNL     1     111.280 128.096 136.484  0.00  0.00    +0.000 OA
ATOM     12  O   UNL     1     108.938 128.830 136.802  0.00  0.00    +0.000 OA
ATOM     13  O   UNL     1     108.448 127.529 136.414  0.00  0.00    +0.000 OA
ATOM     14  O   UNL     1     110.364 125.447 135.690  0.00  0.00    +0.000 OA
ATOM     15  C   UNL     1     110.339 129.111 136.837  0.00  0.00    +0.000 A 
ATOM     16  C   UNL     1     111.120 128.866 136.731  0.00  0.00    +0.000 A 
ATOM     17  C   UNL     1     109.719 128.585 136.696  0.00  0.00    +0.000 A 
ATOM     18  C   UNL     1     109.880 127.814 136.449  0.00  0.00    +0.000 A 
ATOM     19  C   UNL     1     110.661 127.570 136.343  0.00  0.00    +0.000 A 
ATOM     20  C   UNL     1     109.226 127.276 136.305  0.00  0.00    +0.000 A 
ATOM     21  C   UNL     1     110.842 126.770 136.086  0.00  0.00    +0.000 A 
ATOM     22  C   UNL     1     109.387 126.472 136.048  0.00  0.00    +0.000 A 
ATOM     23  C   UNL     1     110.200 126.217 135.937  0.00  0.00    +0.000 A 
BRANCH  16  26
ATOM     24  O   UNL     1     113.263 129.776 138.387  0.00  0.00    +0.000 OA
ATOM     25  O   UNL     1     113.597 130.970 137.299  0.00  0.00    +0.000 OA
ATOM     26  C   UNL     1     111.739 129.393 136.873  0.00  0.00    +0.000 A 
ATOM     27  C   UNL     1     112.192 129.322 137.559  0.00  0.00    +0.000 A 
ATOM     28  C   UNL     1     111.906 129.989 136.329  0.00  0.00    +0.000 A 
ATOM     29  C   UNL     1     112.811 129.847 137.701  0.00  0.00    +0.000 A 
ATOM     30  C   UNL     1     112.525 130.515 136.470  0.00  0.00    +0.000 A 
ATOM     31  C   UNL     1     112.977 130.444 137.157  0.00  0.00    +0.000 A 
ENDBRANCH  16  26
ENDBRANCH  10  15
ENDBRANCH   9  10
BRANCH   5  32
ATOM     32  C   UNL     1     109.574 129.125 139.774  0.00  0.00    +0.000 C 
BRANCH  32  33
ATOM     33  O   UNL     1     109.210 128.385 139.779  0.00  0.00    +0.000 OA
BRANCH  33  40
ATOM     34  O   UNL     1     110.317 127.551 140.129  0.00  0.00    +0.000 OA
ATOM     35  O   UNL     1     108.271 127.602 140.888  0.00  0.00    +0.000 OA
ATOM     36  O   UNL     1     108.908 126.378 141.791  0.00  0.00    +0.000 OA
ATOM     37  O   UNL     1     110.485 125.936 141.587  0.00  0.00    +0.000 OA
ATOM     38  C   UNL     1     109.060 127.381 140.785  0.00  0.00    +0.000 C 
ATOM     39  C   UNL     1     109.378 126.769 141.237  0.00  0.00    +0.000 C 
ATOM     40  C   UNL     1     109.529 127.772 140.231  0.00  0.00    +0.000 C 
ATOM     41  C   UNL     1     110.167 126.548 141.135  0.00  0.00    +0.000 C 
ATOM     42  C   UNL     1     110.636 126.939 140.580  0.00  0.00    +0.000 C 
BRANCH  42  43
ATOM     43  C   UNL     1     111.424 126.718 140.478  0.00  0.00    +0.000 C 
BRANCH  43  44
ATOM     44  O   UNL     1     111.790 126.818 139.745  0.00  0.00    +0.000 OA
BRANCH  44  46
ATOM     45  O   UNL     1     113.127 126.648 140.217  0.00  0.00    +0.000 OA
ATOM     46  C   UNL     1     112.559 126.546 139.627  0.00  0.00    +0.000 C 
BRANCH  46  47
ATOM     47  C   UNL     1     112.761 126.173 138.920  0.00  0.00    +0.000 C 
ATOM     48  C   UNL     1     113.546 126.164 138.667  0.00  0.00    +0.000 C 
BRANCH  48  51
ATOM     49  O   UNL     1     113.524 123.843 137.000  0.00  0.00    +0.000 OA
ATOM     50  O   UNL     1     114.355 124.669 135.839  0.00  0.00    +0.000 OA
ATOM     51  C   UNL     1     113.748 125.791 137.960  0.00  0.00    +0.000 A 
ATOM     52  C   UNL     1     113.535 125.004 137.833  0.00  0.00    +0.000 A 
ATOM     53  C   UNL     1     114.164 126.204 137.379  0.00  0.00    +0.000 A 
ATOM     54  C   UNL     1     113.737 124.630 137.127  0.00  0.00    +0.000 A 
ATOM     55  C   UNL     1     114.366 125.830 136.672  0.00  0.00    +0.000 A 
ATOM     56  C   UNL     1     114.152 125.043 136.546  0.00  0.00    +0.000 A 
ENDBRANCH  48  51
ENDBRANCH  46  47
ENDBRANCH  44  46
ENDBRANCH  43  44
ENDBRANCH  42  43
ENDBRANCH  33  40
ENDBRANCH  32  33
ENDBRANCH   5  32
TORSDOF 11
ENDMDL
MODEL 3
REMARK VINA RESULT:     -10.9      1.531      5.682
REMARK  Name = 44258007
REMARK  11 active torsions:
REMARK  status: ('A' for Active; 'I' for Inactive)
REMARK    1  A    between atoms: O_3  and  C_26
REMARK    2  A    between atoms: O_3  and  C_30
REMARK    3  A    between atoms: O_6  and  C_31
REMARK    4  A    between atoms: O_6  and  C_33
REMARK    5  A    between atoms: O_11  and  C_32
REMARK    6  A    between atoms: O_11  and  C_36
REMARK    7  A    between atoms: C_21  and  C_30
REMARK    8  A    between atoms: C_29  and  C_32
REMARK    9  A    between atoms: C_34  and  C_38
REMARK   10  A    between atoms: C_36  and  C_41
REMARK   11  A    between atoms: C_48  and  C_51
REMARK                            x       y       z     vdW  Elec       q    Type
REMARK                         _______ _______ _______ _____ _____    ______ ____
ROOT
ATOM      1  O   UNL     1     113.265 128.958 136.852  0.00  0.00    +0.000 OA
ATOM      2  O   UNL     1     114.443 130.796 136.832  0.00  0.00    +0.000 OA
ATOM      3  O   UNL     1     114.962 130.077 135.442  0.00  0.00    +0.000 OA
ATOM      4  O   UNL     1     114.351 128.613 134.991  0.00  0.00    +0.000 OA
ATOM      5  C   UNL     1     113.570 129.691 137.078  0.00  0.00    +0.000 C 
ATOM      6  C   UNL     1     114.137 130.064 136.607  0.00  0.00    +0.000 C 
ATOM      7  C   UNL     1     114.397 129.704 135.912  0.00  0.00    +0.000 C 
ATOM      8  C   UNL     1     114.091 128.972 135.686  0.00  0.00    +0.000 C 
ATOM      9  C   UNL     1     113.525 128.599 136.157  0.00  0.00    +0.000 C 
ENDROOT
BRANCH   9  10
ATOM     10  O   UNL     1     113.219 127.867 135.931  0.00  0.00    +0.000 OA
BRANCH  10  15
ATOM     11  O   UNL     1     111.438 126.851 136.678  0.00  0.00    +0.000 OA
ATOM     12  O   UNL     1     112.029 128.827 135.311  0.00  0.00    +0.000 OA
ATOM     13  O   UNL     1     110.635 129.154 135.129  0.00  0.00    +0.000 OA
ATOM     14  O   UNL     1     108.605 127.449 136.354  0.00  0.00    +0.000 OA
ATOM     15  C   UNL     1     112.427 127.688 136.077  0.00  0.00    +0.000 A 
ATOM     16  C   UNL     1     112.229 127.029 136.533  0.00  0.00    +0.000 A 
ATOM     17  C   UNL     1     111.832 128.168 135.767  0.00  0.00    +0.000 A 
ATOM     18  C   UNL     1     111.039 127.989 135.913  0.00  0.00    +0.000 A 
ATOM     19  C   UNL     1     110.842 127.331 136.368  0.00  0.00    +0.000 A 
ATOM     20  C   UNL     1     110.429 128.497 135.584  0.00  0.00    +0.000 A 
ATOM     21  C   UNL     1     110.021 127.134 136.527  0.00  0.00    +0.000 A 
ATOM     22  C   UNL     1     109.602 128.316 135.732  0.00  0.00    +0.000 A 
ATOM     23  C   UNL     1     109.397 127.630 136.207  0.00  0.00    +0.000 A 
BRANCH  16  26
ATOM     24  O   UNL     1     113.758 126.116 138.769  0.00  0.00    +0.000 OA
ATOM     25  O   UNL     1     114.610 125.111 137.775  0.00  0.00    +0.000 OA
ATOM     26  C   UNL     1     112.825 126.549 136.843  0.00  0.00    +0.000 A 
ATOM     27  C   UNL     1     112.994 126.572 137.650  0.00  0.00    +0.000 A 
ATOM     28  C   UNL     1     113.251 126.047 136.347  0.00  0.00    +0.000 A 
ATOM     29  C   UNL     1     113.589 126.093 137.961  0.00  0.00    +0.000 A 
ATOM     30  C   UNL     1     113.845 125.568 136.657  0.00  0.00    +0.000 A 
ATOM     31  C   UNL     1     114.015 125.591 137.464  0.00  0.00    +0.000 A 
ENDBRANCH  16  26
ENDBRANCH  10  15
ENDBRANCH   9  10
BRANCH   5  32
ATOM     32  C   UNL     1     113.311 130.051 137.773  0.00  0.00    +0.000 C 
BRANCH  32  33
ATOM     33  O   UNL     1     113.371 129.651 138.492  0.00  0.00    +0.000 OA
BRANCH  33  40
ATOM     34  O   UNL     1     112.154 130.226 138.972  0.00  0.00    +0.000 OA
ATOM     35  O   UNL     1     113.825 129.316 140.043  0.00  0.00    +0.000 OA
ATOM     36  O   UNL     1     112.834 129.724 141.298  0.00  0.00    +0.000 OA
ATOM     37  O   UNL     1     111.390 130.466 141.003  0.00  0.00    +0.000 OA
ATOM     38  C   UNL     1     113.102 129.688 139.895  0.00  0.00    +0.000 C 
ATOM     39  C   UNL     1     112.608 129.891 140.523  0.00  0.00    +0.000 C 
ATOM     40  C   UNL     1     112.875 129.855 139.120  0.00  0.00    +0.000 C 
ATOM     41  C   UNL     1     111.885 130.263 140.375  0.00  0.00    +0.000 C 
ATOM     42  C   UNL     1     111.658 130.430 139.600  0.00  0.00    +0.000 C 
BRANCH  42  43
ATOM     43  C   UNL     1     110.937 130.801 139.452  0.00  0.00    +0.000 C 
BRANCH  43  44
ATOM     44  O   UNL     1     110.843 131.269 138.779  0.00  0.00    +0.000 OA
BRANCH  44  46
ATOM     45  O   UNL     1     109.734 132.070 139.190  0.00  0.00    +0.000 OA
ATOM     46  C   UNL     1     110.112 131.615 138.616  0.00  0.00    +0.000 C 
BRANCH  46  47
ATOM     47  C   UNL     1     109.759 131.506 137.878  0.00  0.00    +0.000 C 
ATOM     48  C   UNL     1     109.273 132.092 137.563  0.00  0.00    +0.000 C 
BRANCH  48  51
ATOM     49  O   UNL     1     107.121 131.086 135.974  0.00  0.00    +0.000 OA
ATOM     50  O   UNL     1     107.859 131.657 134.613  0.00  0.00    +0.000 OA
ATOM     51  C   UNL     1     108.920 131.984 136.825  0.00  0.00    +0.000 A 
ATOM     52  C   UNL     1     108.197 131.590 136.768  0.00  0.00    +0.000 A 
ATOM     53  C   UNL     1     109.288 132.269 136.145  0.00  0.00    +0.000 A 
ATOM     54  C   UNL     1     107.843 131.481 136.031  0.00  0.00    +0.000 A 
ATOM     55  C   UNL     1     108.935 132.160 135.408  0.00  0.00    +0.000 A 
ATOM     56  C   UNL     1     108.213 131.766 135.351  0.00  0.00    +0.000 A 
ENDBRANCH  48  51
ENDBRANCH  46  47
ENDBRANCH  44  46
ENDBRANCH  43  44
ENDBRANCH  42  43
ENDBRANCH  33  40
ENDBRANCH  32  33
ENDBRANCH   5  32
TORSDOF 11
ENDMDL
MODEL 4
REMARK VINA RESULT:     -10.9      1.815      3.286
REMARK  Name = 44258007
REMARK  11 active torsions:
REMARK  status: ('A' for Active; 'I' for Inactive)
REMARK    1  A    between atoms: O_3  and  C_26
REMARK    2  A    between atoms: O_3  and  C_30
REMARK    3  A    between atoms: O_6  and  C_31
REMARK    4  A    between atoms: O_6  and  C_33
REMARK    5  A    between atoms: O_11  and  C_32
REMARK    6  A    between atoms: O_11  and  C_36
REMARK    7  A    between atoms: C_21  and  C_30
REMARK    8  A    between atoms: C_29  and  C_32
REMARK    9  A    between atoms: C_34  and  C_38
REMARK   10  A    between atoms: C_36  and  C_41
REMARK   11  A    between atoms: C_48  and  C_51
REMARK                            x       y       z     vdW  Elec       q    Type
REMARK                         _______ _______ _______ _____ _____    ______ ____
ROOT
ATOM      1  O   UNL     1     111.032 127.626 136.823  0.00  0.00    +0.000 OA
ATOM      2  O   UNL     1     108.863 127.866 136.873  0.00  0.00    +0.000 OA
ATOM      3  O   UNL     1     109.170 128.140 135.276  0.00  0.00    +0.000 OA
ATOM      4  O   UNL     1     110.719 128.072 134.710  0.00  0.00    +0.000 OA
ATOM      5  C   UNL     1     110.258 127.660 137.106  0.00  0.00    +0.000 C 
ATOM      6  C   UNL     1     109.637 127.832 136.590  0.00  0.00    +0.000 C 
ATOM      7  C   UNL     1     109.791 127.969 135.791  0.00  0.00    +0.000 C 
ATOM      8  C   UNL     1     110.566 127.935 135.508  0.00  0.00    +0.000 C 
ATOM      9  C   UNL     1     111.185 127.764 136.024  0.00  0.00    +0.000 C 
ENDROOT
BRANCH   9  10
ATOM     10  O   UNL     1     111.960 127.729 135.741  0.00  0.00    +0.000 OA
BRANCH  10  15
ATOM     11  O   UNL     1     113.752 127.121 136.828  0.00  0.00    +0.000 OA
ATOM     12  O   UNL     1     111.721 126.100 135.848  0.00  0.00    +0.000 OA
ATOM     13  O   UNL     1     112.141 124.787 136.275  0.00  0.00    +0.000 OA
ATOM     14  O   UNL     1     114.662 124.501 137.720  0.00  0.00    +0.000 OA
ATOM     15  C   UNL     1     112.518 127.255 136.122  0.00  0.00    +0.000 A 
ATOM     16  C   UNL     1     113.195 127.595 136.448  0.00  0.00    +0.000 A 
ATOM     17  C   UNL     1     112.398 126.440 136.175  0.00  0.00    +0.000 A 
ATOM     18  C   UNL     1     112.957 125.966 136.555  0.00  0.00    +0.000 A 
ATOM     19  C   UNL     1     113.633 126.306 136.882  0.00  0.00    +0.000 A 
ATOM     20  C   UNL     1     112.821 125.119 136.604  0.00  0.00    +0.000 A 
ATOM     21  C   UNL     1     114.221 125.823 137.280  0.00  0.00    +0.000 A 
ATOM     22  C   UNL     1     113.398 124.619 136.999  0.00  0.00    +0.000 A 
ATOM     23  C   UNL     1     114.103 124.973 137.339  0.00  0.00    +0.000 A 
BRANCH  16  26
ATOM     24  O   UNL     1     113.087 130.194 137.632  0.00  0.00    +0.000 OA
ATOM     25  O   UNL     1     113.668 130.854 136.236  0.00  0.00    +0.000 OA
ATOM     26  C   UNL     1     113.313 128.410 136.395  0.00  0.00    +0.000 A 
ATOM     27  C   UNL     1     113.141 128.895 137.040  0.00  0.00    +0.000 A 
ATOM     28  C   UNL     1     113.603 128.740 135.697  0.00  0.00    +0.000 A 
ATOM     29  C   UNL     1     113.259 129.709 136.987  0.00  0.00    +0.000 A 
ATOM     30  C   UNL     1     113.722 129.554 135.644  0.00  0.00    +0.000 A 
ATOM     31  C   UNL     1     113.550 130.039 136.289  0.00  0.00    +0.000 A 
ENDBRANCH  16  26
ENDBRANCH  10  15
ENDBRANCH   9  10
BRANCH   5  32
ATOM     32  C   UNL     1     110.104 127.523 137.905  0.00  0.00    +0.000 C 
BRANCH  32  33
ATOM     33  O   UNL     1     110.029 126.750 138.184  0.00  0.00    +0.000 OA
BRANCH  33  40
ATOM     34  O   UNL     1     110.959 126.724 139.269  0.00  0.00    +0.000 OA
ATOM     35  O   UNL     1     108.865 126.116 139.167  0.00  0.00    +0.000 OA
ATOM     36  O   UNL     1     109.213 125.772 140.743  0.00  0.00    +0.000 OA
ATOM     37  O   UNL     1     110.726 126.063 141.336  0.00  0.00    +0.000 OA
ATOM     38  C   UNL     1     109.622 126.262 139.464  0.00  0.00    +0.000 C 
ATOM     39  C   UNL     1     109.795 126.089 140.251  0.00  0.00    +0.000 C 
ATOM     40  C   UNL     1     110.204 126.579 138.972  0.00  0.00    +0.000 C 
ATOM     41  C   UNL     1     110.552 126.235 140.548  0.00  0.00    +0.000 C 
ATOM     42  C   UNL     1     111.134 126.552 140.057  0.00  0.00    +0.000 C 
BRANCH  42  43
ATOM     43  C   UNL     1     111.890 126.697 140.353  0.00  0.00    +0.000 C 
BRANCH  43  44
ATOM     44  O   UNL     1     112.350 127.302 140.033  0.00  0.00    +0.000 OA
BRANCH  44  46
ATOM     45  O   UNL     1     113.596 126.888 140.595  0.00  0.00    +0.000 OA
ATOM     46  C   UNL     1     113.078 127.490 140.371  0.00  0.00    +0.000 C 
BRANCH  46  47
ATOM     47  C   UNL     1     113.290 128.279 140.486  0.00  0.00    +0.000 C 
ATOM     48  C   UNL     1     114.085 128.489 140.550  0.00  0.00    +0.000 C 
BRANCH  48  51
ATOM     49  O   UNL     1     113.495 131.080 141.602  0.00  0.00    +0.000 OA
ATOM     50  O   UNL     1     114.928 131.646 141.010  0.00  0.00    +0.000 OA
ATOM     51  C   UNL     1     114.296 129.278 140.665  0.00  0.00    +0.000 A 
ATOM     52  C   UNL     1     113.791 129.784 141.075  0.00  0.00    +0.000 A 
ATOM     53  C   UNL     1     115.012 129.561 140.369  0.00  0.00    +0.000 A 
ATOM     54  C   UNL     1     114.001 130.573 141.191  0.00  0.00    +0.000 A 
ATOM     55  C   UNL     1     115.222 130.349 140.484  0.00  0.00    +0.000 A 
ATOM     56  C   UNL     1     114.717 130.856 140.895  0.00  0.00    +0.000 A 
ENDBRANCH  48  51
ENDBRANCH  46  47
ENDBRANCH  44  46
ENDBRANCH  43  44
ENDBRANCH  42  43
ENDBRANCH  33  40
ENDBRANCH  32  33
ENDBRANCH   5  32
TORSDOF 11
ENDMDL
MODEL 5
REMARK VINA RESULT:     -10.7      1.736      4.191
REMARK  Name = 44258007
REMARK  11 active torsions:
REMARK  status: ('A' for Active; 'I' for Inactive)
REMARK    1  A    between atoms: O_3  and  C_26
REMARK    2  A    between atoms: O_3  and  C_30
REMARK    3  A    between atoms: O_6  and  C_31
REMARK    4  A    between atoms: O_6  and  C_33
REMARK    5  A    between atoms: O_11  and  C_32
REMARK    6  A    between atoms: O_11  and  C_36
REMARK    7  A    between atoms: C_21  and  C_30
REMARK    8  A    between atoms: C_29  and  C_32
REMARK    9  A    between atoms: C_34  and  C_38
REMARK   10  A    between atoms: C_36  and  C_41
REMARK   11  A    between atoms: C_48  and  C_51
REMARK                            x       y       z     vdW  Elec       q    Type
REMARK                         _______ _______ _______ _____ _____    ______ ____
ROOT
ATOM      1  O   UNL     1     110.738 130.521 138.188  0.00  0.00    +0.000 OA
ATOM      2  O   UNL     1     110.435 131.829 139.909  0.00  0.00    +0.000 OA
ATOM      3  O   UNL     1     110.174 132.882 138.667  0.00  0.00    +0.000 OA
ATOM      4  O   UNL     1     110.289 132.362 137.105  0.00  0.00    +0.000 OA
ATOM      5  C   UNL     1     110.681 130.781 138.968  0.00  0.00    +0.000 C 
ATOM      6  C   UNL     1     110.492 131.569 139.128  0.00  0.00    +0.000 C 
ATOM      7  C   UNL     1     110.362 132.095 138.507  0.00  0.00    +0.000 C 
ATOM      8  C   UNL     1     110.419 131.835 137.726  0.00  0.00    +0.000 C 
ATOM      9  C   UNL     1     110.607 131.048 137.567  0.00  0.00    +0.000 C 
ENDROOT
BRANCH   9  10
ATOM     10  O   UNL     1     110.665 130.788 136.786  0.00  0.00    +0.000 OA
BRANCH  10  15
ATOM     11  O   UNL     1     111.702 129.034 136.005  0.00  0.00    +0.000 OA
ATOM     12  O   UNL     1     112.238 131.224 137.026  0.00  0.00    +0.000 OA
ATOM     13  O   UNL     1     113.652 130.952 136.935  0.00  0.00    +0.000 OA
ATOM     14  O   UNL     1     114.541 128.416 135.791  0.00  0.00    +0.000 OA
ATOM     15  C   UNL     1     111.273 130.275 136.565  0.00  0.00    +0.000 A 
ATOM     16  C   UNL     1     111.095 129.545 136.225  0.00  0.00    +0.000 A 
ATOM     17  C   UNL     1     112.059 130.494 136.685  0.00  0.00    +0.000 A 
ATOM     18  C   UNL     1     112.668 129.981 136.465  0.00  0.00    +0.000 A 
ATOM     19  C   UNL     1     112.489 129.251 136.124  0.00  0.00    +0.000 A 
ATOM     20  C   UNL     1     113.483 130.220 136.595  0.00  0.00    +0.000 A 
ATOM     21  C   UNL     1     113.113 128.709 135.891  0.00  0.00    +0.000 A 
ATOM     22  C   UNL     1     114.121 129.691 136.367  0.00  0.00    +0.000 A 
ATOM     23  C   UNL     1     113.935 128.930 136.013  0.00  0.00    +0.000 A 
BRANCH  16  26
ATOM     24  O   UNL     1     108.840 127.933 136.923  0.00  0.00    +0.000 OA
ATOM     25  O   UNL     1     107.947 128.674 135.749  0.00  0.00    +0.000 OA
ATOM     26  C   UNL     1     110.308 129.328 136.106  0.00  0.00    +0.000 A 
ATOM     27  C   UNL     1     109.967 128.740 136.573  0.00  0.00    +0.000 A 
ATOM     28  C   UNL     1     109.861 129.698 135.519  0.00  0.00    +0.000 A 
ATOM     29  C   UNL     1     109.181 128.521 136.455  0.00  0.00    +0.000 A 
ATOM     30  C   UNL     1     109.075 129.480 135.400  0.00  0.00    +0.000 A 
ATOM     31  C   UNL     1     108.735 128.892 135.868  0.00  0.00    +0.000 A 
ENDBRANCH  16  26
ENDBRANCH  10  15
ENDBRANCH   9  10
BRANCH   5  32
ATOM     32  C   UNL     1     110.811 130.255 139.590  0.00  0.00    +0.000 C 
BRANCH  32  33
ATOM     33  O   UNL     1     110.279 129.640 139.729  0.00  0.00    +0.000 OA
BRANCH  33  40
ATOM     34  O   UNL     1     111.224 128.614 140.041  0.00  0.00    +0.000 OA
ATOM     35  O   UNL     1     109.300 129.109 140.946  0.00  0.00    +0.000 OA
ATOM     36  O   UNL     1     109.755 127.818 141.868  0.00  0.00    +0.000 OA
ATOM     37  O   UNL     1     111.189 127.057 141.572  0.00  0.00    +0.000 OA
ATOM     38  C   UNL     1     110.018 128.729 140.798  0.00  0.00    +0.000 C 
ATOM     39  C   UNL     1     110.245 128.083 141.259  0.00  0.00    +0.000 C 
ATOM     40  C   UNL     1     110.507 128.994 140.189  0.00  0.00    +0.000 C 
ATOM     41  C   UNL     1     110.962 127.703 141.111  0.00  0.00    +0.000 C 
ATOM     42  C   UNL     1     111.452 127.968 140.502  0.00  0.00    +0.000 C 
BRANCH  42  43
ATOM     43  C   UNL     1     112.168 127.588 140.354  0.00  0.00    +0.000 C 
BRANCH  43  44
ATOM     44  O   UNL     1     112.482 127.579 139.591  0.00  0.00    +0.000 OA
BRANCH  44  46
ATOM     45  O   UNL     1     113.794 127.117 139.914  0.00  0.00    +0.000 OA
ATOM     46  C   UNL     1     113.135 127.107 139.418  0.00  0.00    +0.000 C 
BRANCH  46  47
ATOM     47  C   UNL     1     113.131 126.624 138.749  0.00  0.00    +0.000 C 
ATOM     48  C   UNL     1     113.770 126.127 138.594  0.00  0.00    +0.000 C 
BRANCH  48  51
ATOM     49  O   UNL     1     115.154 124.927 136.401  0.00  0.00    +0.000 OA
ATOM     50  O   UNL     1     113.755 124.196 135.918  0.00  0.00    +0.000 OA
ATOM     51  C   UNL     1     113.766 125.644 137.925  0.00  0.00    +0.000 A 
ATOM     52  C   UNL     1     114.461 125.527 137.497  0.00  0.00    +0.000 A 
ATOM     53  C   UNL     1     113.067 125.278 137.684  0.00  0.00    +0.000 A 
ATOM     54  C   UNL     1     114.458 125.044 136.828  0.00  0.00    +0.000 A 
ATOM     55  C   UNL     1     113.063 124.796 137.016  0.00  0.00    +0.000 A 
ATOM     56  C   UNL     1     113.759 124.679 136.588  0.00  0.00    +0.000 A 
ENDBRANCH  48  51
ENDBRANCH  46  47
ENDBRANCH  44  46
ENDBRANCH  43  44
ENDBRANCH  42  43
ENDBRANCH  33  40
ENDBRANCH  32  33
ENDBRANCH   5  32
TORSDOF 11
ENDMDL
MODEL 6
REMARK VINA RESULT:     -10.7      1.585      2.704
REMARK  Name = 44258007
REMARK  11 active torsions:
REMARK  status: ('A' for Active; 'I' for Inactive)
REMARK    1  A    between atoms: O_3  and  C_26
REMARK    2  A    between atoms: O_3  and  C_30
REMARK    3  A    between atoms: O_6  and  C_31
REMARK    4  A    between atoms: O_6  and  C_33
REMARK    5  A    between atoms: O_11  and  C_32
REMARK    6  A    between atoms: O_11  and  C_36
REMARK    7  A    between atoms: C_21  and  C_30
REMARK    8  A    between atoms: C_29  and  C_32
REMARK    9  A    between atoms: C_34  and  C_38
REMARK   10  A    between atoms: C_36  and  C_41
REMARK   11  A    between atoms: C_48  and  C_51
REMARK                            x       y       z     vdW  Elec       q    Type
REMARK                         _______ _______ _______ _____ _____    ______ ____
ROOT
ATOM      1  O   UNL     1     110.937 127.114 136.830  0.00  0.00    +0.000 OA
ATOM      2  O   UNL     1     110.879 124.939 137.020  0.00  0.00    +0.000 OA
ATOM      3  O   UNL     1     110.827 125.110 135.381  0.00  0.00    +0.000 OA
ATOM      4  O   UNL     1     110.849 126.616 134.707  0.00  0.00    +0.000 OA
ATOM      5  C   UNL     1     110.926 126.361 137.167  0.00  0.00    +0.000 C 
ATOM      6  C   UNL     1     110.890 125.692 136.683  0.00  0.00    +0.000 C 
ATOM      7  C   UNL     1     110.864 125.778 135.863  0.00  0.00    +0.000 C 
ATOM      8  C   UNL     1     110.875 126.531 135.526  0.00  0.00    +0.000 C 
ATOM      9  C   UNL     1     110.911 127.198 136.009  0.00  0.00    +0.000 C 
ENDROOT
BRANCH   9  10
ATOM     10  O   UNL     1     110.922 127.951 135.672  0.00  0.00    +0.000 OA
BRANCH  10  15
ATOM     11  O   UNL     1     111.604 129.833 136.542  0.00  0.00    +0.000 OA
ATOM     12  O   UNL     1     112.547 127.679 135.771  0.00  0.00    +0.000 OA
ATOM     13  O   UNL     1     113.880 128.105 136.122  0.00  0.00    +0.000 OA
ATOM     14  O   UNL     1     114.267 130.760 137.274  0.00  0.00    +0.000 OA
ATOM     15  C   UNL     1     111.420 128.534 135.979  0.00  0.00    +0.000 A 
ATOM     16  C   UNL     1     111.106 129.252 136.236  0.00  0.00    +0.000 A 
ATOM     17  C   UNL     1     112.232 128.397 136.028  0.00  0.00    +0.000 A 
ATOM     18  C   UNL     1     112.730 128.980 136.335  0.00  0.00    +0.000 A 
ATOM     19  C   UNL     1     112.416 129.698 136.592  0.00  0.00    +0.000 A 
ATOM     20  C   UNL     1     113.574 128.826 136.382  0.00  0.00    +0.000 A 
ATOM     21  C   UNL     1     112.924 130.312 136.913  0.00  0.00    +0.000 A 
ATOM     22  C   UNL     1     114.098 129.428 136.700  0.00  0.00    +0.000 A 
ATOM     23  C   UNL     1     113.771 130.176 136.967  0.00  0.00    +0.000 A 
BRANCH  16  26
ATOM     24  O   UNL     1     108.568 129.568 137.510  0.00  0.00    +0.000 OA
ATOM     25  O   UNL     1     107.857 129.794 136.039  0.00  0.00    +0.000 OA
ATOM     26  C   UNL     1     110.294 129.388 136.186  0.00  0.00    +0.000 A 
ATOM     27  C   UNL     1     109.837 129.410 136.872  0.00  0.00    +0.000 A 
ATOM     28  C   UNL     1     109.938 129.501 135.451  0.00  0.00    +0.000 A 
ATOM     29  C   UNL     1     109.025 129.545 136.824  0.00  0.00    +0.000 A 
ATOM     30  C   UNL     1     109.127 129.636 135.401  0.00  0.00    +0.000 A 
ATOM     31  C   UNL     1     108.670 129.658 136.088  0.00  0.00    +0.000 A 
ENDBRANCH  16  26
ENDBRANCH  10  15
ENDBRANCH   9  10
BRANCH   5  32
ATOM     32  C   UNL     1     110.952 126.275 137.987  0.00  0.00    +0.000 C 
BRANCH  32  33
ATOM     33  O   UNL     1     110.388 126.647 138.459  0.00  0.00    +0.000 OA
BRANCH  33  40
ATOM     34  O   UNL     1     111.199 126.728 139.633  0.00  0.00    +0.000 OA
ATOM     35  O   UNL     1     109.053 126.405 139.398  0.00  0.00    +0.000 OA
ATOM     36  O   UNL     1     109.196 126.365 141.041  0.00  0.00    +0.000 OA
ATOM     37  O   UNL     1     110.675 126.567 141.746  0.00  0.00    +0.000 OA
ATOM     38  C   UNL     1     109.793 126.506 139.750  0.00  0.00    +0.000 C 
ATOM     39  C   UNL     1     109.864 126.486 140.572  0.00  0.00    +0.000 C 
ATOM     40  C   UNL     1     110.460 126.627 139.281  0.00  0.00    +0.000 C 
ATOM     41  C   UNL     1     110.604 126.587 140.924  0.00  0.00    +0.000 C 
ATOM     42  C   UNL     1     111.271 126.708 140.455  0.00  0.00    +0.000 C 
BRANCH  42  43
ATOM     43  C   UNL     1     112.010 126.809 140.807  0.00  0.00    +0.000 C 
BRANCH  43  44
ATOM     44  O   UNL     1     112.492 127.440 140.581  0.00  0.00    +0.000 OA
BRANCH  44  46
ATOM     45  O   UNL     1     113.709 126.798 140.967  0.00  0.00    +0.000 OA
ATOM     46  C   UNL     1     113.267 127.487 140.859  0.00  0.00    +0.000 C 
BRANCH  46  47
ATOM     47  C   UNL     1     113.601 128.222 141.031  0.00  0.00    +0.000 C 
ATOM     48  C   UNL     1     113.853 128.713 140.419  0.00  0.00    +0.000 C 
BRANCH  48  51
ATOM     49  O   UNL     1     113.591 131.375 141.425  0.00  0.00    +0.000 OA
ATOM     50  O   UNL     1     115.186 131.653 141.104  0.00  0.00    +0.000 OA
ATOM     51  C   UNL     1     114.187 129.448 140.590  0.00  0.00    +0.000 A 
ATOM     52  C   UNL     1     113.723 130.044 140.922  0.00  0.00    +0.000 A 
ATOM     53  C   UNL     1     114.983 129.587 140.430  0.00  0.00    +0.000 A 
ATOM     54  C   UNL     1     114.055 130.779 141.093  0.00  0.00    +0.000 A 
ATOM     55  C   UNL     1     115.316 130.322 140.601  0.00  0.00    +0.000 A 
ATOM     56  C   UNL     1     114.852 130.918 140.933  0.00  0.00    +0.000 A 
ENDBRANCH  48  51
ENDBRANCH  46  47
ENDBRANCH  44  46
ENDBRANCH  43  44
ENDBRANCH  42  43
ENDBRANCH  33  40
ENDBRANCH  32  33
ENDBRANCH   5  32
TORSDOF 11
ENDMDL
MODEL 7
REMARK VINA RESULT:     -10.7      1.879      5.124
REMARK  Name = 44258007
REMARK  11 active torsions:
REMARK  status: ('A' for Active; 'I' for Inactive)
REMARK    1  A    between atoms: O_3  and  C_26
REMARK    2  A    between atoms: O_3  and  C_30
REMARK    3  A    between atoms: O_6  and  C_31
REMARK    4  A    between atoms: O_6  and  C_33
REMARK    5  A    between atoms: O_11  and  C_32
REMARK    6  A    between atoms: O_11  and  C_36
REMARK    7  A    between atoms: C_21  and  C_30
REMARK    8  A    between atoms: C_29  and  C_32
REMARK    9  A    between atoms: C_34  and  C_38
REMARK   10  A    between atoms: C_36  and  C_41
REMARK   11  A    between atoms: C_48  and  C_51
REMARK                            x       y       z     vdW  Elec       q    Type
REMARK                         _______ _______ _______ _____ _____    ______ ____
ROOT
ATOM      1  O   UNL     1     110.991 126.940 139.930  0.00  0.00    +0.000 OA
ATOM      2  O   UNL     1     109.468 125.434 140.356  0.00  0.00    +0.000 OA
ATOM      3  O   UNL     1     109.691 126.085 141.855  0.00  0.00    +0.000 OA
ATOM      4  O   UNL     1     110.780 127.305 142.072  0.00  0.00    +0.000 OA
ATOM      5  C   UNL     1     110.446 126.330 139.822  0.00  0.00    +0.000 C 
ATOM      6  C   UNL     1     110.013 126.045 140.464  0.00  0.00    +0.000 C 
ATOM      7  C   UNL     1     110.125 126.370 141.214  0.00  0.00    +0.000 C 
ATOM      8  C   UNL     1     110.669 126.980 141.322  0.00  0.00    +0.000 C 
ATOM      9  C   UNL     1     111.102 127.265 140.681  0.00  0.00    +0.000 C 
ENDROOT
BRANCH   9  10
ATOM     10  O   UNL     1     111.646 127.875 140.789  0.00  0.00    +0.000 OA
BRANCH  10  15
ATOM     11  O   UNL     1     112.609 129.123 139.279  0.00  0.00    +0.000 OA
ATOM     12  O   UNL     1     110.367 128.778 140.269  0.00  0.00    +0.000 OA
ATOM     13  O   UNL     1     109.805 129.802 139.422  0.00  0.00    +0.000 OA
ATOM     14  O   UNL     1     111.543 131.201 137.538  0.00  0.00    +0.000 OA
ATOM     15  C   UNL     1     111.754 128.442 140.199  0.00  0.00    +0.000 A 
ATOM     16  C   UNL     1     112.502 128.557 139.869  0.00  0.00    +0.000 A 
ATOM     17  C   UNL     1     111.115 128.893 139.939  0.00  0.00    +0.000 A 
ATOM     18  C   UNL     1     111.223 129.460 139.349  0.00  0.00    +0.000 A 
ATOM     19  C   UNL     1     111.970 129.575 139.019  0.00  0.00    +0.000 A 
ATOM     20  C   UNL     1     110.549 129.924 139.087  0.00  0.00    +0.000 A 
ATOM     21  C   UNL     1     112.095 130.161 138.404  0.00  0.00    +0.000 A 
ATOM     22  C   UNL     1     110.654 130.516 138.472  0.00  0.00    +0.000 A 
ATOM     23  C   UNL     1     111.433 130.635 138.128  0.00  0.00    +0.000 A 
BRANCH  16  26
ATOM     24  O   UNL     1     114.318 126.385 139.479  0.00  0.00    +0.000 OA
ATOM     25  O   UNL     1     115.058 126.748 140.908  0.00  0.00    +0.000 OA
ATOM     26  C   UNL     1     113.141 128.105 140.129  0.00  0.00    +0.000 A 
ATOM     27  C   UNL     1     113.410 127.471 139.674  0.00  0.00    +0.000 A 
ATOM     28  C   UNL     1     113.511 128.286 140.843  0.00  0.00    +0.000 A 
ATOM     29  C   UNL     1     114.049 127.019 139.934  0.00  0.00    +0.000 A 
ATOM     30  C   UNL     1     114.150 127.834 141.103  0.00  0.00    +0.000 A 
ATOM     31  C   UNL     1     114.419 127.200 140.648  0.00  0.00    +0.000 A 
ENDBRANCH  16  26
ENDBRANCH  10  15
ENDBRANCH   9  10
BRANCH   5  32
ATOM     32  C   UNL     1     110.335 126.004 139.072  0.00  0.00    +0.000 C 
BRANCH  32  33
ATOM     33  O   UNL     1     110.983 125.745 138.634  0.00  0.00    +0.000 OA
BRANCH  33  40
ATOM     34  O   UNL     1     110.389 126.081 137.378  0.00  0.00    +0.000 OA
ATOM     35  O   UNL     1     111.870 124.564 137.898  0.00  0.00    +0.000 OA
ATOM     36  O   UNL     1     111.719 124.309 136.275  0.00  0.00    +0.000 OA
ATOM     37  O   UNL     1     110.681 125.235 135.387  0.00  0.00    +0.000 OA
ATOM     38  C   UNL     1     111.351 125.027 137.454  0.00  0.00    +0.000 C 
ATOM     39  C   UNL     1     111.276 124.899 136.643  0.00  0.00    +0.000 C 
ATOM     40  C   UNL     1     110.907 125.618 137.822  0.00  0.00    +0.000 C 
ATOM     41  C   UNL     1     110.756 125.363 136.199  0.00  0.00    +0.000 C 
ATOM     42  C   UNL     1     110.313 125.953 136.566  0.00  0.00    +0.000 C 
BRANCH  42  43
ATOM     43  C   UNL     1     109.794 126.416 136.123  0.00  0.00    +0.000 C 
BRANCH  43  44
ATOM     44  O   UNL     1     109.653 127.200 136.337  0.00  0.00    +0.000 OA
BRANCH  44  46
ATOM     45  O   UNL     1     108.271 127.274 135.985  0.00  0.00    +0.000 OA
ATOM     46  C   UNL     1     109.023 127.613 136.002  0.00  0.00    +0.000 C 
BRANCH  46  47
ATOM     47  C   UNL     1     109.143 128.364 135.684  0.00  0.00    +0.000 C 
ATOM     48  C   UNL     1     108.684 128.999 135.939  0.00  0.00    +0.000 C 
BRANCH  48  51
ATOM     49  O   UNL     1     108.048 131.784 135.861  0.00  0.00    +0.000 OA
ATOM     50  O   UNL     1     109.164 132.006 134.666  0.00  0.00    +0.000 OA
ATOM     51  C   UNL     1     108.805 129.751 135.620  0.00  0.00    +0.000 A 
ATOM     52  C   UNL     1     108.366 130.392 135.899  0.00  0.00    +0.000 A 
ATOM     53  C   UNL     1     109.362 129.862 135.023  0.00  0.00    +0.000 A 
ATOM     54  C   UNL     1     108.486 131.144 135.582  0.00  0.00    +0.000 A 
ATOM     55  C   UNL     1     109.482 130.613 134.705  0.00  0.00    +0.000 A 
ATOM     56  C   UNL     1     109.044 131.254 134.985  0.00  0.00    +0.000 A 
ENDBRANCH  48  51
ENDBRANCH  46  47
ENDBRANCH  44  46
ENDBRANCH  43  44
ENDBRANCH  42  43
ENDBRANCH  33  40
ENDBRANCH  32  33
ENDBRANCH   5  32
TORSDOF 11
ENDMDL
MODEL 8
REMARK VINA RESULT:     -10.6      1.326      4.124
REMARK  Name = 44258007
REMARK  11 active torsions:
REMARK  status: ('A' for Active; 'I' for Inactive)
REMARK    1  A    between atoms: O_3  and  C_26
REMARK    2  A    between atoms: O_3  and  C_30
REMARK    3  A    between atoms: O_6  and  C_31
REMARK    4  A    between atoms: O_6  and  C_33
REMARK    5  A    between atoms: O_11  and  C_32
REMARK    6  A    between atoms: O_11  and  C_36
REMARK    7  A    between atoms: C_21  and  C_30
REMARK    8  A    between atoms: C_29  and  C_32
REMARK    9  A    between atoms: C_34  and  C_38
REMARK   10  A    between atoms: C_36  and  C_41
REMARK   11  A    between atoms: C_48  and  C_51
REMARK                            x       y       z     vdW  Elec       q    Type
REMARK                         _______ _______ _______ _____ _____    ______ ____
ROOT
ATOM      1  O   UNL     1     111.715 126.871 137.287  0.00  0.00    +0.000 OA
ATOM      2  O   UNL     1     111.775 125.084 138.541  0.00  0.00    +0.000 OA
ATOM      3  O   UNL     1     111.343 124.432 137.089  0.00  0.00    +0.000 OA
ATOM      4  O   UNL     1     111.159 125.405 135.769  0.00  0.00    +0.000 OA
ATOM      5  C   UNL     1     111.807 126.384 137.947  0.00  0.00    +0.000 C 
ATOM      6  C   UNL     1     111.683 125.570 137.881  0.00  0.00    +0.000 C 
ATOM      7  C   UNL     1     111.467 125.245 137.154  0.00  0.00    +0.000 C 
ATOM      8  C   UNL     1     111.375 125.731 136.495  0.00  0.00    +0.000 C 
ATOM      9  C   UNL     1     111.499 126.544 136.561  0.00  0.00    +0.000 C 
ENDROOT
BRANCH   9  10
ATOM     10  O   UNL     1     111.407 127.030 135.901  0.00  0.00    +0.000 OA
BRANCH  10  15
ATOM     11  O   UNL     1     111.809 129.171 135.761  0.00  0.00    +0.000 OA
ATOM     12  O   UNL     1     113.057 127.039 135.909  0.00  0.00    +0.000 OA
ATOM     13  O   UNL     1     114.317 127.741 135.868  0.00  0.00    +0.000 OA
ATOM     14  O   UNL     1     114.315 130.654 135.674  0.00  0.00    +0.000 OA
ATOM     15  C   UNL     1     111.816 127.746 135.856  0.00  0.00    +0.000 A 
ATOM     16  C   UNL     1     111.400 128.457 135.806  0.00  0.00    +0.000 A 
ATOM     17  C   UNL     1     112.641 127.749 135.859  0.00  0.00    +0.000 A 
ATOM     18  C   UNL     1     113.050 128.465 135.813  0.00  0.00    +0.000 A 
ATOM     19  C   UNL     1     112.634 129.176 135.764  0.00  0.00    +0.000 A 
ATOM     20  C   UNL     1     113.909 128.456 135.818  0.00  0.00    +0.000 A 
ATOM     21  C   UNL     1     113.049 129.927 135.716  0.00  0.00    +0.000 A 
ATOM     22  C   UNL     1     114.341 129.198 135.771  0.00  0.00    +0.000 A 
ATOM     23  C   UNL     1     113.908 129.938 135.719  0.00  0.00    +0.000 A 
BRANCH  16  26
ATOM     24  O   UNL     1     108.919 128.747 137.194  0.00  0.00    +0.000 OA
ATOM     25  O   UNL     1     108.100 128.438 135.795  0.00  0.00    +0.000 OA
ATOM     26  C   UNL     1     110.575 128.452 135.803  0.00  0.00    +0.000 A 
ATOM     27  C   UNL     1     110.159 128.602 136.499  0.00  0.00    +0.000 A 
ATOM     28  C   UNL     1     110.166 128.297 135.104  0.00  0.00    +0.000 A 
ATOM     29  C   UNL     1     109.335 128.597 136.497  0.00  0.00    +0.000 A 
ATOM     30  C   UNL     1     109.342 128.292 135.101  0.00  0.00    +0.000 A 
ATOM     31  C   UNL     1     108.926 128.442 135.797  0.00  0.00    +0.000 A 
ENDBRANCH  16  26
ENDBRANCH  10  15
ENDBRANCH   9  10
BRANCH   5  32
ATOM     32  C   UNL     1     112.023 126.710 138.673  0.00  0.00    +0.000 C 
BRANCH  32  33
ATOM     33  O   UNL     1     112.799 126.963 138.799  0.00  0.00    +0.000 OA
BRANCH  33  40
ATOM     34  O   UNL     1     112.514 128.221 139.412  0.00  0.00    +0.000 OA
ATOM     35  O   UNL     1     114.012 126.706 139.887  0.00  0.00    +0.000 OA
ATOM     36  O   UNL     1     114.333 127.836 141.045  0.00  0.00    +0.000 OA
ATOM     37  O   UNL     1     113.442 129.223 141.115  0.00  0.00    +0.000 OA
ATOM     38  C   UNL     1     113.566 127.400 139.922  0.00  0.00    +0.000 C 
ATOM     39  C   UNL     1     113.727 127.965 140.501  0.00  0.00    +0.000 C 
ATOM     40  C   UNL     1     112.959 127.528 139.378  0.00  0.00    +0.000 C 
ATOM     41  C   UNL     1     113.281 128.659 140.536  0.00  0.00    +0.000 C 
ATOM     42  C   UNL     1     112.674 128.787 139.991  0.00  0.00    +0.000 C 
BRANCH  42  43
ATOM     43  C   UNL     1     112.229 129.480 140.026  0.00  0.00    +0.000 C 
BRANCH  43  44
ATOM     44  O   UNL     1     111.932 129.816 139.334  0.00  0.00    +0.000 OA
BRANCH  44  46
ATOM     45  O   UNL     1     111.390 130.899 140.090  0.00  0.00    +0.000 OA
ATOM     46  C   UNL     1     111.521 130.530 139.364  0.00  0.00    +0.000 C 
BRANCH  46  47
ATOM     47  C   UNL     1     111.242 130.876 138.669  0.00  0.00    +0.000 C 
ATOM     48  C   UNL     1     110.724 131.516 138.706  0.00  0.00    +0.000 C 
BRANCH  48  51
ATOM     49  O   UNL     1     108.541 132.276 137.025  0.00  0.00    +0.000 OA
ATOM     50  O   UNL     1     109.603 132.899 135.927  0.00  0.00    +0.000 OA
ATOM     51  C   UNL     1     110.444 131.862 138.011  0.00  0.00    +0.000 A 
ATOM     52  C   UNL     1     109.633 131.896 137.865  0.00  0.00    +0.000 A 
ATOM     53  C   UNL     1     110.975 132.173 137.462  0.00  0.00    +0.000 A 
ATOM     54  C   UNL     1     109.352 132.242 137.171  0.00  0.00    +0.000 A 
ATOM     55  C   UNL     1     110.695 132.519 136.768  0.00  0.00    +0.000 A 
ATOM     56  C   UNL     1     109.884 132.553 136.622  0.00  0.00    +0.000 A 
ENDBRANCH  48  51
ENDBRANCH  46  47
ENDBRANCH  44  46
ENDBRANCH  43  44
ENDBRANCH  42  43
ENDBRANCH  33  40
ENDBRANCH  32  33
ENDBRANCH   5  32
TORSDOF 11
ENDMDL
MODEL 9
REMARK VINA RESULT:     -10.5      1.574      5.130
REMARK  Name = 44258007
REMARK  11 active torsions:
REMARK  status: ('A' for Active; 'I' for Inactive)
REMARK    1  A    between atoms: O_3  and  C_26
REMARK    2  A    between atoms: O_3  and  C_30
REMARK    3  A    between atoms: O_6  and  C_31
REMARK    4  A    between atoms: O_6  and  C_33
REMARK    5  A    between atoms: O_11  and  C_32
REMARK    6  A    between atoms: O_11  and  C_36
REMARK    7  A    between atoms: C_21  and  C_30
REMARK    8  A    between atoms: C_29  and  C_32
REMARK    9  A    between atoms: C_34  and  C_38
REMARK   10  A    between atoms: C_36  and  C_41
REMARK   11  A    between atoms: C_48  and  C_51
REMARK                            x       y       z     vdW  Elec       q    Type
REMARK                         _______ _______ _______ _____ _____    ______ ____
ROOT
ATOM      1  O   UNL     1     111.638 130.641 138.777  0.00  0.00    +0.000 OA
ATOM      2  O   UNL     1     110.669 132.073 137.443  0.00  0.00    +0.000 OA
ATOM      3  O   UNL     1     109.950 132.448 138.879  0.00  0.00    +0.000 OA
ATOM      4  O   UNL     1     110.356 131.619 140.247  0.00  0.00    +0.000 OA
ATOM      5  C   UNL     1     111.435 131.056 138.093  0.00  0.00    +0.000 C 
ATOM      6  C   UNL     1     110.872 131.658 138.127  0.00  0.00    +0.000 C 
ATOM      7  C   UNL     1     110.513 131.846 138.846  0.00  0.00    +0.000 C 
ATOM      8  C   UNL     1     110.716 131.431 139.530  0.00  0.00    +0.000 C 
ATOM      9  C   UNL     1     111.278 130.830 139.495  0.00  0.00    +0.000 C 
ENDROOT
BRANCH   9  10
ATOM     10  O   UNL     1     111.481 130.415 140.179  0.00  0.00    +0.000 OA
BRANCH  10  15
ATOM     11  O   UNL     1     112.529 128.508 140.346  0.00  0.00    +0.000 OA
ATOM     12  O   UNL     1     110.332 129.377 139.609  0.00  0.00    +0.000 OA
ATOM     13  O   UNL     1     109.886 128.046 139.274  0.00  0.00    +0.000 OA
ATOM     14  O   UNL     1     111.697 125.794 139.692  0.00  0.00    +0.000 OA
ATOM     15  C   UNL     1     111.639 129.606 140.140  0.00  0.00    +0.000 A 
ATOM     16  C   UNL     1     112.372 129.316 140.385  0.00  0.00    +0.000 A 
ATOM     17  C   UNL     1     111.065 129.088 139.855  0.00  0.00    +0.000 A 
ATOM     18  C   UNL     1     111.223 128.278 139.816  0.00  0.00    +0.000 A 
ATOM     19  C   UNL     1     111.955 127.988 140.062  0.00  0.00    +0.000 A 
ATOM     20  C   UNL     1     110.616 127.748 139.518  0.00  0.00    +0.000 A 
ATOM     21  C   UNL     1     112.131 127.148 140.026  0.00  0.00    +0.000 A 
ATOM     22  C   UNL     1     110.774 126.904 139.474  0.00  0.00    +0.000 A 
ATOM     23  C   UNL     1     111.537 126.602 139.730  0.00  0.00    +0.000 A 
BRANCH  16  26
ATOM     24  O   UNL     1     114.849 130.698 140.036  0.00  0.00    +0.000 OA
ATOM     25  O   UNL     1     114.670 131.394 141.522  0.00  0.00    +0.000 OA
ATOM     26  C   UNL     1     112.946 129.836 140.670  0.00  0.00    +0.000 A 
ATOM     27  C   UNL     1     113.610 130.007 140.212  0.00  0.00    +0.000 A 
ATOM     28  C   UNL     1     112.857 130.184 141.412  0.00  0.00    +0.000 A 
ATOM     29  C   UNL     1     114.185 130.526 140.495  0.00  0.00    +0.000 A 
ATOM     30  C   UNL     1     113.431 130.703 141.696  0.00  0.00    +0.000 A 
ATOM     31  C   UNL     1     114.095 130.874 141.237  0.00  0.00    +0.000 A 
ENDBRANCH  16  26
ENDBRANCH  10  15
ENDBRANCH   9  10
BRANCH   5  32
ATOM     32  C   UNL     1     111.794 130.868 137.374  0.00  0.00    +0.000 C 
BRANCH  32  33
ATOM     33  O   UNL     1     112.615 130.907 137.301  0.00  0.00    +0.000 OA
BRANCH  33  40
ATOM     34  O   UNL     1     112.667 129.757 136.453  0.00  0.00    +0.000 OA
ATOM     35  O   UNL     1     114.044 131.437 136.668  0.00  0.00    +0.000 OA
ATOM     36  O   UNL     1     114.809 130.553 135.504  0.00  0.00    +0.000 OA
ATOM     37  O   UNL     1     114.147 129.138 134.973  0.00  0.00    +0.000 OA
ATOM     38  C   UNL     1     113.712 130.729 136.402  0.00  0.00    +0.000 C 
ATOM     39  C   UNL     1     114.095 130.288 135.820  0.00  0.00    +0.000 C 
ATOM     40  C   UNL     1     112.998 130.464 136.718  0.00  0.00    +0.000 C 
ATOM     41  C   UNL     1     113.763 129.580 135.555  0.00  0.00    +0.000 C 
ATOM     42  C   UNL     1     113.049 129.315 135.871  0.00  0.00    +0.000 C 
BRANCH  42  43
ATOM     43  C   UNL     1     112.718 128.608 135.605  0.00  0.00    +0.000 C 
BRANCH  43  44
ATOM     44  O   UNL     1     112.461 128.042 136.148  0.00  0.00    +0.000 OA
BRANCH  44  46
ATOM     45  O   UNL     1     111.498 127.465 135.265  0.00  0.00    +0.000 OA
ATOM     46  C   UNL     1     112.031 127.388 135.891  0.00  0.00    +0.000 C 
BRANCH  46  47
ATOM     47  C   UNL     1     112.132 126.656 136.258  0.00  0.00    +0.000 C 
ATOM     48  C   UNL     1     112.024 125.960 135.829  0.00  0.00    +0.000 C 
BRANCH  48  51
ATOM     49  O   UNL     1     113.728 124.024 137.058  0.00  0.00    +0.000 OA
ATOM     50  O   UNL     1     112.431 123.033 137.297  0.00  0.00    +0.000 OA
ATOM     51  C   UNL     1     112.125 125.228 136.196  0.00  0.00    +0.000 A 
ATOM     52  C   UNL     1     112.875 124.992 136.443  0.00  0.00    +0.000 A 
ATOM     53  C   UNL     1     111.477 124.733 136.315  0.00  0.00    +0.000 A 
ATOM     54  C   UNL     1     112.978 124.260 136.810  0.00  0.00    +0.000 A 
ATOM     55  C   UNL     1     111.578 124.002 136.681  0.00  0.00    +0.000 A 
ATOM     56  C   UNL     1     112.329 123.765 136.929  0.00  0.00    +0.000 A 
ENDBRANCH  48  51
ENDBRANCH  46  47
ENDBRANCH  44  46
ENDBRANCH  43  44
ENDBRANCH  42  43
ENDBRANCH  33  40
ENDBRANCH  32  33
ENDBRANCH   5  32
TORSDOF 11
ENDMDL
MODEL 10
REMARK VINA RESULT:     -10.5      1.056      2.772
REMARK  Name = 44258007
REMARK  11 active torsions:
REMARK  status: ('A' for Active; 'I' for Inactive)
REMARK    1  A    between atoms: O_3  and  C_26
REMARK    2  A    between atoms: O_3  and  C_30
REMARK    3  A    between atoms: O_6  and  C_31
REMARK    4  A    between atoms: O_6  and  C_33
REMARK    5  A    between atoms: O_11  and  C_32
REMARK    6  A    between atoms: O_11  and  C_36
REMARK    7  A    between atoms: C_21  and  C_30
REMARK    8  A    between atoms: C_29  and  C_32
REMARK    9  A    between atoms: C_34  and  C_38
REMARK   10  A    between atoms: C_36  and  C_41
REMARK   11  A    between atoms: C_48  and  C_51
REMARK                            x       y       z     vdW  Elec       q    Type
REMARK                         _______ _______ _______ _____ _____    ______ ____
ROOT
ATOM      1  O   UNL     1     109.898 129.210 137.341  0.00  0.00    +0.000 OA
ATOM      2  O   UNL     1     108.678 127.814 136.187  0.00  0.00    +0.000 OA
ATOM      3  O   UNL     1     108.084 129.259 135.657  0.00  0.00    +0.000 OA
ATOM      4  O   UNL     1     108.699 130.671 136.249  0.00  0.00    +0.000 OA
ATOM      5  C   UNL     1     109.590 128.504 137.045  0.00  0.00    +0.000 C 
ATOM      6  C   UNL     1     108.985 128.520 136.483  0.00  0.00    +0.000 C 
ATOM      7  C   UNL     1     108.689 129.243 136.218  0.00  0.00    +0.000 C 
ATOM      8  C   UNL     1     108.996 129.949 136.514  0.00  0.00    +0.000 C 
ATOM      9  C   UNL     1     109.600 129.932 137.075  0.00  0.00    +0.000 C 
ENDROOT
BRANCH   9  10
ATOM     10  O   UNL     1     109.908 130.638 137.371  0.00  0.00    +0.000 OA
BRANCH  10  15
ATOM     11  O   UNL     1     110.862 131.046 139.291  0.00  0.00    +0.000 OA
ATOM     12  O   UNL     1     108.646 130.389 138.405  0.00  0.00    +0.000 OA
ATOM     13  O   UNL     1     108.093 130.351 139.738  0.00  0.00    +0.000 OA
ATOM     14  O   UNL     1     109.814 130.991 142.009  0.00  0.00    +0.000 OA
ATOM     15  C   UNL     1     110.016 130.733 138.184  0.00  0.00    +0.000 A 
ATOM     16  C   UNL     1     110.754 130.952 138.479  0.00  0.00    +0.000 A 
ATOM     17  C   UNL     1     109.385 130.608 138.700  0.00  0.00    +0.000 A 
ATOM     18  C   UNL     1     109.493 130.703 139.513  0.00  0.00    +0.000 A 
ATOM     19  C   UNL     1     110.231 130.922 139.809  0.00  0.00    +0.000 A 
ATOM     20  C   UNL     1     108.829 130.570 140.041  0.00  0.00    +0.000 A 
ATOM     21  C   UNL     1     110.357 131.024 140.652  0.00  0.00    +0.000 A 
ATOM     22  C   UNL     1     108.934 130.667 140.889  0.00  0.00    +0.000 A 
ATOM     23  C   UNL     1     109.703 130.895 141.197  0.00  0.00    +0.000 A 
BRANCH  16  26
ATOM     24  O   UNL     1     113.218 130.077 137.326  0.00  0.00    +0.000 OA
ATOM     25  O   UNL     1     113.276 131.447 136.409  0.00  0.00    +0.000 OA
ATOM     26  C   UNL     1     111.385 131.076 137.961  0.00  0.00    +0.000 A 
ATOM     27  C   UNL     1     111.986 130.515 137.902  0.00  0.00    +0.000 A 
ATOM     28  C   UNL     1     111.414 131.761 137.503  0.00  0.00    +0.000 A 
ATOM     29  C   UNL     1     112.617 130.638 137.385  0.00  0.00    +0.000 A 
ATOM     30  C   UNL     1     112.044 131.885 136.986  0.00  0.00    +0.000 A 
ATOM     31  C   UNL     1     112.645 131.324 136.927  0.00  0.00    +0.000 A 
ENDBRANCH  16  26
ENDBRANCH  10  15
ENDBRANCH   9  10
BRANCH   5  32
ATOM     32  C   UNL     1     109.887 127.781 137.309  0.00  0.00    +0.000 C 
BRANCH  32  33
ATOM     33  O   UNL     1     110.634 127.528 137.069  0.00  0.00    +0.000 OA
BRANCH  33  40
ATOM     34  O   UNL     1     111.333 127.172 138.263  0.00  0.00    +0.000 OA
ATOM     35  O   UNL     1     110.878 126.009 136.473  0.00  0.00    +0.000 OA
ATOM     36  O   UNL     1     111.699 124.893 137.369  0.00  0.00    +0.000 OA
ATOM     37  O   UNL     1     112.276 125.296 138.862  0.00  0.00    +0.000 OA
ATOM     38  C   UNL     1     111.166 126.211 137.220  0.00  0.00    +0.000 C 
ATOM     39  C   UNL     1     111.577 125.652 137.667  0.00  0.00    +0.000 C 
ATOM     40  C   UNL     1     111.045 126.970 137.517  0.00  0.00    +0.000 C 
ATOM     41  C   UNL     1     111.865 125.854 138.414  0.00  0.00    +0.000 C 
ATOM     42  C   UNL     1     111.743 126.614 138.712  0.00  0.00    +0.000 C 
BRANCH  42  43
ATOM     43  C   UNL     1     112.032 126.815 139.457  0.00  0.00    +0.000 C 
BRANCH  43  44
ATOM     44  O   UNL     1     112.024 127.602 139.705  0.00  0.00    +0.000 OA
BRANCH  44  46
ATOM     45  O   UNL     1     112.413 127.392 141.063  0.00  0.00    +0.000 OA
ATOM     46  C   UNL     1     112.460 127.832 140.366  0.00  0.00    +0.000 C 
BRANCH  46  47
ATOM     47  C   UNL     1     112.943 128.500 140.332  0.00  0.00    +0.000 C 
ATOM     48  C   UNL     1     113.253 128.821 141.025  0.00  0.00    +0.000 C 
BRANCH  48  51
ATOM     49  O   UNL     1     113.799 131.520 141.789  0.00  0.00    +0.000 OA
ATOM     50  O   UNL     1     115.183 131.495 140.890  0.00  0.00    +0.000 OA
ATOM     51  C   UNL     1     113.736 129.489 140.991  0.00  0.00    +0.000 A 
ATOM     52  C   UNL     1     113.527 130.170 141.406  0.00  0.00    +0.000 A 
ATOM     53  C   UNL     1     114.427 129.477 140.541  0.00  0.00    +0.000 A 
ATOM     54  C   UNL     1     114.009 130.839 141.373  0.00  0.00    +0.000 A 
ATOM     55  C   UNL     1     114.909 130.145 140.508  0.00  0.00    +0.000 A 
ATOM     56  C   UNL     1     114.700 130.826 140.923  0.00  0.00    +0.000 A 
ENDBRANCH  48  51
ENDBRANCH  46  47
ENDBRANCH  44  46
ENDBRANCH  43  44
ENDBRANCH  42  43
ENDBRANCH  33  40
ENDBRANCH  32  33
ENDBRANCH   5  32
TORSDOF 11
ENDMDL
