MODEL 1
REMARK VINA RESULT:      -8.7      0.000      0.000
REMARK  Name = 5321859
REMARK  3 active torsions:
REMARK  status: ('A' for Active; 'I' for Inactive)
REMARK    1  A    between atoms: O_2  and  C_11
REMARK    2  A    between atoms: O_3  and  C_15
REMARK    3  A    between atoms: C_12  and  C_18
REMARK                            x       y       z     vdW  Elec       q    Type
REMARK                         _______ _______ _______ _____ _____    ______ ____
ROOT
ATOM      1  O   UNL     1     104.654 124.167 146.789  0.00  0.00    +0.000 OA
ATOM      2  O   UNL     1     101.941 124.966 147.404  0.00  0.00    +0.000 OA
ATOM      3  O   UNL     1     102.413 122.739 145.676  0.00  0.00    +0.000 OA
ATOM      4  O   UNL     1     103.037 125.707 147.982  0.00  0.00    +0.000 OA
ATOM      5  C   UNL     1     103.280 124.570 147.100  0.00  0.00    +0.000 A 
ATOM      6  C   UNL     1     103.805 124.066 146.709  0.00  0.00    +0.000 A 
ATOM      7  C   UNL     1     103.515 123.456 146.235  0.00  0.00    +0.000 A 
ATOM      8  C   UNL     1     104.962 124.800 147.282  0.00  0.00    +0.000 A 
ATOM      9  C   UNL     1     102.466 124.463 147.014  0.00  0.00    +0.000 A 
ATOM     10  C   UNL     1     103.568 125.208 147.596  0.00  0.00    +0.000 A 
ATOM     11  C   UNL     1     102.177 123.853 146.540  0.00  0.00    +0.000 A 
ATOM     12  C   UNL     1     102.702 123.349 146.150  0.00  0.00    +0.000 A 
ATOM     13  C   UNL     1     104.415 125.325 147.689  0.00  0.00    +0.000 A 
ENDROOT
BRANCH   8  16
ATOM     14  O   UNL     1     107.453 125.742 146.248  0.00  0.00    +0.000 OA
ATOM     15  O   UNL     1     108.218 125.218 147.613  0.00  0.00    +0.000 OA
ATOM     16  C   UNL     1     105.776 124.905 147.365  0.00  0.00    +0.000 A 
ATOM     17  C   UNL     1     106.208 125.271 146.766  0.00  0.00    +0.000 A 
ATOM     18  C   UNL     1     106.158 124.643 148.048  0.00  0.00    +0.000 A 
ATOM     19  C   UNL     1     107.021 125.376 146.848  0.00  0.00    +0.000 A 
ATOM     20  C   UNL     1     106.973 124.747 148.130  0.00  0.00    +0.000 A 
ATOM     21  C   UNL     1     107.404 125.114 147.531  0.00  0.00    +0.000 A 
ENDBRANCH   8  16
BRANCH   7  22
ATOM     22  O   UNL     1     104.040 122.953 145.845  0.00  0.00    +0.000 OA
ATOM     23  C   UNL     1     103.998 122.867 145.026  0.00  0.00    +0.000 C 
ENDBRANCH   7  22
BRANCH  11  24
ATOM     24  O   UNL     1     101.363 123.746 146.455  0.00  0.00    +0.000 OA
ATOM     25  C   UNL     1     100.961 123.227 146.954  0.00  0.00    +0.000 C 
ENDBRANCH  11  24
TORSDOF 3
ENDMDL
MODEL 2
REMARK VINA RESULT:      -8.2      1.009      4.623
REMARK  Name = 5321859
REMARK  3 active torsions:
REMARK  status: ('A' for Active; 'I' for Inactive)
REMARK    1  A    between atoms: O_2  and  C_11
REMARK    2  A    between atoms: O_3  and  C_15
REMARK    3  A    between atoms: C_12  and  C_18
REMARK                            x       y       z     vdW  Elec       q    Type
REMARK                         _______ _______ _______ _____ _____    ______ ____
ROOT
ATOM      1  O   UNL     1     104.652 124.287 147.269  0.00  0.00    +0.000 OA
ATOM      2  O   UNL     1     107.152 125.263 146.186  0.00  0.00    +0.000 OA
ATOM      3  O   UNL     1     106.763 125.179 149.016  0.00  0.00    +0.000 OA
ATOM      4  O   UNL     1     106.119 124.825 145.278  0.00  0.00    +0.000 OA
ATOM      5  C   UNL     1     105.919 124.781 146.723  0.00  0.00    +0.000 A 
ATOM      6  C   UNL     1     105.442 124.607 147.374  0.00  0.00    +0.000 A 
ATOM      7  C   UNL     1     105.724 124.739 148.138  0.00  0.00    +0.000 A 
ATOM      8  C   UNL     1     104.353 124.147 146.476  0.00  0.00    +0.000 A 
ATOM      9  C   UNL     1     106.676 125.088 146.837  0.00  0.00    +0.000 A 
ATOM     10  C   UNL     1     105.637 124.648 145.923  0.00  0.00    +0.000 A 
ATOM     11  C   UNL     1     106.957 125.221 147.600  0.00  0.00    +0.000 A 
ATOM     12  C   UNL     1     106.481 125.046 148.252  0.00  0.00    +0.000 A 
ATOM     13  C   UNL     1     104.849 124.329 145.797  0.00  0.00    +0.000 A 
ENDROOT
BRANCH   8  16
ATOM     14  O   UNL     1     101.517 124.426 146.678  0.00  0.00    +0.000 OA
ATOM     15  O   UNL     1     101.322 122.920 146.034  0.00  0.00    +0.000 OA
ATOM     16  C   UNL     1     103.595 123.840 146.365  0.00  0.00    +0.000 A 
ATOM     17  C   UNL     1     102.934 124.286 146.577  0.00  0.00    +0.000 A 
ATOM     18  C   UNL     1     103.498 123.086 146.043  0.00  0.00    +0.000 A 
ATOM     19  C   UNL     1     102.177 123.980 146.467  0.00  0.00    +0.000 A 
ATOM     20  C   UNL     1     102.740 122.780 145.933  0.00  0.00    +0.000 A 
ATOM     21  C   UNL     1     102.080 123.226 146.144  0.00  0.00    +0.000 A 
ENDBRANCH   8  16
BRANCH   7  22
ATOM     22  O   UNL     1     105.248 124.565 148.789  0.00  0.00    +0.000 OA
ATOM     23  C   UNL     1     105.056 125.157 149.330  0.00  0.00    +0.000 C 
ENDBRANCH   7  22
BRANCH  11  24
ATOM     24  O   UNL     1     107.715 125.528 147.714  0.00  0.00    +0.000 OA
ATOM     25  C   UNL     1     108.342 125.024 147.894  0.00  0.00    +0.000 C 
ENDBRANCH  11  24
TORSDOF 3
ENDMDL
MODEL 3
REMARK VINA RESULT:      -8.2      1.172      4.405
REMARK  Name = 5321859
REMARK  3 active torsions:
REMARK  status: ('A' for Active; 'I' for Inactive)
REMARK    1  A    between atoms: O_2  and  C_11
REMARK    2  A    between atoms: O_3  and  C_15
REMARK    3  A    between atoms: C_12  and  C_18
REMARK                            x       y       z     vdW  Elec       q    Type
REMARK                         _______ _______ _______ _____ _____    ______ ____
ROOT
ATOM      1  O   UNL     1     104.319 124.457 145.889  0.00  0.00    +0.000 OA
ATOM      2  O   UNL     1     106.447 125.107 147.740  0.00  0.00    +0.000 OA
ATOM      3  O   UNL     1     106.732 125.731 144.965  0.00  0.00    +0.000 OA
ATOM      4  O   UNL     1     105.254 124.469 148.242  0.00  0.00    +0.000 OA
ATOM      5  C   UNL     1     105.398 124.787 146.825  0.00  0.00    +0.000 A 
ATOM      6  C   UNL     1     105.095 124.784 146.056  0.00  0.00    +0.000 A 
ATOM      7  C   UNL     1     105.540 125.099 145.437  0.00  0.00    +0.000 A 
ATOM      8  C   UNL     1     103.850 124.128 146.530  0.00  0.00    +0.000 A 
ATOM      9  C   UNL     1     106.145 125.104 146.972  0.00  0.00    +0.000 A 
ATOM     10  C   UNL     1     104.944 124.463 147.477  0.00  0.00    +0.000 A 
ATOM     11  C   UNL     1     106.589 125.419 146.353  0.00  0.00    +0.000 A 
ATOM     12  C   UNL     1     106.287 125.416 145.584  0.00  0.00    +0.000 A 
ATOM     13  C   UNL     1     104.165 124.131 147.331  0.00  0.00    +0.000 A 
ENDROOT
BRANCH   8  16
ATOM     14  O   UNL     1     101.004 124.375 146.572  0.00  0.00    +0.000 OA
ATOM     15  O   UNL     1     100.863 122.863 145.928  0.00  0.00    +0.000 OA
ATOM     16  C   UNL     1     103.103 123.811 146.380  0.00  0.00    +0.000 A 
ATOM     17  C   UNL     1     102.427 124.251 146.551  0.00  0.00    +0.000 A 
ATOM     18  C   UNL     1     103.033 123.055 146.058  0.00  0.00    +0.000 A 
ATOM     19  C   UNL     1     101.680 123.935 146.400  0.00  0.00    +0.000 A 
ATOM     20  C   UNL     1     102.285 122.739 145.907  0.00  0.00    +0.000 A 
ATOM     21  C   UNL     1     101.610 123.178 146.078  0.00  0.00    +0.000 A 
ENDBRANCH   8  16
BRANCH   7  22
ATOM     22  O   UNL     1     105.238 125.096 144.669  0.00  0.00    +0.000 OA
ATOM     23  C   UNL     1     105.646 124.709 144.067  0.00  0.00    +0.000 C 
ENDBRANCH   7  22
BRANCH  11  24
ATOM     24  O   UNL     1     107.337 125.736 146.500  0.00  0.00    +0.000 OA
ATOM     25  C   UNL     1     107.413 126.524 146.732  0.00  0.00    +0.000 C 
ENDBRANCH  11  24
TORSDOF 3
ENDMDL
MODEL 4
REMARK VINA RESULT:      -8.1      2.838      3.730
REMARK  Name = 5321859
REMARK  3 active torsions:
REMARK  status: ('A' for Active; 'I' for Inactive)
REMARK    1  A    between atoms: O_2  and  C_11
REMARK    2  A    between atoms: O_3  and  C_15
REMARK    3  A    between atoms: C_12  and  C_18
REMARK                            x       y       z     vdW  Elec       q    Type
REMARK                         _______ _______ _______ _____ _____    ______ ____
ROOT
ATOM      1  O   UNL     1     106.591 125.315 146.269  0.00  0.00    +0.000 OA
ATOM      2  O   UNL     1     106.057 127.803 144.891  0.00  0.00    +0.000 OA
ATOM      3  O   UNL     1     105.485 125.314 143.609  0.00  0.00    +0.000 OA
ATOM      4  O   UNL     1     106.611 127.846 146.223  0.00  0.00    +0.000 OA
ATOM      5  C   UNL     1     106.320 126.574 145.570  0.00  0.00    +0.000 A 
ATOM      6  C   UNL     1     106.312 125.748 145.582  0.00  0.00    +0.000 A 
ATOM      7  C   UNL     1     106.034 125.329 144.928  0.00  0.00    +0.000 A 
ATOM      8  C   UNL     1     106.883 125.746 146.953  0.00  0.00    +0.000 A 
ATOM      9  C   UNL     1     106.049 126.978 144.903  0.00  0.00    +0.000 A 
ATOM     10  C   UNL     1     106.607 127.021 146.244  0.00  0.00    +0.000 A 
ATOM     11  C   UNL     1     105.771 126.559 144.250  0.00  0.00    +0.000 A 
ATOM     12  C   UNL     1     105.764 125.733 144.263  0.00  0.00    +0.000 A 
ATOM     13  C   UNL     1     106.890 126.606 146.940  0.00  0.00    +0.000 A 
ENDROOT
BRANCH   8  16
ATOM     14  O   UNL     1     106.347 124.388 149.409  0.00  0.00    +0.000 OA
ATOM     15  O   UNL     1     107.961 124.116 149.612  0.00  0.00    +0.000 OA
ATOM     16  C   UNL     1     107.153 125.339 147.618  0.00  0.00    +0.000 A 
ATOM     17  C   UNL     1     106.615 125.067 148.182  0.00  0.00    +0.000 A 
ATOM     18  C   UNL     1     107.960 125.203 147.719  0.00  0.00    +0.000 A 
ATOM     19  C   UNL     1     106.884 124.660 148.846  0.00  0.00    +0.000 A 
ATOM     20  C   UNL     1     108.230 124.795 148.384  0.00  0.00    +0.000 A 
ATOM     21  C   UNL     1     107.693 124.524 148.947  0.00  0.00    +0.000 A 
ENDBRANCH   8  16
BRANCH   7  22
ATOM     22  O   UNL     1     106.026 124.504 144.941  0.00  0.00    +0.000 OA
ATOM     23  C   UNL     1     105.315 124.097 144.851  0.00  0.00    +0.000 C 
ENDBRANCH   7  22
BRANCH  11  24
ATOM     24  O   UNL     1     105.500 126.963 143.584  0.00  0.00    +0.000 OA
ATOM     25  C   UNL     1     106.013 127.115 142.956  0.00  0.00    +0.000 C 
ENDBRANCH  11  24
TORSDOF 3
ENDMDL
MODEL 5
REMARK VINA RESULT:      -8.1     11.830     13.002
REMARK  Name = 5321859
REMARK  3 active torsions:
REMARK  status: ('A' for Active; 'I' for Inactive)
REMARK    1  A    between atoms: O_2  and  C_11
REMARK    2  A    between atoms: O_3  and  C_15
REMARK    3  A    between atoms: C_12  and  C_18
REMARK                            x       y       z     vdW  Elec       q    Type
REMARK                         _______ _______ _______ _____ _____    ______ ____
ROOT
ATOM      1  O   UNL     1     110.592 127.257 136.038  0.00  0.00    +0.000 OA
ATOM      2  O   UNL     1     108.024 128.554 135.722  0.00  0.00    +0.000 OA
ATOM      3  O   UNL     1     110.430 130.032 135.283  0.00  0.00    +0.000 OA
ATOM      4  O   UNL     1     108.063 127.162 136.102  0.00  0.00    +0.000 OA
ATOM      5  C   UNL     1     109.292 127.915 135.877  0.00  0.00    +0.000 A 
ATOM      6  C   UNL     1     110.117 127.949 135.856  0.00  0.00    +0.000 A 
ATOM      7  C   UNL     1     110.496 128.655 135.658  0.00  0.00    +0.000 A 
ATOM      8  C   UNL     1     110.203 126.519 136.245  0.00  0.00    +0.000 A 
ATOM      9  C   UNL     1     108.848 128.588 135.701  0.00  0.00    +0.000 A 
ATOM     10  C   UNL     1     108.887 127.187 136.082  0.00  0.00    +0.000 A 
ATOM     11  C   UNL     1     109.226 129.293 135.502  0.00  0.00    +0.000 A 
ATOM     12  C   UNL     1     110.051 129.326 135.481  0.00  0.00    +0.000 A 
ATOM     13  C   UNL     1     109.344 126.483 136.268  0.00  0.00    +0.000 A 
ENDROOT
BRANCH   8  16
ATOM     14  O   UNL     1     111.527 124.861 138.159  0.00  0.00    +0.000 OA
ATOM     15  O   UNL     1     111.993 123.838 136.952  0.00  0.00    +0.000 OA
ATOM     16  C   UNL     1     110.651 125.848 136.422  0.00  0.00    +0.000 A 
ATOM     17  C   UNL     1     110.865 125.689 137.202  0.00  0.00    +0.000 A 
ATOM     18  C   UNL     1     110.884 125.337 135.817  0.00  0.00    +0.000 A 
ATOM     19  C   UNL     1     111.312 125.020 137.379  0.00  0.00    +0.000 A 
ATOM     20  C   UNL     1     111.332 124.667 135.995  0.00  0.00    +0.000 A 
ATOM     21  C   UNL     1     111.546 124.508 136.774  0.00  0.00    +0.000 A 
ENDBRANCH   8  16
BRANCH   7  22
ATOM     22  O   UNL     1     111.320 128.689 135.636  0.00  0.00    +0.000 OA
ATOM     23  C   UNL     1     111.706 128.885 134.935  0.00  0.00    +0.000 C 
ENDBRANCH   7  22
BRANCH  11  24
ATOM     24  O   UNL     1     108.781 129.965 135.326  0.00  0.00    +0.000 OA
ATOM     25  C   UNL     1     108.576 130.493 135.924  0.00  0.00    +0.000 C 
ENDBRANCH  11  24
TORSDOF 3
ENDMDL
MODEL 6
REMARK VINA RESULT:      -8.0      6.223      8.369
REMARK  Name = 5321859
REMARK  3 active torsions:
REMARK  status: ('A' for Active; 'I' for Inactive)
REMARK    1  A    between atoms: O_2  and  C_11
REMARK    2  A    between atoms: O_3  and  C_15
REMARK    3  A    between atoms: C_12  and  C_18
REMARK                            x       y       z     vdW  Elec       q    Type
REMARK                         _______ _______ _______ _____ _____    ______ ____
ROOT
ATOM      1  O   UNL     1     104.688 123.927 139.502  0.00  0.00    +0.000 OA
ATOM      2  O   UNL     1     105.443 126.319 140.948  0.00  0.00    +0.000 OA
ATOM      3  O   UNL     1     106.684 123.823 141.578  0.00  0.00    +0.000 OA
ATOM      4  O   UNL     1     104.439 126.413 139.915  0.00  0.00    +0.000 OA
ATOM      5  C   UNL     1     105.072 125.137 140.235  0.00  0.00    +0.000 A 
ATOM      6  C   UNL     1     105.155 124.326 140.103  0.00  0.00    +0.000 A 
ATOM      7  C   UNL     1     105.692 123.889 140.551  0.00  0.00    +0.000 A 
ATOM      8  C   UNL     1     104.126 124.378 139.033  0.00  0.00    +0.000 A 
ATOM      9  C   UNL     1     105.526 125.509 140.815  0.00  0.00    +0.000 A 
ATOM     10  C   UNL     1     104.516 125.604 139.776  0.00  0.00    +0.000 A 
ATOM     11  C   UNL     1     106.063 125.071 141.262  0.00  0.00    +0.000 A 
ATOM     12  C   UNL     1     106.146 124.260 141.130  0.00  0.00    +0.000 A 
ATOM     13  C   UNL     1     104.040 125.223 139.171  0.00  0.00    +0.000 A 
ENDROOT
BRANCH   8  16
ATOM     14  O   UNL     1     101.611 123.369 138.128  0.00  0.00    +0.000 OA
ATOM     15  O   UNL     1     102.314 122.881 136.717  0.00  0.00    +0.000 OA
ATOM     16  C   UNL     1     103.674 124.004 138.454  0.00  0.00    +0.000 A 
ATOM     17  C   UNL     1     102.869 123.873 138.580  0.00  0.00    +0.000 A 
ATOM     18  C   UNL     1     104.026 123.760 137.748  0.00  0.00    +0.000 A 
ATOM     19  C   UNL     1     102.416 123.499 138.002  0.00  0.00    +0.000 A 
ATOM     20  C   UNL     1     103.572 123.385 137.169  0.00  0.00    +0.000 A 
ATOM     21  C   UNL     1     102.768 123.255 137.295  0.00  0.00    +0.000 A 
ENDBRANCH   8  16
BRANCH   7  22
ATOM     22  O   UNL     1     105.775 123.079 140.418  0.00  0.00    +0.000 OA
ATOM     23  C   UNL     1     106.526 122.739 140.399  0.00  0.00    +0.000 C 
ENDBRANCH   7  22
BRANCH  11  24
ATOM     24  O   UNL     1     106.517 125.443 141.842  0.00  0.00    +0.000 OA
ATOM     25  C   UNL     1     106.233 125.504 142.614  0.00  0.00    +0.000 C 
ENDBRANCH  11  24
TORSDOF 3
ENDMDL
MODEL 7
REMARK VINA RESULT:      -8.0      0.653      1.882
REMARK  Name = 5321859
REMARK  3 active torsions:
REMARK  status: ('A' for Active; 'I' for Inactive)
REMARK    1  A    between atoms: O_2  and  C_11
REMARK    2  A    between atoms: O_3  and  C_15
REMARK    3  A    between atoms: C_12  and  C_18
REMARK                            x       y       z     vdW  Elec       q    Type
REMARK                         _______ _______ _______ _____ _____    ______ ____
ROOT
ATOM      1  O   UNL     1     104.241 124.914 147.366  0.00  0.00    +0.000 OA
ATOM      2  O   UNL     1     102.282 123.492 145.778  0.00  0.00    +0.000 OA
ATOM      3  O   UNL     1     101.446 124.997 148.059  0.00  0.00    +0.000 OA
ATOM      4  O   UNL     1     103.673 123.426 145.398  0.00  0.00    +0.000 OA
ATOM      5  C   UNL     1     103.247 124.195 146.563  0.00  0.00    +0.000 A 
ATOM      6  C   UNL     1     103.430 124.680 147.206  0.00  0.00    +0.000 A 
ATOM      7  C   UNL     1     102.829 124.947 147.704  0.00  0.00    +0.000 A 
ATOM      8  C   UNL     1     104.871 124.638 146.850  0.00  0.00    +0.000 A 
ATOM      9  C   UNL     1     102.464 123.977 146.420  0.00  0.00    +0.000 A 
ATOM     10  C   UNL     1     103.864 123.910 146.038  0.00  0.00    +0.000 A 
ATOM     11  C   UNL     1     101.864 124.245 146.918  0.00  0.00    +0.000 A 
ATOM     12  C   UNL     1     102.047 124.730 147.561  0.00  0.00    +0.000 A 
ATOM     13  C   UNL     1     104.681 124.133 146.181  0.00  0.00    +0.000 A 
ENDROOT
BRANCH   8  16
ATOM     14  O   UNL     1     107.248 126.006 146.047  0.00  0.00    +0.000 OA
ATOM     15  O   UNL     1     107.999 125.515 147.432  0.00  0.00    +0.000 OA
ATOM     16  C   UNL     1     105.653 124.857 146.996  0.00  0.00    +0.000 A 
ATOM     17  C   UNL     1     106.060 125.322 146.449  0.00  0.00    +0.000 A 
ATOM     18  C   UNL     1     106.028 124.612 147.688  0.00  0.00    +0.000 A 
ATOM     19  C   UNL     1     106.841 125.541 146.594  0.00  0.00    +0.000 A 
ATOM     20  C   UNL     1     106.811 124.831 147.834  0.00  0.00    +0.000 A 
ATOM     21  C   UNL     1     107.217 125.295 147.287  0.00  0.00    +0.000 A 
ENDBRANCH   8  16
BRANCH   7  22
ATOM     22  O   UNL     1     103.011 125.432 148.346  0.00  0.00    +0.000 OA
ATOM     23  C   UNL     1     102.689 126.190 148.395  0.00  0.00    +0.000 C 
ENDBRANCH   7  22
BRANCH  11  24
ATOM     24  O   UNL     1     101.081 124.027 146.775  0.00  0.00    +0.000 OA
ATOM     25  C   UNL     1     100.768 123.353 147.131  0.00  0.00    +0.000 C 
ENDBRANCH  11  24
TORSDOF 3
ENDMDL
MODEL 8
REMARK VINA RESULT:      -7.9     11.146     12.996
REMARK  Name = 5321859
REMARK  3 active torsions:
REMARK  status: ('A' for Active; 'I' for Inactive)
REMARK    1  A    between atoms: O_2  and  C_11
REMARK    2  A    between atoms: O_3  and  C_15
REMARK    3  A    between atoms: C_12  and  C_18
REMARK                            x       y       z     vdW  Elec       q    Type
REMARK                         _______ _______ _______ _____ _____    ______ ____
ROOT
ATOM      1  O   UNL     1     110.428 127.036 136.594  0.00  0.00    +0.000 OA
ATOM      2  O   UNL     1     111.148 124.372 135.719  0.00  0.00    +0.000 OA
ATOM      3  O   UNL     1     111.647 125.169 138.418  0.00  0.00    +0.000 OA
ATOM      4  O   UNL     1     110.539 125.278 134.775  0.00  0.00    +0.000 OA
ATOM      5  C   UNL     1     110.793 125.687 136.153  0.00  0.00    +0.000 A 
ATOM      6  C   UNL     1     110.758 126.258 136.748  0.00  0.00    +0.000 A 
ATOM      7  C   UNL     1     111.043 126.085 137.503  0.00  0.00    +0.000 A 
ATOM      8  C   UNL     1     110.130 127.222 135.809  0.00  0.00    +0.000 A 
ATOM      9  C   UNL     1     111.113 124.943 136.314  0.00  0.00    +0.000 A 
ATOM     10  C   UNL     1     110.500 125.854 135.364  0.00  0.00    +0.000 A 
ATOM     11  C   UNL     1     111.397 124.771 137.068  0.00  0.00    +0.000 A 
ATOM     12  C   UNL     1     111.363 125.342 137.663  0.00  0.00    +0.000 A 
ATOM     13  C   UNL     1     110.166 126.627 135.189  0.00  0.00    +0.000 A 
ENDROOT
BRANCH   8  16
ATOM     14  O   UNL     1     107.924 129.037 135.893  0.00  0.00    +0.000 OA
ATOM     15  O   UNL     1     108.852 130.198 135.179  0.00  0.00    +0.000 OA
ATOM     16  C   UNL     1     109.810 127.966 135.651  0.00  0.00    +0.000 A 
ATOM     17  C   UNL     1     109.027 128.130 135.851  0.00  0.00    +0.000 A 
ATOM     18  C   UNL     1     110.275 128.547 135.294  0.00  0.00    +0.000 A 
ATOM     19  C   UNL     1     108.708 128.873 135.693  0.00  0.00    +0.000 A 
ATOM     20  C   UNL     1     109.955 129.291 135.137  0.00  0.00    +0.000 A 
ATOM     21  C   UNL     1     109.172 129.455 135.336  0.00  0.00    +0.000 A 
ENDBRANCH   8  16
BRANCH   7  22
ATOM     22  O   UNL     1     111.008 126.656 138.097  0.00  0.00    +0.000 OA
ATOM     23  C   UNL     1     110.588 126.504 138.790  0.00  0.00    +0.000 C 
ENDBRANCH   7  22
BRANCH  11  24
ATOM     24  O   UNL     1     111.717 124.027 137.229  0.00  0.00    +0.000 OA
ATOM     25  C   UNL     1     112.515 123.880 137.082  0.00  0.00    +0.000 C 
ENDBRANCH  11  24
TORSDOF 3
ENDMDL
MODEL 9
REMARK VINA RESULT:      -7.9      7.796      8.734
REMARK  Name = 5321859
REMARK  3 active torsions:
REMARK  status: ('A' for Active; 'I' for Inactive)
REMARK    1  A    between atoms: O_2  and  C_11
REMARK    2  A    between atoms: O_3  and  C_15
REMARK    3  A    between atoms: C_12  and  C_18
REMARK                            x       y       z     vdW  Elec       q    Type
REMARK                         _______ _______ _______ _____ _____    ______ ____
ROOT
ATOM      1  O   UNL     1     102.981 130.504 142.295  0.00  0.00    +0.000 OA
ATOM      2  O   UNL     1     103.896 128.273 140.695  0.00  0.00    +0.000 OA
ATOM      3  O   UNL     1     104.801 128.558 143.390  0.00  0.00    +0.000 OA
ATOM      4  O   UNL     1     102.984 129.226 140.109  0.00  0.00    +0.000 OA
ATOM      5  C   UNL     1     103.445 129.374 141.486  0.00  0.00    +0.000 A 
ATOM      6  C   UNL     1     103.446 129.789 142.200  0.00  0.00    +0.000 A 
ATOM      7  C   UNL     1     103.898 129.516 142.835  0.00  0.00    +0.000 A 
ATOM      8  C   UNL     1     102.508 130.793 141.637  0.00  0.00    +0.000 A 
ATOM      9  C   UNL     1     103.897 128.687 141.408  0.00  0.00    +0.000 A 
ATOM     10  C   UNL     1     102.979 129.647 140.819  0.00  0.00    +0.000 A 
ATOM     11  C   UNL     1     104.348 128.415 142.042  0.00  0.00    +0.000 A 
ATOM     12  C   UNL     1     104.349 128.830 142.756  0.00  0.00    +0.000 A 
ATOM     13  C   UNL     1     102.508 130.361 140.894  0.00  0.00    +0.000 A 
ENDROOT
BRANCH   8  16
ATOM     14  O   UNL     1     102.265 133.632 141.419  0.00  0.00    +0.000 OA
ATOM     15  O   UNL     1     100.710 133.540 141.963  0.00  0.00    +0.000 OA
ATOM     16  C   UNL     1     102.059 131.480 141.719  0.00  0.00    +0.000 A 
ATOM     17  C   UNL     1     102.386 132.213 141.528  0.00  0.00    +0.000 A 
ATOM     18  C   UNL     1     101.281 131.434 141.991  0.00  0.00    +0.000 A 
ATOM     19  C   UNL     1     101.937 132.899 141.609  0.00  0.00    +0.000 A 
ATOM     20  C   UNL     1     100.832 132.121 142.072  0.00  0.00    +0.000 A 
ATOM     21  C   UNL     1     101.159 132.853 141.882  0.00  0.00    +0.000 A 
ENDBRANCH   8  16
BRANCH   7  22
ATOM     22  O   UNL     1     103.899 129.930 143.548  0.00  0.00    +0.000 OA
ATOM     23  C   UNL     1     104.601 130.252 143.836  0.00  0.00    +0.000 C 
ENDBRANCH   7  22
BRANCH  11  24
ATOM     24  O   UNL     1     104.799 127.729 141.964  0.00  0.00    +0.000 OA
ATOM     25  C   UNL     1     105.598 127.780 141.769  0.00  0.00    +0.000 C 
ENDBRANCH  11  24
TORSDOF 3
ENDMDL
MODEL 10
REMARK VINA RESULT:      -7.9     11.582     13.706
REMARK  Name = 5321859
REMARK  3 active torsions:
REMARK  status: ('A' for Active; 'I' for Inactive)
REMARK    1  A    between atoms: O_2  and  C_11
REMARK    2  A    between atoms: O_3  and  C_15
REMARK    3  A    between atoms: C_12  and  C_18
REMARK                            x       y       z     vdW  Elec       q    Type
REMARK                         _______ _______ _______ _____ _____    ______ ____
ROOT
ATOM      1  O   UNL     1     111.698 126.317 136.345  0.00  0.00    +0.000 OA
ATOM      2  O   UNL     1     113.252 123.878 136.439  0.00  0.00    +0.000 OA
ATOM      3  O   UNL     1     114.539 126.402 136.813  0.00  0.00    +0.000 OA
ATOM      4  O   UNL     1     111.831 123.793 136.203  0.00  0.00    +0.000 OA
ATOM      5  C   UNL     1     112.487 125.083 136.393  0.00  0.00    +0.000 A 
ATOM      6  C   UNL     1     112.446 125.907 136.440  0.00  0.00    +0.000 A 
ATOM      7  C   UNL     1     113.131 126.346 136.580  0.00  0.00    +0.000 A 
ATOM      8  C   UNL     1     110.981 125.865 136.199  0.00  0.00    +0.000 A 
ATOM      9  C   UNL     1     113.212 124.700 136.486  0.00  0.00    +0.000 A 
ATOM     10  C   UNL     1     111.782 124.615 136.248  0.00  0.00    +0.000 A 
ATOM     11  C   UNL     1     113.895 125.139 136.626  0.00  0.00    +0.000 A 
ATOM     12  C   UNL     1     113.855 125.963 136.673  0.00  0.00    +0.000 A 
ATOM     13  C   UNL     1     111.023 125.007 136.150  0.00  0.00    +0.000 A 
ENDROOT
BRANCH   8  16
ATOM     14  O   UNL     1     108.682 127.119 137.341  0.00  0.00    +0.000 OA
ATOM     15  O   UNL     1     108.088 127.408 135.830  0.00  0.00    +0.000 OA
ATOM     16  C   UNL     1     110.258 126.251 136.106  0.00  0.00    +0.000 A 
ATOM     17  C   UNL     1     109.831 126.492 136.770  0.00  0.00    +0.000 A 
ATOM     18  C   UNL     1     109.961 126.395 135.350  0.00  0.00    +0.000 A 
ATOM     19  C   UNL     1     109.109 126.878 136.678  0.00  0.00    +0.000 A 
ATOM     20  C   UNL     1     109.237 126.781 135.258  0.00  0.00    +0.000 A 
ATOM     21  C   UNL     1     108.811 127.022 135.921  0.00  0.00    +0.000 A 
ENDBRANCH   8  16
BRANCH   7  22
ATOM     22  O   UNL     1     113.090 127.168 136.627  0.00  0.00    +0.000 OA
ATOM     23  C   UNL     1     113.536 127.633 136.112  0.00  0.00    +0.000 C 
ENDBRANCH   7  22
BRANCH  11  24
ATOM     24  O   UNL     1     114.621 124.757 136.719  0.00  0.00    +0.000 OA
ATOM     25  C   UNL     1     114.894 124.567 137.473  0.00  0.00    +0.000 C 
ENDBRANCH  11  24
TORSDOF 3
ENDMDL
