MODEL 1
REMARK VINA RESULT:      -8.1      0.000      0.000
REMARK  Name = 42607574
REMARK  9 active torsions:
REMARK  status: ('A' for Active; 'I' for Inactive)
REMARK    1  A    between atoms: O_4  and  C_16
REMARK    2  A    between atoms: O_4  and  C_18
REMARK    3  A    between atoms: O_7  and  C_19
REMARK    4  A    between atoms: O_10  and  C_31
REMARK    5  A    between atoms: O_11  and  C_32
REMARK    6  A    between atoms: C_14  and  C_17
REMARK    7  A    between atoms: C_23  and  C_24
REMARK    8  A    between atoms: C_24  and  C_26
REMARK    9  A    between atoms: C_27  and  C_28
REMARK                            x       y       z     vdW  Elec       q    Type
REMARK                         _______ _______ _______ _____ _____    ______ ____
ROOT
ATOM      1  O   UNL     1     106.382 126.299 143.194  0.00  0.00    +0.000 OA
ATOM      2  C   UNL     1     105.620 125.672 145.141  0.00  0.00    +0.000 A 
ATOM      3  C   UNL     1     105.967 125.643 144.393  0.00  0.00    +0.000 A 
ATOM      4  C   UNL     1     105.342 126.391 145.438  0.00  0.00    +0.000 A 
ATOM      5  C   UNL     1     106.035 126.330 143.942  0.00  0.00    +0.000 A 
ATOM      6  C   UNL     1     105.410 127.078 144.987  0.00  0.00    +0.000 A 
ATOM      7  C   UNL     1     105.757 127.047 144.239  0.00  0.00    +0.000 A 
ENDROOT
BRANCH   3   8
ATOM      8  O   UNL     1     106.246 124.924 144.096  0.00  0.00    +0.000 OA
ATOM      9  C   UNL     1     105.863 124.566 143.460  0.00  0.00    +0.000 C 
ENDBRANCH   3   8
BRANCH   7  11
ATOM     10  O   UNL     1     106.537 128.152 143.775  0.00  0.00    +0.000 OA
ATOM     11  C   UNL     1     105.825 127.734 143.787  0.00  0.00    +0.000 C 
BRANCH  11  12
ATOM     12  C   UNL     1     105.181 128.005 143.347  0.00  0.00    +0.000 C 
ATOM     13  C   UNL     1     105.183 128.772 143.042  0.00  0.00    +0.000 C 
BRANCH  13  14
ATOM     14  C   UNL     1     104.540 129.042 142.603  0.00  0.00    +0.000 A 
ATOM     15  C   UNL     1     104.048 129.630 142.909  0.00  0.00    +0.000 A 
ATOM     16  C   UNL     1     104.387 128.724 141.857  0.00  0.00    +0.000 A 
ATOM     17  C   UNL     1     103.405 129.900 142.469  0.00  0.00    +0.000 A 
ATOM     18  C   UNL     1     103.252 129.582 141.723  0.00  0.00    +0.000 A 
ATOM     19  C   UNL     1     103.743 128.994 141.417  0.00  0.00    +0.000 A 
BRANCH  17  20
ATOM     20  O   UNL     1     102.913 130.488 142.775  0.00  0.00    +0.000 OA
ATOM     21  C   UNL     1     103.112 130.867 143.480  0.00  0.00    +0.000 C 
ENDBRANCH  17  20
BRANCH  18  22
ATOM     22  O   UNL     1     102.608 129.852 141.283  0.00  0.00    +0.000 OA
ATOM     23  C   UNL     1     102.499 129.590 140.508  0.00  0.00    +0.000 C 
ENDBRANCH  18  22
ENDBRANCH  13  14
ENDBRANCH  11  12
ENDBRANCH   7  11
BRANCH   2  24
ATOM     24  O   UNL     1     105.552 124.985 145.592  0.00  0.00    +0.000 OA
BRANCH  24  33
ATOM     25  O   UNL     1     106.554 125.237 146.579  0.00  0.00    +0.000 OA
ATOM     26  O   UNL     1     106.521 124.979 148.746  0.00  0.00    +0.000 OA
ATOM     27  O   UNL     1     105.003 124.473 148.350  0.00  0.00    +0.000 OA
ATOM     28  O   UNL     1     104.518 124.476 146.773  0.00  0.00    +0.000 OA
ATOM     29  C   UNL     1     106.279 124.981 147.957  0.00  0.00    +0.000 C 
ATOM     30  C   UNL     1     105.520 124.728 147.760  0.00  0.00    +0.000 C 
ATOM     31  C   UNL     1     106.797 125.236 147.367  0.00  0.00    +0.000 C 
ATOM     32  C   UNL     1     105.277 124.729 146.970  0.00  0.00    +0.000 C 
ATOM     33  C   UNL     1     105.795 124.984 146.380  0.00  0.00    +0.000 C 
BRANCH  31  35
ATOM     34  O   UNL     1     108.204 125.237 147.122  0.00  0.00    +0.000 OA
ATOM     35  C   UNL     1     107.556 125.489 147.566  0.00  0.00    +0.000 C 
ENDBRANCH  31  35
ENDBRANCH  24  33
ENDBRANCH   2  24
TORSDOF 9
ENDMDL
MODEL 2
REMARK VINA RESULT:      -8.0      1.901      3.527
REMARK  Name = 42607574
REMARK  9 active torsions:
REMARK  status: ('A' for Active; 'I' for Inactive)
REMARK    1  A    between atoms: O_4  and  C_16
REMARK    2  A    between atoms: O_4  and  C_18
REMARK    3  A    between atoms: O_7  and  C_19
REMARK    4  A    between atoms: O_10  and  C_31
REMARK    5  A    between atoms: O_11  and  C_32
REMARK    6  A    between atoms: C_14  and  C_17
REMARK    7  A    between atoms: C_23  and  C_24
REMARK    8  A    between atoms: C_24  and  C_26
REMARK    9  A    between atoms: C_27  and  C_28
REMARK                            x       y       z     vdW  Elec       q    Type
REMARK                         _______ _______ _______ _____ _____    ______ ____
ROOT
ATOM      1  O   UNL     1     107.014 125.062 146.065  0.00  0.00    +0.000 OA
ATOM      2  C   UNL     1     105.042 125.204 146.991  0.00  0.00    +0.000 A 
ATOM      3  C   UNL     1     105.820 124.972 146.846  0.00  0.00    +0.000 A 
ATOM      4  C   UNL     1     104.679 125.760 146.501  0.00  0.00    +0.000 A 
ATOM      5  C   UNL     1     106.235 125.295 146.210  0.00  0.00    +0.000 A 
ATOM      6  C   UNL     1     105.094 126.083 145.865  0.00  0.00    +0.000 A 
ATOM      7  C   UNL     1     105.872 125.850 145.720  0.00  0.00    +0.000 A 
ENDROOT
BRANCH   3   8
ATOM      8  O   UNL     1     106.183 124.416 147.336  0.00  0.00    +0.000 OA
ATOM      9  C   UNL     1     106.730 124.662 147.903  0.00  0.00    +0.000 C 
ENDBRANCH   3   8
BRANCH   7  11
ATOM     10  O   UNL     1     106.946 126.651 145.222  0.00  0.00    +0.000 OA
ATOM     11  C   UNL     1     106.288 126.173 145.085  0.00  0.00    +0.000 C 
BRANCH  11  12
ATOM     12  C   UNL     1     106.045 126.018 144.311  0.00  0.00    +0.000 C 
ATOM     13  C   UNL     1     106.384 126.430 143.682  0.00  0.00    +0.000 C 
BRANCH  13  14
ATOM     14  C   UNL     1     106.141 126.274 142.909  0.00  0.00    +0.000 A 
ATOM     15  C   UNL     1     105.713 126.841 142.489  0.00  0.00    +0.000 A 
ATOM     16  C   UNL     1     106.326 125.552 142.556  0.00  0.00    +0.000 A 
ATOM     17  C   UNL     1     105.470 126.686 141.717  0.00  0.00    +0.000 A 
ATOM     18  C   UNL     1     105.655 125.963 141.363  0.00  0.00    +0.000 A 
ATOM     19  C   UNL     1     106.083 125.396 141.783  0.00  0.00    +0.000 A 
BRANCH  17  20
ATOM     20  O   UNL     1     105.042 127.252 141.296  0.00  0.00    +0.000 OA
ATOM     21  C   UNL     1     104.819 127.956 141.662  0.00  0.00    +0.000 C 
ENDBRANCH  17  20
BRANCH  18  22
ATOM     22  O   UNL     1     105.412 125.807 140.590  0.00  0.00    +0.000 OA
ATOM     23  C   UNL     1     105.472 125.043 140.285  0.00  0.00    +0.000 C 
ENDBRANCH  18  22
ENDBRANCH  13  14
ENDBRANCH  11  12
ENDBRANCH   7  11
BRANCH   2  24
ATOM     24  O   UNL     1     104.627 124.881 147.627  0.00  0.00    +0.000 OA
BRANCH  24  33
ATOM     25  O   UNL     1     103.696 124.061 146.918  0.00  0.00    +0.000 OA
ATOM     26  O   UNL     1     101.551 123.769 147.194  0.00  0.00    +0.000 OA
ATOM     27  O   UNL     1     101.874 124.853 148.395  0.00  0.00    +0.000 OA
ATOM     28  O   UNL     1     103.413 125.409 148.611  0.00  0.00    +0.000 OA
ATOM     29  C   UNL     1     102.320 124.047 147.302  0.00  0.00    +0.000 C 
ATOM     30  C   UNL     1     102.481 124.589 147.902  0.00  0.00    +0.000 C 
ATOM     31  C   UNL     1     102.927 123.783 146.809  0.00  0.00    +0.000 C 
ATOM     32  C   UNL     1     103.251 124.867 148.011  0.00  0.00    +0.000 C 
ATOM     33  C   UNL     1     103.858 124.603 147.518  0.00  0.00    +0.000 C 
BRANCH  31  35
ATOM     34  O   UNL     1     103.360 122.740 145.934  0.00  0.00    +0.000 OA
ATOM     35  C   UNL     1     102.765 123.242 146.209  0.00  0.00    +0.000 C 
ENDBRANCH  31  35
ENDBRANCH  24  33
ENDBRANCH   2  24
TORSDOF 9
ENDMDL
MODEL 3
REMARK VINA RESULT:      -7.9      7.924      9.973
REMARK  Name = 42607574
REMARK  9 active torsions:
REMARK  status: ('A' for Active; 'I' for Inactive)
REMARK    1  A    between atoms: O_4  and  C_16
REMARK    2  A    between atoms: O_4  and  C_18
REMARK    3  A    between atoms: O_7  and  C_19
REMARK    4  A    between atoms: O_10  and  C_31
REMARK    5  A    between atoms: O_11  and  C_32
REMARK    6  A    between atoms: C_14  and  C_17
REMARK    7  A    between atoms: C_23  and  C_24
REMARK    8  A    between atoms: C_24  and  C_26
REMARK    9  A    between atoms: C_27  and  C_28
REMARK                            x       y       z     vdW  Elec       q    Type
REMARK                         _______ _______ _______ _____ _____    ______ ____
ROOT
ATOM      1  O   UNL     1     111.564 126.200 140.788  0.00  0.00    +0.000 OA
ATOM      2  C   UNL     1     111.100 126.259 138.656  0.00  0.00    +0.000 A 
ATOM      3  C   UNL     1     111.051 126.081 139.460  0.00  0.00    +0.000 A 
ATOM      4  C   UNL     1     111.713 126.736 138.376  0.00  0.00    +0.000 A 
ATOM      5  C   UNL     1     111.614 126.379 139.984  0.00  0.00    +0.000 A 
ATOM      6  C   UNL     1     112.276 127.034 138.900  0.00  0.00    +0.000 A 
ATOM      7  C   UNL     1     112.226 126.855 139.704  0.00  0.00    +0.000 A 
ENDROOT
BRANCH   3   8
ATOM      8  O   UNL     1     110.438 125.604 139.740  0.00  0.00    +0.000 OA
ATOM      9  C   UNL     1     109.828 125.936 140.185  0.00  0.00    +0.000 C 
ENDBRANCH   3   8
BRANCH   7  11
ATOM     10  O   UNL     1     113.423 126.682 140.465  0.00  0.00    +0.000 OA
ATOM     11  C   UNL     1     112.789 127.153 140.228  0.00  0.00    +0.000 C 
BRANCH  11  12
ATOM     12  C   UNL     1     112.719 127.924 140.515  0.00  0.00    +0.000 C 
ATOM     13  C   UNL     1     113.349 128.275 140.916  0.00  0.00    +0.000 C 
BRANCH  13  14
ATOM     14  C   UNL     1     113.278 129.044 141.202  0.00  0.00    +0.000 A 
ATOM     15  C   UNL     1     113.804 129.629 140.952  0.00  0.00    +0.000 A 
ATOM     16  C   UNL     1     112.681 129.231 141.740  0.00  0.00    +0.000 A 
ATOM     17  C   UNL     1     113.734 130.398 141.238  0.00  0.00    +0.000 A 
ATOM     18  C   UNL     1     113.137 130.585 141.776  0.00  0.00    +0.000 A 
ATOM     19  C   UNL     1     112.610 130.002 142.027  0.00  0.00    +0.000 A 
BRANCH  17  20
ATOM     20  O   UNL     1     114.260 130.983 140.988  0.00  0.00    +0.000 OA
ATOM     21  C   UNL     1     114.944 130.774 140.578  0.00  0.00    +0.000 C 
ENDBRANCH  17  20
BRANCH  18  22
ATOM     22  O   UNL     1     113.065 131.356 142.063  0.00  0.00    +0.000 OA
ATOM     23  C   UNL     1     112.547 131.519 142.684  0.00  0.00    +0.000 C 
ENDBRANCH  18  22
ENDBRANCH  13  14
ENDBRANCH  11  12
ENDBRANCH   7  11
BRANCH   2  24
ATOM     24  O   UNL     1     110.537 125.960 138.132  0.00  0.00    +0.000 OA
BRANCH  24  33
ATOM     25  O   UNL     1     111.317 124.945 137.498  0.00  0.00    +0.000 OA
ATOM     26  O   UNL     1     111.499 124.388 135.396  0.00  0.00    +0.000 OA
ATOM     27  O   UNL     1     110.421 125.632 135.295  0.00  0.00    +0.000 OA
ATOM     28  O   UNL     1     109.940 126.419 136.664  0.00  0.00    +0.000 OA
ATOM     29  C   UNL     1     111.259 124.781 136.080  0.00  0.00    +0.000 C 
ATOM     30  C   UNL     1     110.720 125.403 136.029  0.00  0.00    +0.000 C 
ATOM     31  C   UNL     1     111.557 124.552 136.814  0.00  0.00    +0.000 C 
ATOM     32  C   UNL     1     110.479 125.796 136.714  0.00  0.00    +0.000 C 
ATOM     33  C   UNL     1     110.777 125.567 137.448  0.00  0.00    +0.000 C 
BRANCH  31  35
ATOM     34  O   UNL     1     111.912 123.258 137.306  0.00  0.00    +0.000 OA
ATOM     35  C   UNL     1     112.096 123.930 136.864  0.00  0.00    +0.000 C 
ENDBRANCH  31  35
ENDBRANCH  24  33
ENDBRANCH   2  24
TORSDOF 9
ENDMDL
MODEL 4
REMARK VINA RESULT:      -7.9      8.932     10.973
REMARK  Name = 42607574
REMARK  9 active torsions:
REMARK  status: ('A' for Active; 'I' for Inactive)
REMARK    1  A    between atoms: O_4  and  C_16
REMARK    2  A    between atoms: O_4  and  C_18
REMARK    3  A    between atoms: O_7  and  C_19
REMARK    4  A    between atoms: O_10  and  C_31
REMARK    5  A    between atoms: O_11  and  C_32
REMARK    6  A    between atoms: C_14  and  C_17
REMARK    7  A    between atoms: C_23  and  C_24
REMARK    8  A    between atoms: C_24  and  C_26
REMARK    9  A    between atoms: C_27  and  C_28
REMARK                            x       y       z     vdW  Elec       q    Type
REMARK                         _______ _______ _______ _____ _____    ______ ____
ROOT
ATOM      1  O   UNL     1     114.345 126.093 138.820  0.00  0.00    +0.000 OA
ATOM      2  C   UNL     1     112.612 125.763 137.534  0.00  0.00    +0.000 A 
ATOM      3  C   UNL     1     113.391 125.773 137.806  0.00  0.00    +0.000 A 
ATOM      4  C   UNL     1     112.006 126.064 138.009  0.00  0.00    +0.000 A 
ATOM      5  C   UNL     1     113.565 126.084 138.550  0.00  0.00    +0.000 A 
ATOM      6  C   UNL     1     112.181 126.374 138.753  0.00  0.00    +0.000 A 
ATOM      7  C   UNL     1     112.960 126.384 139.023  0.00  0.00    +0.000 A 
ENDROOT
BRANCH   3   8
ATOM      8  O   UNL     1     113.996 125.472 137.331  0.00  0.00    +0.000 OA
ATOM      9  C   UNL     1     114.392 124.785 137.557  0.00  0.00    +0.000 C 
ENDBRANCH   3   8
BRANCH   7  11
ATOM     10  O   UNL     1     113.085 126.215 140.436  0.00  0.00    +0.000 OA
ATOM     11  C   UNL     1     113.135 126.695 139.767  0.00  0.00    +0.000 C 
BRANCH  11  12
ATOM     12  C   UNL     1     113.359 127.486 139.842  0.00  0.00    +0.000 C 
ATOM     13  C   UNL     1     113.347 127.849 140.583  0.00  0.00    +0.000 C 
BRANCH  13  14
ATOM     14  C   UNL     1     113.571 128.639 140.657  0.00  0.00    +0.000 A 
ATOM     15  C   UNL     1     113.000 129.220 140.791  0.00  0.00    +0.000 A 
ATOM     16  C   UNL     1     114.366 128.849 140.599  0.00  0.00    +0.000 A 
ATOM     17  C   UNL     1     113.224 130.010 140.866  0.00  0.00    +0.000 A 
ATOM     18  C   UNL     1     114.020 130.220 140.807  0.00  0.00    +0.000 A 
ATOM     19  C   UNL     1     114.591 129.640 140.673  0.00  0.00    +0.000 A 
BRANCH  17  20
ATOM     20  O   UNL     1     112.653 130.590 140.999  0.00  0.00    +0.000 OA
ATOM     21  C   UNL     1     111.870 130.375 141.138  0.00  0.00    +0.000 C 
ENDBRANCH  17  20
BRANCH  18  22
ATOM     22  O   UNL     1     114.244 131.011 140.882  0.00  0.00    +0.000 OA
ATOM     23  C   UNL     1     115.044 131.213 140.898  0.00  0.00    +0.000 C 
ENDBRANCH  18  22
ENDBRANCH  13  14
ENDBRANCH  11  12
ENDBRANCH   7  11
BRANCH   2  24
ATOM     24  O   UNL     1     112.437 125.452 136.790  0.00  0.00    +0.000 OA
BRANCH  24  33
ATOM     25  O   UNL     1     112.010 126.652 136.142  0.00  0.00    +0.000 OA
ATOM     26  O   UNL     1     110.334 127.029 134.796  0.00  0.00    +0.000 OA
ATOM     27  O   UNL     1     110.137 125.419 135.095  0.00  0.00    +0.000 OA
ATOM     28  O   UNL     1     111.188 124.631 136.092  0.00  0.00    +0.000 OA
ATOM     29  C   UNL     1     110.860 126.635 135.295  0.00  0.00    +0.000 C 
ATOM     30  C   UNL     1     110.761 125.830 135.444  0.00  0.00    +0.000 C 
ATOM     31  C   UNL     1     111.485 127.046 135.644  0.00  0.00    +0.000 C 
ATOM     32  C   UNL     1     111.287 125.436 135.943  0.00  0.00    +0.000 C 
ATOM     33  C   UNL     1     111.912 125.847 136.292  0.00  0.00    +0.000 C 
BRANCH  31  35
ATOM     34  O   UNL     1     112.339 128.160 135.376  0.00  0.00    +0.000 OA
ATOM     35  C   UNL     1     111.583 127.851 135.494  0.00  0.00    +0.000 C 
ENDBRANCH  31  35
ENDBRANCH  24  33
ENDBRANCH   2  24
TORSDOF 9
ENDMDL
MODEL 5
REMARK VINA RESULT:      -7.9      8.607     10.954
REMARK  Name = 42607574
REMARK  9 active torsions:
REMARK  status: ('A' for Active; 'I' for Inactive)
REMARK    1  A    between atoms: O_4  and  C_16
REMARK    2  A    between atoms: O_4  and  C_18
REMARK    3  A    between atoms: O_7  and  C_19
REMARK    4  A    between atoms: O_10  and  C_31
REMARK    5  A    between atoms: O_11  and  C_32
REMARK    6  A    between atoms: C_14  and  C_17
REMARK    7  A    between atoms: C_23  and  C_24
REMARK    8  A    between atoms: C_24  and  C_26
REMARK    9  A    between atoms: C_27  and  C_28
REMARK                            x       y       z     vdW  Elec       q    Type
REMARK                         _______ _______ _______ _____ _____    ______ ____
ROOT
ATOM      1  O   UNL     1     113.585 129.086 137.827  0.00  0.00    +0.000 OA
ATOM      2  C   UNL     1     111.906 130.480 137.831  0.00  0.00    +0.000 A 
ATOM      3  C   UNL     1     112.602 130.097 138.053  0.00  0.00    +0.000 A 
ATOM      4  C   UNL     1     111.497 130.234 137.158  0.00  0.00    +0.000 A 
ATOM      5  C   UNL     1     112.889 129.468 137.603  0.00  0.00    +0.000 A 
ATOM      6  C   UNL     1     111.784 129.605 136.708  0.00  0.00    +0.000 A 
ATOM      7  C   UNL     1     112.480 129.222 136.931  0.00  0.00    +0.000 A 
ENDROOT
BRANCH   3   8
ATOM      8  O   UNL     1     113.011 130.344 138.726  0.00  0.00    +0.000 OA
ATOM      9  C   UNL     1     113.775 130.647 138.656  0.00  0.00    +0.000 C 
ENDBRANCH   3   8
BRANCH   7  11
ATOM     10  O   UNL     1     113.335 128.727 135.899  0.00  0.00    +0.000 OA
ATOM     11  C   UNL     1     112.767 128.593 136.481  0.00  0.00    +0.000 C 
BRANCH  11  12
ATOM     12  C   UNL     1     112.485 127.828 136.614  0.00  0.00    +0.000 C 
ATOM     13  C   UNL     1     112.583 127.247 136.037  0.00  0.00    +0.000 C 
BRANCH  13  14
ATOM     14  C   UNL     1     112.302 126.483 136.169  0.00  0.00    +0.000 A 
ATOM     15  C   UNL     1     111.595 126.237 135.822  0.00  0.00    +0.000 A 
ATOM     16  C   UNL     1     112.727 125.965 136.650  0.00  0.00    +0.000 A 
ATOM     17  C   UNL     1     111.314 125.473 135.955  0.00  0.00    +0.000 A 
ATOM     18  C   UNL     1     111.739 124.955 136.435  0.00  0.00    +0.000 A 
ATOM     19  C   UNL     1     112.445 125.200 136.783  0.00  0.00    +0.000 A 
BRANCH  17  20
ATOM     20  O   UNL     1     110.607 125.227 135.607  0.00  0.00    +0.000 OA
ATOM     21  C   UNL     1     110.248 125.691 135.028  0.00  0.00    +0.000 C 
ENDBRANCH  17  20
BRANCH  18  22
ATOM     22  O   UNL     1     111.458 124.190 136.568  0.00  0.00    +0.000 OA
ATOM     23  C   UNL     1     111.911 123.653 137.000  0.00  0.00    +0.000 C 
ENDBRANCH  18  22
ENDBRANCH  13  14
ENDBRANCH  11  12
ENDBRANCH   7  11
BRANCH   2  24
ATOM     24  O   UNL     1     111.619 131.110 138.281  0.00  0.00    +0.000 OA
BRANCH  24  33
ATOM     25  O   UNL     1     110.434 130.515 138.815  0.00  0.00    +0.000 OA
ATOM     26  O   UNL     1     108.404 131.293 138.998  0.00  0.00    +0.000 OA
ATOM     27  O   UNL     1     109.164 132.573 138.288  0.00  0.00    +0.000 OA
ATOM     28  O   UNL     1     110.772 132.481 137.929  0.00  0.00    +0.000 OA
ATOM     29  C   UNL     1     109.208 131.247 138.819  0.00  0.00    +0.000 C 
ATOM     30  C   UNL     1     109.588 131.887 138.464  0.00  0.00    +0.000 C 
ATOM     31  C   UNL     1     109.631 130.561 138.995  0.00  0.00    +0.000 C 
ATOM     32  C   UNL     1     110.392 131.841 138.284  0.00  0.00    +0.000 C 
ATOM     33  C   UNL     1     110.816 131.155 138.460  0.00  0.00    +0.000 C 
BRANCH  31  35
ATOM     34  O   UNL     1     109.618 129.512 139.965  0.00  0.00    +0.000 OA
ATOM     35  C   UNL     1     109.251 129.921 139.350  0.00  0.00    +0.000 C 
ENDBRANCH  31  35
ENDBRANCH  24  33
ENDBRANCH   2  24
TORSDOF 9
ENDMDL
MODEL 6
REMARK VINA RESULT:      -7.9      7.964     10.053
REMARK  Name = 42607574
REMARK  9 active torsions:
REMARK  status: ('A' for Active; 'I' for Inactive)
REMARK    1  A    between atoms: O_4  and  C_16
REMARK    2  A    between atoms: O_4  and  C_18
REMARK    3  A    between atoms: O_7  and  C_19
REMARK    4  A    between atoms: O_10  and  C_31
REMARK    5  A    between atoms: O_11  and  C_32
REMARK    6  A    between atoms: C_14  and  C_17
REMARK    7  A    between atoms: C_23  and  C_24
REMARK    8  A    between atoms: C_24  and  C_26
REMARK    9  A    between atoms: C_27  and  C_28
REMARK                            x       y       z     vdW  Elec       q    Type
REMARK                         _______ _______ _______ _____ _____    ______ ____
ROOT
ATOM      1  O   UNL     1     114.683 129.478 140.180  0.00  0.00    +0.000 OA
ATOM      2  C   UNL     1     113.104 130.129 141.539  0.00  0.00    +0.000 A 
ATOM      3  C   UNL     1     113.744 130.152 141.018  0.00  0.00    +0.000 A 
ATOM      4  C   UNL     1     112.765 129.404 141.742  0.00  0.00    +0.000 A 
ATOM      5  C   UNL     1     114.044 129.453 140.701  0.00  0.00    +0.000 A 
ATOM      6  C   UNL     1     113.065 128.704 141.425  0.00  0.00    +0.000 A 
ATOM      7  C   UNL     1     113.705 128.729 140.904  0.00  0.00    +0.000 A 
ENDROOT
BRANCH   3   8
ATOM      8  O   UNL     1     114.083 130.877 140.815  0.00  0.00    +0.000 OA
ATOM      9  C   UNL     1     114.855 131.050 141.047  0.00  0.00    +0.000 C 
ENDBRANCH   3   8
BRANCH   7  11
ATOM     10  O   UNL     1     114.719 127.723 140.864  0.00  0.00    +0.000 OA
ATOM     11  C   UNL     1     114.005 128.029 140.587  0.00  0.00    +0.000 C 
BRANCH  11  12
ATOM     12  C   UNL     1     113.591 127.635 139.991  0.00  0.00    +0.000 C 
ATOM     13  C   UNL     1     113.768 126.848 139.817  0.00  0.00    +0.000 C 
BRANCH  13  14
ATOM     14  C   UNL     1     113.354 126.455 139.223  0.00  0.00    +0.000 A 
ATOM     15  C   UNL     1     113.763 126.096 138.602  0.00  0.00    +0.000 A 
ATOM     16  C   UNL     1     112.530 126.419 139.248  0.00  0.00    +0.000 A 
ATOM     17  C   UNL     1     113.350 125.703 138.007  0.00  0.00    +0.000 A 
ATOM     18  C   UNL     1     112.526 125.667 138.032  0.00  0.00    +0.000 A 
ATOM     19  C   UNL     1     112.116 126.025 138.652  0.00  0.00    +0.000 A 
BRANCH  17  20
ATOM     20  O   UNL     1     113.759 125.344 137.387  0.00  0.00    +0.000 OA
ATOM     21  C   UNL     1     114.560 125.168 137.468  0.00  0.00    +0.000 C 
ENDBRANCH  17  20
BRANCH  18  22
ATOM     22  O   UNL     1     112.111 125.273 137.437  0.00  0.00    +0.000 OA
ATOM     23  C   UNL     1     111.289 125.221 137.472  0.00  0.00    +0.000 C 
ENDBRANCH  18  22
ENDBRANCH  13  14
ENDBRANCH  11  12
ENDBRANCH   7  11
BRANCH   2  24
ATOM     24  O   UNL     1     112.804 130.829 141.856  0.00  0.00    +0.000 OA
BRANCH  24  33
ATOM     25  O   UNL     1     111.547 130.923 141.182  0.00  0.00    +0.000 OA
ATOM     26  O   UNL     1     109.545 131.334 141.946  0.00  0.00    +0.000 OA
ATOM     27  O   UNL     1     110.427 131.397 143.338  0.00  0.00    +0.000 OA
ATOM     28  O   UNL     1     112.057 131.144 143.293  0.00  0.00    +0.000 OA
ATOM     29  C   UNL     1     110.360 131.208 141.923  0.00  0.00    +0.000 C 
ATOM     30  C   UNL     1     110.801 131.239 142.619  0.00  0.00    +0.000 C 
ATOM     31  C   UNL     1     110.733 131.050 141.204  0.00  0.00    +0.000 C 
ATOM     32  C   UNL     1     111.616 131.113 142.597  0.00  0.00    +0.000 C 
ATOM     33  C   UNL     1     111.990 130.955 141.878  0.00  0.00    +0.000 C 
BRANCH  31  35
ATOM     34  O   UNL     1     110.555 131.413 139.834  0.00  0.00    +0.000 OA
ATOM     35  C   UNL     1     110.292 131.018 140.509  0.00  0.00    +0.000 C 
ENDBRANCH  31  35
ENDBRANCH  24  33
ENDBRANCH   2  24
TORSDOF 9
ENDMDL
MODEL 7
REMARK VINA RESULT:      -7.8      8.436     11.019
REMARK  Name = 42607574
REMARK  9 active torsions:
REMARK  status: ('A' for Active; 'I' for Inactive)
REMARK    1  A    between atoms: O_4  and  C_16
REMARK    2  A    between atoms: O_4  and  C_18
REMARK    3  A    between atoms: O_7  and  C_19
REMARK    4  A    between atoms: O_10  and  C_31
REMARK    5  A    between atoms: O_11  and  C_32
REMARK    6  A    between atoms: C_14  and  C_17
REMARK    7  A    between atoms: C_23  and  C_24
REMARK    8  A    between atoms: C_24  and  C_26
REMARK    9  A    between atoms: C_27  and  C_28
REMARK                            x       y       z     vdW  Elec       q    Type
REMARK                         _______ _______ _______ _____ _____    ______ ____
ROOT
ATOM      1  O   UNL     1     110.359 128.270 135.295  0.00  0.00    +0.000 OA
ATOM      2  C   UNL     1     109.901 129.253 137.190  0.00  0.00    +0.000 A 
ATOM      3  C   UNL     1     109.836 128.997 136.408  0.00  0.00    +0.000 A 
ATOM      4  C   UNL     1     110.558 129.036 137.641  0.00  0.00    +0.000 A 
ATOM      5  C   UNL     1     110.426 128.525 136.077  0.00  0.00    +0.000 A 
ATOM      6  C   UNL     1     111.148 128.565 137.310  0.00  0.00    +0.000 A 
ATOM      7  C   UNL     1     111.082 128.309 136.528  0.00  0.00    +0.000 A 
ENDROOT
BRANCH   3   8
ATOM      8  O   UNL     1     109.179 129.214 135.957  0.00  0.00    +0.000 OA
ATOM      9  C   UNL     1     108.620 128.646 135.745  0.00  0.00    +0.000 C 
ENDBRANCH   3   8
BRANCH   7  11
ATOM     10  O   UNL     1     112.188 128.154 135.636  0.00  0.00    +0.000 OA
ATOM     11  C   UNL     1     111.672 127.838 136.197  0.00  0.00    +0.000 C 
BRANCH  11  12
ATOM     12  C   UNL     1     111.747 127.048 136.426  0.00  0.00    +0.000 C 
ATOM     13  C   UNL     1     112.382 126.598 136.155  0.00  0.00    +0.000 C 
BRANCH  13  14
ATOM     14  C   UNL     1     112.457 125.809 136.384  0.00  0.00    +0.000 A 
ATOM     15  C   UNL     1     113.151 125.548 136.746  0.00  0.00    +0.000 A 
ATOM     16  C   UNL     1     111.837 125.281 136.251  0.00  0.00    +0.000 A 
ATOM     17  C   UNL     1     113.225 124.759 136.975  0.00  0.00    +0.000 A 
ATOM     18  C   UNL     1     112.605 124.231 136.843  0.00  0.00    +0.000 A 
ATOM     19  C   UNL     1     111.911 124.492 136.481  0.00  0.00    +0.000 A 
BRANCH  17  20
ATOM     20  O   UNL     1     113.919 124.498 137.337  0.00  0.00    +0.000 OA
ATOM     21  C   UNL     1     114.576 124.993 137.377  0.00  0.00    +0.000 C 
ENDBRANCH  17  20
BRANCH  18  22
ATOM     22  O   UNL     1     112.679 123.442 137.072  0.00  0.00    +0.000 OA
ATOM     23  C   UNL     1     112.009 122.963 137.127  0.00  0.00    +0.000 C 
ENDBRANCH  18  22
ENDBRANCH  13  14
ENDBRANCH  11  12
ENDBRANCH   7  11
BRANCH   2  24
ATOM     24  O   UNL     1     109.311 129.725 137.521  0.00  0.00    +0.000 OA
BRANCH  24  33
ATOM     25  O   UNL     1     110.015 130.968 137.562  0.00  0.00    +0.000 OA
ATOM     26  O   UNL     1     110.116 132.501 139.111  0.00  0.00    +0.000 OA
ATOM     27  O   UNL     1     109.111 131.405 139.824  0.00  0.00    +0.000 OA
ATOM     28  O   UNL     1     108.708 130.016 139.029  0.00  0.00    +0.000 OA
ATOM     29  C   UNL     1     109.915 131.807 138.713  0.00  0.00    +0.000 C 
ATOM     30  C   UNL     1     109.412 131.259 139.070  0.00  0.00    +0.000 C 
ATOM     31  C   UNL     1     110.216 131.661 137.959  0.00  0.00    +0.000 C 
ATOM     32  C   UNL     1     109.211 130.564 138.672  0.00  0.00    +0.000 C 
ATOM     33  C   UNL     1     109.512 130.418 137.918  0.00  0.00    +0.000 C 
BRANCH  31  35
ATOM     34  O   UNL     1     110.592 132.439 136.821  0.00  0.00    +0.000 OA
ATOM     35  C   UNL     1     110.719 132.209 137.603  0.00  0.00    +0.000 C 
ENDBRANCH  31  35
ENDBRANCH  24  33
ENDBRANCH   2  24
TORSDOF 9
ENDMDL
MODEL 8
REMARK VINA RESULT:      -7.8      5.680      7.597
REMARK  Name = 42607574
REMARK  9 active torsions:
REMARK  status: ('A' for Active; 'I' for Inactive)
REMARK    1  A    between atoms: O_4  and  C_16
REMARK    2  A    between atoms: O_4  and  C_18
REMARK    3  A    between atoms: O_7  and  C_19
REMARK    4  A    between atoms: O_10  and  C_31
REMARK    5  A    between atoms: O_11  and  C_32
REMARK    6  A    between atoms: C_14  and  C_17
REMARK    7  A    between atoms: C_23  and  C_24
REMARK    8  A    between atoms: C_24  and  C_26
REMARK    9  A    between atoms: C_27  and  C_28
REMARK                            x       y       z     vdW  Elec       q    Type
REMARK                         _______ _______ _______ _____ _____    ______ ____
ROOT
ATOM      1  O   UNL     1     109.375 127.399 140.326  0.00  0.00    +0.000 OA
ATOM      2  C   UNL     1     107.985 125.919 141.128  0.00  0.00    +0.000 A 
ATOM      3  C   UNL     1     108.325 126.645 140.936  0.00  0.00    +0.000 A 
ATOM      4  C   UNL     1     108.356 125.217 140.901  0.00  0.00    +0.000 A 
ATOM      5  C   UNL     1     109.036 126.671 140.518  0.00  0.00    +0.000 A 
ATOM      6  C   UNL     1     109.067 125.243 140.483  0.00  0.00    +0.000 A 
ATOM      7  C   UNL     1     109.406 125.970 140.291  0.00  0.00    +0.000 A 
ENDROOT
BRANCH   3   8
ATOM      8  O   UNL     1     107.954 127.347 141.163  0.00  0.00    +0.000 OA
ATOM      9  C   UNL     1     108.291 127.821 141.748  0.00  0.00    +0.000 C 
ENDBRANCH   3   8
BRANCH   7  11
ATOM     10  O   UNL     1     110.822 126.167 140.266  0.00  0.00    +0.000 OA
ATOM     11  C   UNL     1     110.117 125.996 139.873  0.00  0.00    +0.000 C 
BRANCH  11  12
ATOM     12  C   UNL     1     110.123 125.851 139.060  0.00  0.00    +0.000 C 
ATOM     13  C   UNL     1     110.841 125.784 138.658  0.00  0.00    +0.000 C 
BRANCH  13  14
ATOM     14  C   UNL     1     110.847 125.639 137.847  0.00  0.00    +0.000 A 
ATOM     15  C   UNL     1     111.237 124.976 137.548  0.00  0.00    +0.000 A 
ATOM     16  C   UNL     1     110.462 126.156 137.333  0.00  0.00    +0.000 A 
ATOM     17  C   UNL     1     111.243 124.831 136.737  0.00  0.00    +0.000 A 
ATOM     18  C   UNL     1     110.858 125.349 136.223  0.00  0.00    +0.000 A 
ATOM     19  C   UNL     1     110.467 126.012 136.520  0.00  0.00    +0.000 A 
BRANCH  17  20
ATOM     20  O   UNL     1     111.634 124.168 136.438  0.00  0.00    +0.000 OA
ATOM     21  C   UNL     1     112.094 123.701 136.937  0.00  0.00    +0.000 C 
ENDBRANCH  17  20
BRANCH  18  22
ATOM     22  O   UNL     1     110.864 125.204 135.410  0.00  0.00    +0.000 OA
ATOM     23  C   UNL     1     110.417 125.677 134.903  0.00  0.00    +0.000 C 
ENDBRANCH  18  22
ENDBRANCH  13  14
ENDBRANCH  11  12
ENDBRANCH   7  11
BRANCH   2  24
ATOM     24  O   UNL     1     107.274 125.893 141.546  0.00  0.00    +0.000 OA
BRANCH  24  33
ATOM     25  O   UNL     1     106.461 125.293 140.536  0.00  0.00    +0.000 OA
ATOM     26  O   UNL     1     104.922 123.752 140.671  0.00  0.00    +0.000 OA
ATOM     27  O   UNL     1     105.372 123.880 142.252  0.00  0.00    +0.000 OA
ATOM     28  O   UNL     1     106.549 124.951 142.690  0.00  0.00    +0.000 OA
ATOM     29  C   UNL     1     105.510 124.287 140.889  0.00  0.00    +0.000 C 
ATOM     30  C   UNL     1     105.735 124.351 141.680  0.00  0.00    +0.000 C 
ATOM     31  C   UNL     1     105.873 124.758 140.317  0.00  0.00    +0.000 C 
ATOM     32  C   UNL     1     106.324 124.887 141.899  0.00  0.00    +0.000 C 
ATOM     33  C   UNL     1     106.687 125.358 141.327  0.00  0.00    +0.000 C 
BRANCH  31  35
ATOM     34  O   UNL     1     105.433 125.368 139.102  0.00  0.00    +0.000 OA
ATOM     35  C   UNL     1     105.648 124.694 139.527  0.00  0.00    +0.000 C 
ENDBRANCH  31  35
ENDBRANCH  24  33
ENDBRANCH   2  24
TORSDOF 9
ENDMDL
MODEL 9
REMARK VINA RESULT:      -7.7      7.449      9.206
REMARK  Name = 42607574
REMARK  9 active torsions:
REMARK  status: ('A' for Active; 'I' for Inactive)
REMARK    1  A    between atoms: O_4  and  C_16
REMARK    2  A    between atoms: O_4  and  C_18
REMARK    3  A    between atoms: O_7  and  C_19
REMARK    4  A    between atoms: O_10  and  C_31
REMARK    5  A    between atoms: O_11  and  C_32
REMARK    6  A    between atoms: C_14  and  C_17
REMARK    7  A    between atoms: C_23  and  C_24
REMARK    8  A    between atoms: C_24  and  C_26
REMARK    9  A    between atoms: C_27  and  C_28
REMARK                            x       y       z     vdW  Elec       q    Type
REMARK                         _______ _______ _______ _____ _____    ______ ____
ROOT
ATOM      1  O   UNL     1     112.797 126.160 140.586  0.00  0.00    +0.000 OA
ATOM      2  C   UNL     1     112.618 128.315 140.883  0.00  0.00    +0.000 A 
ATOM      3  C   UNL     1     112.922 127.549 140.899  0.00  0.00    +0.000 A 
ATOM      4  C   UNL     1     111.883 128.460 140.536  0.00  0.00    +0.000 A 
ATOM      5  C   UNL     1     112.492 126.927 140.569  0.00  0.00    +0.000 A 
ATOM      6  C   UNL     1     111.453 127.838 140.206  0.00  0.00    +0.000 A 
ATOM      7  C   UNL     1     111.758 127.071 140.223  0.00  0.00    +0.000 A 
ENDROOT
BRANCH   3   8
ATOM      8  O   UNL     1     113.657 127.404 141.246  0.00  0.00    +0.000 OA
ATOM      9  C   UNL     1     114.303 127.205 140.773  0.00  0.00    +0.000 C 
ENDBRANCH   3   8
BRANCH   7  11
ATOM     10  O   UNL     1     110.902 125.937 140.380  0.00  0.00    +0.000 OA
ATOM     11  C   UNL     1     111.328 126.449 139.893  0.00  0.00    +0.000 C 
BRANCH  11  12
ATOM     12  C   UNL     1     111.323 126.339 139.074  0.00  0.00    +0.000 C 
ATOM     13  C   UNL     1     110.865 125.739 138.742  0.00  0.00    +0.000 C 
BRANCH  13  14
ATOM     14  C   UNL     1     110.860 125.629 137.925  0.00  0.00    +0.000 A 
ATOM     15  C   UNL     1     111.301 125.018 137.587  0.00  0.00    +0.000 A 
ATOM     16  C   UNL     1     110.415 126.130 137.444  0.00  0.00    +0.000 A 
ATOM     17  C   UNL     1     111.296 124.908 136.771  0.00  0.00    +0.000 A 
ATOM     18  C   UNL     1     110.851 125.409 136.289  0.00  0.00    +0.000 A 
ATOM     19  C   UNL     1     110.411 126.020 136.625  0.00  0.00    +0.000 A 
BRANCH  17  20
ATOM     20  O   UNL     1     111.736 124.297 136.433  0.00  0.00    +0.000 OA
ATOM     21  C   UNL     1     112.094 123.731 136.915  0.00  0.00    +0.000 C 
ENDBRANCH  17  20
BRANCH  18  22
ATOM     22  O   UNL     1     110.846 125.299 135.471  0.00  0.00    +0.000 OA
ATOM     23  C   UNL     1     110.366 125.771 134.994  0.00  0.00    +0.000 C 
ENDBRANCH  18  22
ENDBRANCH  13  14
ENDBRANCH  11  12
ENDBRANCH   7  11
BRANCH   2  24
ATOM     24  O   UNL     1     113.048 128.937 141.213  0.00  0.00    +0.000 OA
BRANCH  24  33
ATOM     25  O   UNL     1     112.262 129.128 142.391  0.00  0.00    +0.000 OA
ATOM     26  O   UNL     1     111.620 130.953 143.399  0.00  0.00    +0.000 OA
ATOM     27  O   UNL     1     112.476 131.580 142.137  0.00  0.00    +0.000 OA
ATOM     28  O   UNL     1     113.191 130.572 141.043  0.00  0.00    +0.000 OA
ATOM     29  C   UNL     1     111.977 130.449 142.853  0.00  0.00    +0.000 C 
ATOM     30  C   UNL     1     112.405 130.763 142.222  0.00  0.00    +0.000 C 
ATOM     31  C   UNL     1     111.905 129.631 142.937  0.00  0.00    +0.000 C 
ATOM     32  C   UNL     1     112.762 130.258 141.675  0.00  0.00    +0.000 C 
ATOM     33  C   UNL     1     112.691 129.441 141.759  0.00  0.00    +0.000 C 
BRANCH  31  35
ATOM     34  O   UNL     1     111.757 128.652 143.968  0.00  0.00    +0.000 OA
ATOM     35  C   UNL     1     111.477 129.318 143.568  0.00  0.00    +0.000 C 
ENDBRANCH  31  35
ENDBRANCH  24  33
ENDBRANCH   2  24
TORSDOF 9
ENDMDL
MODEL 10
REMARK VINA RESULT:      -7.7      9.188     11.047
REMARK  Name = 42607574
REMARK  9 active torsions:
REMARK  status: ('A' for Active; 'I' for Inactive)
REMARK    1  A    between atoms: O_4  and  C_16
REMARK    2  A    between atoms: O_4  and  C_18
REMARK    3  A    between atoms: O_7  and  C_19
REMARK    4  A    between atoms: O_10  and  C_31
REMARK    5  A    between atoms: O_11  and  C_32
REMARK    6  A    between atoms: C_14  and  C_17
REMARK    7  A    between atoms: C_23  and  C_24
REMARK    8  A    between atoms: C_24  and  C_26
REMARK    9  A    between atoms: C_27  and  C_28
REMARK                            x       y       z     vdW  Elec       q    Type
REMARK                         _______ _______ _______ _____ _____    ______ ____
ROOT
ATOM      1  O   UNL     1     112.011 129.229 136.192  0.00  0.00    +0.000 OA
ATOM      2  C   UNL     1     111.745 127.078 136.445  0.00  0.00    +0.000 A 
ATOM      3  C   UNL     1     111.876 127.811 136.090  0.00  0.00    +0.000 A 
ATOM      4  C   UNL     1     111.617 127.031 137.259  0.00  0.00    +0.000 A 
ATOM      5  C   UNL     1     111.880 128.497 136.548  0.00  0.00    +0.000 A 
ATOM      6  C   UNL     1     111.621 127.717 137.717  0.00  0.00    +0.000 A 
ATOM      7  C   UNL     1     111.752 128.450 137.361  0.00  0.00    +0.000 A 
ENDROOT
BRANCH   3   8
ATOM      8  O   UNL     1     112.004 127.857 135.275  0.00  0.00    +0.000 OA
ATOM      9  C   UNL     1     111.439 128.213 134.790  0.00  0.00    +0.000 C 
ENDBRANCH   3   8
BRANCH   7  11
ATOM     10  O   UNL     1     111.136 129.677 137.758  0.00  0.00    +0.000 OA
ATOM     11  C   UNL     1     111.756 129.136 137.820  0.00  0.00    +0.000 C 
BRANCH  11  12
ATOM     12  C   UNL     1     112.380 129.281 138.340  0.00  0.00    +0.000 C 
ATOM     13  C   UNL     1     112.332 129.905 138.878  0.00  0.00    +0.000 C 
BRANCH  13  14
ATOM     14  C   UNL     1     112.955 130.050 139.398  0.00  0.00    +0.000 A 
ATOM     15  C   UNL     1     112.859 129.916 140.206  0.00  0.00    +0.000 A 
ATOM     16  C   UNL     1     113.676 130.329 139.110  0.00  0.00    +0.000 A 
ATOM     17  C   UNL     1     113.482 130.060 140.726  0.00  0.00    +0.000 A 
ATOM     18  C   UNL     1     114.203 130.340 140.438  0.00  0.00    +0.000 A 
ATOM     19  C   UNL     1     114.300 130.474 139.630  0.00  0.00    +0.000 A 
BRANCH  17  20
ATOM     20  O   UNL     1     113.385 129.926 141.535  0.00  0.00    +0.000 OA
ATOM     21  C   UNL     1     112.661 129.662 141.826  0.00  0.00    +0.000 C 
ENDBRANCH  17  20
BRANCH  18  22
ATOM     22  O   UNL     1     114.827 130.485 140.958  0.00  0.00    +0.000 OA
ATOM     23  C   UNL     1     115.490 130.902 140.701  0.00  0.00    +0.000 C 
ENDBRANCH  18  22
ENDBRANCH  13  14
ENDBRANCH  11  12
ENDBRANCH   7  11
BRANCH   2  24
ATOM     24  O   UNL     1     111.741 126.392 135.986  0.00  0.00    +0.000 OA
BRANCH  24  33
ATOM     25  O   UNL     1     112.965 125.802 136.429  0.00  0.00    +0.000 OA
ATOM     26  O   UNL     1     113.446 123.743 136.968  0.00  0.00    +0.000 OA
ATOM     27  O   UNL     1     111.851 123.597 136.573  0.00  0.00    +0.000 OA
ATOM     28  O   UNL     1     110.999 124.921 136.082  0.00  0.00    +0.000 OA
ATOM     29  C   UNL     1     113.020 124.405 136.722  0.00  0.00    +0.000 C 
ATOM     30  C   UNL     1     112.223 124.332 136.525  0.00  0.00    +0.000 C 
ATOM     31  C   UNL     1     113.392 125.141 136.674  0.00  0.00    +0.000 C 
ATOM     32  C   UNL     1     111.796 124.995 136.280  0.00  0.00    +0.000 C 
ATOM     33  C   UNL     1     112.167 125.730 136.232  0.00  0.00    +0.000 C 
BRANCH  31  35
ATOM     34  O   UNL     1     114.703 125.620 136.371  0.00  0.00    +0.000 OA
ATOM     35  C   UNL     1     114.189 125.213 136.872  0.00  0.00    +0.000 C 
ENDBRANCH  31  35
ENDBRANCH  24  33
ENDBRANCH   2  24
TORSDOF 9
ENDMDL
