MODEL 1
REMARK VINA RESULT:     -10.2      0.000      0.000
REMARK  Name = 6453359
REMARK  7 active torsions:
REMARK  status: ('A' for Active; 'I' for Inactive)
REMARK    1  A    between atoms: O_2  and  C_19
REMARK    2  A    between atoms: O_2  and  C_24
REMARK    3  A    between atoms: O_3  and  C_21
REMARK    4  A    between atoms: O_3  and  C_23
REMARK    5  A    between atoms: C_20  and  C_22
REMARK    6  A    between atoms: C_24  and  C_27
REMARK    7  A    between atoms: C_25  and  C_30
REMARK                            x       y       z     vdW  Elec       q    Type
REMARK                         _______ _______ _______ _____ _____    ______ ____
ROOT
ATOM      1  O   UNL     1     111.962 128.483 137.055  0.00  0.00    +0.000 OA
ENDROOT
BRANCH   1   6
ATOM      2  O   UNL     1     111.227 129.897 135.564  0.00  0.00    +0.000 OA
ATOM      3  O   UNL     1     110.337 128.407 137.330  0.00  0.00    +0.000 OA
ATOM      4  O   UNL     1     108.985 128.815 137.034  0.00  0.00    +0.000 OA
ATOM      5  O   UNL     1     108.525 130.767 134.911  0.00  0.00    +0.000 OA
ATOM      6  C   UNL     1     111.446 128.942 136.604  0.00  0.00    +0.000 A 
ATOM      7  C   UNL     1     111.743 129.438 136.015  0.00  0.00    +0.000 A 
ATOM      8  C   UNL     1     110.634 128.904 136.741  0.00  0.00    +0.000 A 
ATOM      9  C   UNL     1     110.118 129.363 136.290  0.00  0.00    +0.000 A 
ATOM     10  C   UNL     1     110.413 129.859 135.702  0.00  0.00    +0.000 A 
ATOM     11  C   UNL     1     109.273 129.315 136.443  0.00  0.00    +0.000 A 
ATOM     12  C   UNL     1     109.886 130.342 135.225  0.00  0.00    +0.000 A 
ATOM     13  C   UNL     1     108.730 129.790 135.976  0.00  0.00    +0.000 A 
ATOM     14  C   UNL     1     109.039 130.307 135.363  0.00  0.00    +0.000 A 
BRANCH   7  17
ATOM     15  O   UNL     1     114.255 130.755 136.368  0.00  0.00    +0.000 OA
ATOM     16  O   UNL     1     114.993 129.588 135.464  0.00  0.00    +0.000 OA
ATOM     17  C   UNL     1     112.555 129.476 135.878  0.00  0.00    +0.000 A 
ATOM     18  C   UNL     1     112.999 130.096 136.192  0.00  0.00    +0.000 A 
ATOM     19  C   UNL     1     112.924 128.893 135.426  0.00  0.00    +0.000 A 
ATOM     20  C   UNL     1     113.811 130.134 136.054  0.00  0.00    +0.000 A 
ATOM     21  C   UNL     1     113.737 128.930 135.288  0.00  0.00    +0.000 A 
ATOM     22  C   UNL     1     114.180 129.551 135.602  0.00  0.00    +0.000 A 
ENDBRANCH   7  17
ENDBRANCH   1   6
BRANCH   1  30
ATOM     23  O   UNL     1     111.865 129.292 138.228  0.00  0.00    +0.000 OA
ATOM     24  O   UNL     1     112.178 127.284 139.640  0.00  0.00    +0.000 OA
ATOM     25  O   UNL     1     111.976 128.762 140.342  0.00  0.00    +0.000 OA
ATOM     26  C   UNL     1     112.073 127.953 139.169  0.00  0.00    +0.000 C 
ATOM     27  C   UNL     1     111.973 128.692 139.521  0.00  0.00    +0.000 C 
ATOM     28  C   UNL     1     112.070 127.882 138.347  0.00  0.00    +0.000 C 
ATOM     29  C   UNL     1     111.868 129.362 139.050  0.00  0.00    +0.000 C 
ATOM     30  C   UNL     1     111.966 128.552 137.877  0.00  0.00    +0.000 C 
BRANCH  29  32
ATOM     31  O   UNL     1     112.318 130.701 139.264  0.00  0.00    +0.000 OA
ATOM     32  C   UNL     1     111.767 130.101 139.401  0.00  0.00    +0.000 C 
ENDBRANCH  29  32
BRANCH  28  33
ATOM     33  O   UNL     1     112.171 127.144 137.996  0.00  0.00    +0.000 OA
BRANCH  33  35
ATOM     34  O   UNL     1     113.538 127.130 138.415  0.00  0.00    +0.000 OA
ATOM     35  C   UNL     1     112.910 126.778 138.011  0.00  0.00    +0.000 C 
BRANCH  35  39
ATOM     36  O   UNL     1     114.555 125.041 136.446  0.00  0.00    +0.000 OA
ATOM     37  O   UNL     1     111.942 124.201 137.242  0.00  0.00    +0.000 OA
ATOM     38  O   UNL     1     113.361 123.902 136.455  0.00  0.00    +0.000 OA
ATOM     39  C   UNL     1     113.023 126.058 137.622  0.00  0.00    +0.000 A 
ATOM     40  C   UNL     1     112.426 125.489 137.626  0.00  0.00    +0.000 A 
ATOM     41  C   UNL     1     113.732 125.909 137.228  0.00  0.00    +0.000 A 
ATOM     42  C   UNL     1     113.845 125.190 136.839  0.00  0.00    +0.000 A 
ATOM     43  C   UNL     1     112.539 124.771 137.237  0.00  0.00    +0.000 A 
ATOM     44  C   UNL     1     113.248 124.621 136.843  0.00  0.00    +0.000 A 
ENDBRANCH  35  39
ENDBRANCH  33  35
ENDBRANCH  28  33
ENDBRANCH   1  30
TORSDOF 7
ENDMDL
MODEL 2
REMARK VINA RESULT:     -10.2      1.507      4.797
REMARK  Name = 6453359
REMARK  7 active torsions:
REMARK  status: ('A' for Active; 'I' for Inactive)
REMARK    1  A    between atoms: O_2  and  C_19
REMARK    2  A    between atoms: O_2  and  C_24
REMARK    3  A    between atoms: O_3  and  C_21
REMARK    4  A    between atoms: O_3  and  C_23
REMARK    5  A    between atoms: C_20  and  C_22
REMARK    6  A    between atoms: C_24  and  C_27
REMARK    7  A    between atoms: C_25  and  C_30
REMARK                            x       y       z     vdW  Elec       q    Type
REMARK                         _______ _______ _______ _____ _____    ______ ____
ROOT
ATOM      1  O   UNL     1     111.770 127.432 137.014  0.00  0.00    +0.000 OA
ENDROOT
BRANCH   1   6
ATOM      2  O   UNL     1     113.373 127.837 138.440  0.00  0.00    +0.000 OA
ATOM      3  O   UNL     1     111.210 126.636 138.347  0.00  0.00    +0.000 OA
ATOM      4  O   UNL     1     111.348 126.222 139.722  0.00  0.00    +0.000 OA
ATOM      5  O   UNL     1     113.718 127.039 141.219  0.00  0.00    +0.000 OA
ATOM      6  C   UNL     1     112.211 127.434 137.712  0.00  0.00    +0.000 A 
ATOM      7  C   UNL     1     112.932 127.835 137.742  0.00  0.00    +0.000 A 
ATOM      8  C   UNL     1     111.931 127.036 138.377  0.00  0.00    +0.000 A 
ATOM      9  C   UNL     1     112.372 127.038 139.075  0.00  0.00    +0.000 A 
ATOM     10  C   UNL     1     113.093 127.439 139.107  0.00  0.00    +0.000 A 
ATOM     11  C   UNL     1     112.070 126.620 139.762  0.00  0.00    +0.000 A 
ATOM     12  C   UNL     1     113.561 127.448 139.826  0.00  0.00    +0.000 A 
ATOM     13  C   UNL     1     112.525 126.619 140.491  0.00  0.00    +0.000 A 
ATOM     14  C   UNL     1     113.275 127.035 140.523  0.00  0.00    +0.000 A 
BRANCH   7  17
ATOM     15  O   UNL     1     113.034 130.191 136.128  0.00  0.00    +0.000 OA
ATOM     16  O   UNL     1     114.053 129.428 135.078  0.00  0.00    +0.000 OA
ATOM     17  C   UNL     1     113.212 128.233 137.077  0.00  0.00    +0.000 A 
ATOM     18  C   UNL     1     112.983 129.013 136.935  0.00  0.00    +0.000 A 
ATOM     19  C   UNL     1     113.721 127.851 136.552  0.00  0.00    +0.000 A 
ATOM     20  C   UNL     1     113.263 129.411 136.270  0.00  0.00    +0.000 A 
ATOM     21  C   UNL     1     114.002 128.250 135.885  0.00  0.00    +0.000 A 
ATOM     22  C   UNL     1     113.772 129.029 135.745  0.00  0.00    +0.000 A 
ENDBRANCH   7  17
ENDBRANCH   1   6
BRANCH   1  30
ATOM     23  O   UNL     1     112.052 126.064 136.714  0.00  0.00    +0.000 OA
ATOM     24  O   UNL     1     109.884 125.876 135.535  0.00  0.00    +0.000 OA
ATOM     25  O   UNL     1     110.889 124.571 135.628  0.00  0.00    +0.000 OA
ATOM     26  C   UNL     1     110.607 125.939 135.928  0.00  0.00    +0.000 C 
ATOM     27  C   UNL     1     111.109 125.286 135.974  0.00  0.00    +0.000 C 
ATOM     28  C   UNL     1     110.827 126.655 136.275  0.00  0.00    +0.000 C 
ATOM     29  C   UNL     1     111.831 125.349 136.367  0.00  0.00    +0.000 C 
ATOM     30  C   UNL     1     111.549 126.717 136.668  0.00  0.00    +0.000 C 
BRANCH  29  32
ATOM     31  O   UNL     1     113.103 124.747 136.117  0.00  0.00    +0.000 OA
ATOM     32  C   UNL     1     112.334 124.697 136.414  0.00  0.00    +0.000 C 
ENDBRANCH  29  32
BRANCH  28  33
ATOM     33  O   UNL     1     110.325 127.307 136.229  0.00  0.00    +0.000 OA
BRANCH  33  35
ATOM     34  O   UNL     1     110.542 127.379 134.818  0.00  0.00    +0.000 OA
ATOM     35  C   UNL     1     110.212 127.690 135.507  0.00  0.00    +0.000 C 
BRANCH  35  39
ATOM     36  O   UNL     1     109.904 130.387 134.613  0.00  0.00    +0.000 OA
ATOM     37  O   UNL     1     107.866 129.167 136.201  0.00  0.00    +0.000 OA
ATOM     38  O   UNL     1     108.442 130.473 135.374  0.00  0.00    +0.000 OA
ATOM     39  C   UNL     1     109.769 128.386 135.474  0.00  0.00    +0.000 A 
ATOM     40  C   UNL     1     109.038 128.429 135.854  0.00  0.00    +0.000 A 
ATOM     41  C   UNL     1     110.058 129.039 135.060  0.00  0.00    +0.000 A 
ATOM     42  C   UNL     1     109.615 129.735 135.026  0.00  0.00    +0.000 A 
ATOM     43  C   UNL     1     108.596 129.124 135.821  0.00  0.00    +0.000 A 
ATOM     44  C   UNL     1     108.884 129.778 135.407  0.00  0.00    +0.000 A 
ENDBRANCH  35  39
ENDBRANCH  33  35
ENDBRANCH  28  33
ENDBRANCH   1  30
TORSDOF 7
ENDMDL
MODEL 3
REMARK VINA RESULT:     -10.1      1.479      4.211
REMARK  Name = 6453359
REMARK  7 active torsions:
REMARK  status: ('A' for Active; 'I' for Inactive)
REMARK    1  A    between atoms: O_2  and  C_19
REMARK    2  A    between atoms: O_2  and  C_24
REMARK    3  A    between atoms: O_3  and  C_21
REMARK    4  A    between atoms: O_3  and  C_23
REMARK    5  A    between atoms: C_20  and  C_22
REMARK    6  A    between atoms: C_24  and  C_27
REMARK    7  A    between atoms: C_25  and  C_30
REMARK                            x       y       z     vdW  Elec       q    Type
REMARK                         _______ _______ _______ _____ _____    ______ ____
ROOT
ATOM      1  O   UNL     1     112.082 127.845 137.644  0.00  0.00    +0.000 OA
ENDROOT
BRANCH   1   6
ATOM      2  O   UNL     1     112.547 126.278 136.197  0.00  0.00    +0.000 OA
ATOM      3  O   UNL     1     111.485 126.517 138.421  0.00  0.00    +0.000 OA
ATOM      4  O   UNL     1     111.227 125.099 138.482  0.00  0.00    +0.000 OA
ATOM      5  O   UNL     1     112.059 123.407 136.252  0.00  0.00    +0.000 OA
ATOM      6  C   UNL     1     112.137 127.101 137.291  0.00  0.00    +0.000 A 
ATOM      7  C   UNL     1     112.491 127.022 136.550  0.00  0.00    +0.000 A 
ATOM      8  C   UNL     1     111.839 126.438 137.679  0.00  0.00    +0.000 A 
ATOM      9  C   UNL     1     111.894 125.694 137.327  0.00  0.00    +0.000 A 
ATOM     10  C   UNL     1     112.248 125.614 136.586  0.00  0.00    +0.000 A 
ATOM     11  C   UNL     1     111.579 125.009 137.741  0.00  0.00    +0.000 A 
ATOM     12  C   UNL     1     112.312 124.845 136.208  0.00  0.00    +0.000 A 
ATOM     13  C   UNL     1     111.634 124.233 137.378  0.00  0.00    +0.000 A 
ATOM     14  C   UNL     1     112.002 124.150 136.607  0.00  0.00    +0.000 A 
BRANCH   7  17
ATOM     15  O   UNL     1     112.189 129.101 134.613  0.00  0.00    +0.000 OA
ATOM     16  O   UNL     1     113.687 129.677 134.997  0.00  0.00    +0.000 OA
ATOM     17  C   UNL     1     112.790 127.685 136.162  0.00  0.00    +0.000 A 
ATOM     18  C   UNL     1     112.340 128.062 135.582  0.00  0.00    +0.000 A 
ATOM     19  C   UNL     1     113.539 127.973 136.354  0.00  0.00    +0.000 A 
ATOM     20  C   UNL     1     112.639 128.725 135.194  0.00  0.00    +0.000 A 
ATOM     21  C   UNL     1     113.838 128.637 135.966  0.00  0.00    +0.000 A 
ATOM     22  C   UNL     1     113.388 129.013 135.386  0.00  0.00    +0.000 A 
ENDBRANCH   7  17
ENDBRANCH   1   6
BRANCH   1  30
ATOM     23  O   UNL     1     110.685 127.994 137.385  0.00  0.00    +0.000 OA
ATOM     24  O   UNL     1     110.450 129.361 139.435  0.00  0.00    +0.000 OA
ATOM     25  O   UNL     1     109.132 129.054 138.492  0.00  0.00    +0.000 OA
ATOM     26  C   UNL     1     110.528 128.905 138.751  0.00  0.00    +0.000 C 
ATOM     27  C   UNL     1     109.869 128.752 138.280  0.00  0.00    +0.000 C 
ATOM     28  C   UNL     1     111.267 128.603 138.540  0.00  0.00    +0.000 C 
ATOM     29  C   UNL     1     109.948 128.297 137.597  0.00  0.00    +0.000 C 
ATOM     30  C   UNL     1     111.345 128.147 137.856  0.00  0.00    +0.000 C 
BRANCH  29  32
ATOM     31  O   UNL     1     109.250 128.449 136.359  0.00  0.00    +0.000 OA
ATOM     32  C   UNL     1     109.289 128.143 137.125  0.00  0.00    +0.000 C 
ENDBRANCH  29  32
BRANCH  28  33
ATOM     33  O   UNL     1     111.926 128.756 139.011  0.00  0.00    +0.000 OA
BRANCH  33  35
ATOM     34  O   UNL     1     111.871 130.137 138.647  0.00  0.00    +0.000 OA
ATOM     35  C   UNL     1     112.250 129.514 139.032  0.00  0.00    +0.000 C 
BRANCH  35  39
ATOM     36  O   UNL     1     114.118 128.771 141.064  0.00  0.00    +0.000 OA
ATOM     37  O   UNL     1     114.613 131.070 139.439  0.00  0.00    +0.000 OA
ATOM     38  O   UNL     1     115.070 130.056 140.658  0.00  0.00    +0.000 OA
ATOM     39  C   UNL     1     112.956 129.650 139.439  0.00  0.00    +0.000 A 
ATOM     40  C   UNL     1     113.432 130.292 139.236  0.00  0.00    +0.000 A 
ATOM     41  C   UNL     1     113.184 129.143 140.048  0.00  0.00    +0.000 A 
ATOM     42  C   UNL     1     113.890 129.278 140.455  0.00  0.00    +0.000 A 
ATOM     43  C   UNL     1     114.137 130.427 139.642  0.00  0.00    +0.000 A 
ATOM     44  C   UNL     1     114.366 129.921 140.252  0.00  0.00    +0.000 A 
ENDBRANCH  35  39
ENDBRANCH  33  35
ENDBRANCH  28  33
ENDBRANCH   1  30
TORSDOF 7
ENDMDL
MODEL 4
REMARK VINA RESULT:     -10.0      1.968      4.369
REMARK  Name = 6453359
REMARK  7 active torsions:
REMARK  status: ('A' for Active; 'I' for Inactive)
REMARK    1  A    between atoms: O_2  and  C_19
REMARK    2  A    between atoms: O_2  and  C_24
REMARK    3  A    between atoms: O_3  and  C_21
REMARK    4  A    between atoms: O_3  and  C_23
REMARK    5  A    between atoms: C_20  and  C_22
REMARK    6  A    between atoms: C_24  and  C_27
REMARK    7  A    between atoms: C_25  and  C_30
REMARK                            x       y       z     vdW  Elec       q    Type
REMARK                         _______ _______ _______ _____ _____    ______ ____
ROOT
ATOM      1  O   UNL     1     112.210 126.925 137.276  0.00  0.00    +0.000 OA
ENDROOT
BRANCH   1   6
ATOM      2  O   UNL     1     113.999 127.486 136.160  0.00  0.00    +0.000 OA
ATOM      3  O   UNL     1     111.818 128.458 136.810  0.00  0.00    +0.000 OA
ATOM      4  O   UNL     1     112.131 129.691 136.128  0.00  0.00    +0.000 OA
ATOM      5  O   UNL     1     114.700 129.944 134.763  0.00  0.00    +0.000 OA
ATOM      6  C   UNL     1     112.741 127.368 136.826  0.00  0.00    +0.000 A 
ATOM      7  C   UNL     1     113.468 127.043 136.609  0.00  0.00    +0.000 A 
ATOM      8  C   UNL     1     112.545 128.134 136.593  0.00  0.00    +0.000 A 
ATOM      9  C   UNL     1     113.076 128.577 136.143  0.00  0.00    +0.000 A 
ATOM     10  C   UNL     1     113.803 128.254 135.926  0.00  0.00    +0.000 A 
ATOM     11  C   UNL     1     112.861 129.375 135.907  0.00  0.00    +0.000 A 
ATOM     12  C   UNL     1     114.365 128.704 135.458  0.00  0.00    +0.000 A 
ATOM     13  C   UNL     1     113.410 129.841 135.438  0.00  0.00    +0.000 A 
ATOM     14  C   UNL     1     114.167 129.503 135.213  0.00  0.00    +0.000 A 
BRANCH   7  17
ATOM     15  O   UNL     1     113.647 124.250 136.031  0.00  0.00    +0.000 OA
ATOM     16  O   UNL     1     114.253 123.976 137.541  0.00  0.00    +0.000 OA
ATOM     17  C   UNL     1     113.664 126.277 136.842  0.00  0.00    +0.000 A 
ATOM     18  C   UNL     1     113.557 125.647 136.320  0.00  0.00    +0.000 A 
ATOM     19  C   UNL     1     113.967 126.140 137.597  0.00  0.00    +0.000 A 
ATOM     20  C   UNL     1     113.754 124.881 136.553  0.00  0.00    +0.000 A 
ATOM     21  C   UNL     1     114.164 125.373 137.830  0.00  0.00    +0.000 A 
ATOM     22  C   UNL     1     114.057 124.744 137.308  0.00  0.00    +0.000 A 
ENDBRANCH   7  17
ENDBRANCH   1   6
BRANCH   1  30
ATOM     23  O   UNL     1     111.313 126.655 136.196  0.00  0.00    +0.000 OA
ATOM     24  O   UNL     1     109.406 126.678 137.773  0.00  0.00    +0.000 OA
ATOM     25  O   UNL     1     109.146 126.400 136.168  0.00  0.00    +0.000 OA
ATOM     26  C   UNL     1     110.042 126.671 137.247  0.00  0.00    +0.000 C 
ATOM     27  C   UNL     1     109.912 126.531 136.445  0.00  0.00    +0.000 C 
ATOM     28  C   UNL     1     110.808 126.802 137.525  0.00  0.00    +0.000 C 
ATOM     29  C   UNL     1     110.547 126.524 135.920  0.00  0.00    +0.000 C 
ATOM     30  C   UNL     1     111.444 126.794 136.999  0.00  0.00    +0.000 C 
BRANCH  29  32
ATOM     31  O   UNL     1     110.716 125.700 134.764  0.00  0.00    +0.000 OA
ATOM     32  C   UNL     1     110.418 126.384 135.117  0.00  0.00    +0.000 C 
ENDBRANCH  29  32
BRANCH  28  33
ATOM     33  O   UNL     1     110.938 126.941 138.327  0.00  0.00    +0.000 OA
BRANCH  33  35
ATOM     34  O   UNL     1     110.725 125.555 138.606  0.00  0.00    +0.000 OA
ATOM     35  C   UNL     1     110.856 126.326 138.871  0.00  0.00    +0.000 C 
BRANCH  35  39
ATOM     36  O   UNL     1     109.583 126.672 141.406  0.00  0.00    +0.000 OA
ATOM     37  O   UNL     1     112.423 126.909 141.189  0.00  0.00    +0.000 OA
ATOM     38  O   UNL     1     111.052 126.946 142.106  0.00  0.00    +0.000 OA
ATOM     39  C   UNL     1     110.905 126.481 139.680  0.00  0.00    +0.000 A 
ATOM     40  C   UNL     1     111.640 126.618 140.030  0.00  0.00    +0.000 A 
ATOM     41  C   UNL     1     110.220 126.499 140.138  0.00  0.00    +0.000 A 
ATOM     42  C   UNL     1     110.269 126.654 140.948  0.00  0.00    +0.000 A 
ATOM     43  C   UNL     1     111.689 126.772 140.839  0.00  0.00    +0.000 A 
ATOM     44  C   UNL     1     111.003 126.791 141.298  0.00  0.00    +0.000 A 
ENDBRANCH  35  39
ENDBRANCH  33  35
ENDBRANCH  28  33
ENDBRANCH   1  30
TORSDOF 7
ENDMDL
MODEL 5
REMARK VINA RESULT:      -9.9      1.298      5.190
REMARK  Name = 6453359
REMARK  7 active torsions:
REMARK  status: ('A' for Active; 'I' for Inactive)
REMARK    1  A    between atoms: O_2  and  C_19
REMARK    2  A    between atoms: O_2  and  C_24
REMARK    3  A    between atoms: O_3  and  C_21
REMARK    4  A    between atoms: O_3  and  C_23
REMARK    5  A    between atoms: C_20  and  C_22
REMARK    6  A    between atoms: C_24  and  C_27
REMARK    7  A    between atoms: C_25  and  C_30
REMARK                            x       y       z     vdW  Elec       q    Type
REMARK                         _______ _______ _______ _____ _____    ______ ____
ROOT
ATOM      1  O   UNL     1     112.098 127.736 137.081  0.00  0.00    +0.000 OA
ENDROOT
BRANCH   1   6
ATOM      2  O   UNL     1     112.769 126.456 138.717  0.00  0.00    +0.000 OA
ATOM      3  O   UNL     1     112.750 128.854 138.104  0.00  0.00    +0.000 OA
ATOM      4  O   UNL     1     113.415 129.204 139.336  0.00  0.00    +0.000 OA
ATOM      5  O   UNL     1     114.111 127.088 141.224  0.00  0.00    +0.000 OA
ATOM      6  C   UNL     1     112.431 127.496 137.797  0.00  0.00    +0.000 A 
ATOM      7  C   UNL     1     112.437 126.696 138.001  0.00  0.00    +0.000 A 
ATOM      8  C   UNL     1     112.756 128.055 138.308  0.00  0.00    +0.000 A 
ATOM      9  C   UNL     1     113.089 127.815 139.024  0.00  0.00    +0.000 A 
ATOM     10  C   UNL     1     113.096 127.016 139.229  0.00  0.00    +0.000 A 
ATOM     11  C   UNL     1     113.426 128.407 139.549  0.00  0.00    +0.000 A 
ATOM     12  C   UNL     1     113.439 126.753 139.972  0.00  0.00    +0.000 A 
ATOM     13  C   UNL     1     113.773 128.163 140.296  0.00  0.00    +0.000 A 
ATOM     14  C   UNL     1     113.780 127.331 140.508  0.00  0.00    +0.000 A 
BRANCH   7  17
ATOM     15  O   UNL     1     112.769 124.650 136.034  0.00  0.00    +0.000 OA
ATOM     16  O   UNL     1     111.132 124.459 135.956  0.00  0.00    +0.000 OA
ATOM     17  C   UNL     1     112.111 126.137 137.490  0.00  0.00    +0.000 A 
ATOM     18  C   UNL     1     112.603 125.673 137.018  0.00  0.00    +0.000 A 
ATOM     19  C   UNL     1     111.293 126.041 137.452  0.00  0.00    +0.000 A 
ATOM     20  C   UNL     1     112.277 125.114 136.507  0.00  0.00    +0.000 A 
ATOM     21  C   UNL     1     110.966 125.482 136.940  0.00  0.00    +0.000 A 
ATOM     22  C   UNL     1     111.459 125.018 136.468  0.00  0.00    +0.000 A 
ENDBRANCH   7  17
ENDBRANCH   1   6
BRANCH   1  30
ATOM     23  O   UNL     1     113.348 127.959 136.425  0.00  0.00    +0.000 OA
ATOM     24  O   UNL     1     112.330 129.795 135.114  0.00  0.00    +0.000 OA
ATOM     25  O   UNL     1     113.918 129.406 134.895  0.00  0.00    +0.000 OA
ATOM     26  C   UNL     1     112.669 129.183 135.551  0.00  0.00    +0.000 C 
ATOM     27  C   UNL     1     113.463 128.989 135.441  0.00  0.00    +0.000 C 
ATOM     28  C   UNL     1     112.213 128.766 136.097  0.00  0.00    +0.000 C 
ATOM     29  C   UNL     1     113.802 128.377 135.878  0.00  0.00    +0.000 C 
ATOM     30  C   UNL     1     112.553 128.154 136.535  0.00  0.00    +0.000 C 
BRANCH  29  32
ATOM     31  O   UNL     1     114.804 127.420 135.530  0.00  0.00    +0.000 OA
ATOM     32  C   UNL     1     114.596 128.183 135.769  0.00  0.00    +0.000 C 
ENDBRANCH  29  32
BRANCH  28  33
ATOM     33  O   UNL     1     111.420 128.960 136.207  0.00  0.00    +0.000 OA
BRANCH  33  35
ATOM     34  O   UNL     1     111.109 128.420 134.921  0.00  0.00    +0.000 OA
ATOM     35  C   UNL     1     110.870 128.800 135.613  0.00  0.00    +0.000 C 
BRANCH  35  39
ATOM     36  O   UNL     1     108.901 130.828 136.032  0.00  0.00    +0.000 OA
ATOM     37  O   UNL     1     108.106 128.094 135.779  0.00  0.00    +0.000 OA
ATOM     38  O   UNL     1     107.714 129.681 136.003  0.00  0.00    +0.000 OA
ATOM     39  C   UNL     1     110.081 129.020 135.711  0.00  0.00    +0.000 A 
ATOM     40  C   UNL     1     109.487 128.447 135.696  0.00  0.00    +0.000 A 
ATOM     41  C   UNL     1     109.885 129.814 135.823  0.00  0.00    +0.000 A 
ATOM     42  C   UNL     1     109.096 130.034 135.920  0.00  0.00    +0.000 A 
ATOM     43  C   UNL     1     108.699 128.667 135.794  0.00  0.00    +0.000 A 
ATOM     44  C   UNL     1     108.502 129.461 135.906  0.00  0.00    +0.000 A 
ENDBRANCH  35  39
ENDBRANCH  33  35
ENDBRANCH  28  33
ENDBRANCH   1  30
TORSDOF 7
ENDMDL
MODEL 6
REMARK VINA RESULT:      -9.9      2.078      5.116
REMARK  Name = 6453359
REMARK  7 active torsions:
REMARK  status: ('A' for Active; 'I' for Inactive)
REMARK    1  A    between atoms: O_2  and  C_19
REMARK    2  A    between atoms: O_2  and  C_24
REMARK    3  A    between atoms: O_3  and  C_21
REMARK    4  A    between atoms: O_3  and  C_23
REMARK    5  A    between atoms: C_20  and  C_22
REMARK    6  A    between atoms: C_24  and  C_27
REMARK    7  A    between atoms: C_25  and  C_30
REMARK                            x       y       z     vdW  Elec       q    Type
REMARK                         _______ _______ _______ _____ _____    ______ ____
ROOT
ATOM      1  O   UNL     1     110.143 129.806 138.154  0.00  0.00    +0.000 OA
ENDROOT
BRANCH   1   6
ATOM      2  O   UNL     1     111.576 128.164 138.045  0.00  0.00    +0.000 OA
ATOM      3  O   UNL     1     109.206 128.542 138.648  0.00  0.00    +0.000 OA
ATOM      4  O   UNL     1     109.030 127.142 138.951  0.00  0.00    +0.000 OA
ATOM      5  O   UNL     1     111.295 125.327 138.638  0.00  0.00    +0.000 OA
ATOM      6  C   UNL     1     110.464 129.048 138.200  0.00  0.00    +0.000 A 
ATOM      7  C   UNL     1     111.255 128.922 137.999  0.00  0.00    +0.000 A 
ATOM      8  C   UNL     1     109.996 128.416 138.447  0.00  0.00    +0.000 A 
ATOM      9  C   UNL     1     110.317 127.658 138.493  0.00  0.00    +0.000 A 
ATOM     10  C   UNL     1     111.107 127.531 138.292  0.00  0.00    +0.000 A 
ATOM     11  C   UNL     1     109.819 127.006 138.752  0.00  0.00    +0.000 A 
ATOM     12  C   UNL     1     111.454 126.746 138.336  0.00  0.00    +0.000 A 
ATOM     13  C   UNL     1     110.149 126.215 138.802  0.00  0.00    +0.000 A 
ATOM     14  C   UNL     1     110.971 126.084 138.593  0.00  0.00    +0.000 A 
BRANCH   7  17
ATOM     15  O   UNL     1     113.210 130.927 138.571  0.00  0.00    +0.000 OA
ATOM     16  O   UNL     1     113.130 131.451 137.009  0.00  0.00    +0.000 OA
ATOM     17  C   UNL     1     111.723 129.554 137.751  0.00  0.00    +0.000 A 
ATOM     18  C   UNL     1     112.232 129.925 138.285  0.00  0.00    +0.000 A 
ATOM     19  C   UNL     1     111.683 129.816 136.970  0.00  0.00    +0.000 A 
ATOM     20  C   UNL     1     112.701 130.556 138.038  0.00  0.00    +0.000 A 
ATOM     21  C   UNL     1     112.152 130.449 136.722  0.00  0.00    +0.000 A 
ATOM     22  C   UNL     1     112.661 130.818 137.256  0.00  0.00    +0.000 A 
ENDBRANCH   7  17
ENDBRANCH   1   6
BRANCH   1  30
ATOM     23  O   UNL     1     110.124 130.014 139.567  0.00  0.00    +0.000 OA
ATOM     24  O   UNL     1     108.127 131.457 139.328  0.00  0.00    +0.000 OA
ATOM     25  O   UNL     1     108.774 131.184 140.821  0.00  0.00    +0.000 OA
ATOM     26  C   UNL     1     108.793 130.976 139.408  0.00  0.00    +0.000 C 
ATOM     27  C   UNL     1     109.116 130.840 140.154  0.00  0.00    +0.000 C 
ATOM     28  C   UNL     1     109.135 130.632 138.740  0.00  0.00    +0.000 C 
ATOM     29  C   UNL     1     109.781 130.359 140.234  0.00  0.00    +0.000 C 
ATOM     30  C   UNL     1     109.800 130.151 138.820  0.00  0.00    +0.000 C 
BRANCH  29  32
ATOM     31  O   UNL     1     110.874 130.473 141.148  0.00  0.00    +0.000 OA
ATOM     32  C   UNL     1     110.105 130.222 140.980  0.00  0.00    +0.000 C 
ENDBRANCH  29  32
BRANCH  28  33
ATOM     33  O   UNL     1     108.812 130.768 137.994  0.00  0.00    +0.000 OA
BRANCH  33  35
ATOM     34  O   UNL     1     109.267 132.122 138.044  0.00  0.00    +0.000 OA
ATOM     35  C   UNL     1     108.889 131.509 137.641  0.00  0.00    +0.000 C 
BRANCH  35  39
ATOM     36  O   UNL     1     109.194 132.567 135.003  0.00  0.00    +0.000 OA
ATOM     37  O   UNL     1     106.776 131.230 135.736  0.00  0.00    +0.000 OA
ATOM     38  O   UNL     1     107.684 132.028 134.613  0.00  0.00    +0.000 OA
ATOM     39  C   UNL     1     108.587 131.639 136.883  0.00  0.00    +0.000 A 
ATOM     40  C   UNL     1     107.832 131.370 136.688  0.00  0.00    +0.000 A 
ATOM     41  C   UNL     1     109.041 132.038 136.322  0.00  0.00    +0.000 A 
ATOM     42  C   UNL     1     108.739 132.168 135.565  0.00  0.00    +0.000 A 
ATOM     43  C   UNL     1     107.531 131.500 135.932  0.00  0.00    +0.000 A 
ATOM     44  C   UNL     1     107.984 131.898 135.369  0.00  0.00    +0.000 A 
ENDBRANCH  35  39
ENDBRANCH  33  35
ENDBRANCH  28  33
ENDBRANCH   1  30
TORSDOF 7
ENDMDL
MODEL 7
REMARK VINA RESULT:      -9.9      1.742      1.991
REMARK  Name = 6453359
REMARK  7 active torsions:
REMARK  status: ('A' for Active; 'I' for Inactive)
REMARK    1  A    between atoms: O_2  and  C_19
REMARK    2  A    between atoms: O_2  and  C_24
REMARK    3  A    between atoms: O_3  and  C_21
REMARK    4  A    between atoms: O_3  and  C_23
REMARK    5  A    between atoms: C_20  and  C_22
REMARK    6  A    between atoms: C_24  and  C_27
REMARK    7  A    between atoms: C_25  and  C_30
REMARK                            x       y       z     vdW  Elec       q    Type
REMARK                         _______ _______ _______ _____ _____    ______ ____
ROOT
ATOM      1  O   UNL     1     112.621 129.280 137.924  0.00  0.00    +0.000 OA
ENDROOT
BRANCH   1   6
ATOM      2  O   UNL     1     112.110 131.097 136.827  0.00  0.00    +0.000 OA
ATOM      3  O   UNL     1     111.436 129.902 138.888  0.00  0.00    +0.000 OA
ATOM      4  O   UNL     1     110.458 130.919 139.192  0.00  0.00    +0.000 OA
ATOM      5  O   UNL     1     110.157 133.186 137.376  0.00  0.00    +0.000 OA
ATOM      6  C   UNL     1     112.253 129.989 137.719  0.00  0.00    +0.000 A 
ATOM      7  C   UNL     1     112.478 130.387 137.032  0.00  0.00    +0.000 A 
ATOM      8  C   UNL     1     111.661 130.300 138.201  0.00  0.00    +0.000 A 
ATOM      9  C   UNL     1     111.293 131.010 137.996  0.00  0.00    +0.000 A 
ATOM     10  C   UNL     1     111.517 131.408 137.310  0.00  0.00    +0.000 A 
ATOM     11  C   UNL     1     110.676 131.324 138.506  0.00  0.00    +0.000 A 
ATOM     12  C   UNL     1     111.142 132.148 137.085  0.00  0.00    +0.000 A 
ATOM     13  C   UNL     1     110.289 132.062 138.298  0.00  0.00    +0.000 A 
ATOM     14  C   UNL     1     110.524 132.477 137.583  0.00  0.00    +0.000 A 
BRANCH   7  17
ATOM     15  O   UNL     1     115.194 130.378 136.141  0.00  0.00    +0.000 OA
ATOM     16  O   UNL     1     114.849 129.142 135.103  0.00  0.00    +0.000 OA
ATOM     17  C   UNL     1     113.071 130.076 136.550  0.00  0.00    +0.000 A 
ATOM     18  C   UNL     1     113.836 130.382 136.587  0.00  0.00    +0.000 A 
ATOM     19  C   UNL     1     112.898 129.459 136.031  0.00  0.00    +0.000 A 
ATOM     20  C   UNL     1     114.428 130.072 136.105  0.00  0.00    +0.000 A 
ATOM     21  C   UNL     1     113.491 129.147 135.548  0.00  0.00    +0.000 A 
ATOM     22  C   UNL     1     114.256 129.454 135.586  0.00  0.00    +0.000 A 
ENDBRANCH   7  17
ENDBRANCH   1   6
BRANCH   1  30
ATOM     23  O   UNL     1     113.414 129.845 138.970  0.00  0.00    +0.000 OA
ATOM     24  O   UNL     1     113.294 127.708 140.214  0.00  0.00    +0.000 OA
ATOM     25  O   UNL     1     114.126 128.984 140.845  0.00  0.00    +0.000 OA
ATOM     26  C   UNL     1     113.334 128.420 139.799  0.00  0.00    +0.000 C 
ATOM     27  C   UNL     1     113.750 129.058 140.115  0.00  0.00    +0.000 C 
ATOM     28  C   UNL     1     112.957 128.493 139.069  0.00  0.00    +0.000 C 
ATOM     29  C   UNL     1     113.790 129.770 139.701  0.00  0.00    +0.000 C 
ATOM     30  C   UNL     1     112.997 129.206 138.654  0.00  0.00    +0.000 C 
BRANCH  29  32
ATOM     31  O   UNL     1     114.840 130.733 139.599  0.00  0.00    +0.000 OA
ATOM     32  C   UNL     1     114.206 130.409 140.016  0.00  0.00    +0.000 C 
ENDBRANCH  29  32
BRANCH  28  33
ATOM     33  O   UNL     1     112.541 127.856 138.753  0.00  0.00    +0.000 OA
BRANCH  33  35
ATOM     34  O   UNL     1     113.771 127.163 138.529  0.00  0.00    +0.000 OA
ATOM     35  C   UNL     1     112.948 127.190 138.485  0.00  0.00    +0.000 C 
BRANCH  35  39
ATOM     36  O   UNL     1     112.459 125.367 136.339  0.00  0.00    +0.000 OA
ATOM     37  O   UNL     1     110.941 125.173 138.753  0.00  0.00    +0.000 OA
ATOM     38  O   UNL     1     111.284 124.630 137.233  0.00  0.00    +0.000 OA
ATOM     39  C   UNL     1     112.532 126.549 138.172  0.00  0.00    +0.000 A 
ATOM     40  C   UNL     1     111.944 126.181 138.619  0.00  0.00    +0.000 A 
ATOM     41  C   UNL     1     112.703 126.278 137.412  0.00  0.00    +0.000 A 
ATOM     42  C   UNL     1     112.287 125.638 137.099  0.00  0.00    +0.000 A 
ATOM     43  C   UNL     1     111.528 125.542 138.306  0.00  0.00    +0.000 A 
ATOM     44  C   UNL     1     111.699 125.269 137.546  0.00  0.00    +0.000 A 
ENDBRANCH  35  39
ENDBRANCH  33  35
ENDBRANCH  28  33
ENDBRANCH   1  30
TORSDOF 7
ENDMDL
MODEL 8
REMARK VINA RESULT:      -9.8      1.115      4.417
REMARK  Name = 6453359
REMARK  7 active torsions:
REMARK  status: ('A' for Active; 'I' for Inactive)
REMARK    1  A    between atoms: O_2  and  C_19
REMARK    2  A    between atoms: O_2  and  C_24
REMARK    3  A    between atoms: O_3  and  C_21
REMARK    4  A    between atoms: O_3  and  C_23
REMARK    5  A    between atoms: C_20  and  C_22
REMARK    6  A    between atoms: C_24  and  C_27
REMARK    7  A    between atoms: C_25  and  C_30
REMARK                            x       y       z     vdW  Elec       q    Type
REMARK                         _______ _______ _______ _____ _____    ______ ____
ROOT
ATOM      1  O   UNL     1     111.618 127.963 137.245  0.00  0.00    +0.000 OA
ENDROOT
BRANCH   1   6
ATOM      2  O   UNL     1     112.839 126.385 136.361  0.00  0.00    +0.000 OA
ATOM      3  O   UNL     1     110.907 126.621 137.891  0.00  0.00    +0.000 OA
ATOM      4  O   UNL     1     110.817 125.190 138.045  0.00  0.00    +0.000 OA
ATOM      5  O   UNL     1     112.719 123.488 136.626  0.00  0.00    +0.000 OA
ATOM      6  C   UNL     1     111.906 127.214 137.058  0.00  0.00    +0.000 A 
ATOM      7  C   UNL     1     112.550 127.135 136.548  0.00  0.00    +0.000 A 
ATOM      8  C   UNL     1     111.551 126.543 137.381  0.00  0.00    +0.000 A 
ATOM      9  C   UNL     1     111.840 125.793 137.194  0.00  0.00    +0.000 A 
ATOM     10  C   UNL     1     112.484 125.714 136.684  0.00  0.00    +0.000 A 
ATOM     11  C   UNL     1     111.461 125.101 137.536  0.00  0.00    +0.000 A 
ATOM     12  C   UNL     1     112.794 124.939 136.481  0.00  0.00    +0.000 A 
ATOM     13  C   UNL     1     111.758 124.318 137.345  0.00  0.00    +0.000 A 
ATOM     14  C   UNL     1     112.428 124.236 136.814  0.00  0.00    +0.000 A 
BRANCH   7  17
ATOM     15  O   UNL     1     112.570 129.237 134.612  0.00  0.00    +0.000 OA
ATOM     16  O   UNL     1     113.973 129.819 135.258  0.00  0.00    +0.000 OA
ATOM     17  C   UNL     1     112.906 127.806 136.226  0.00  0.00    +0.000 A 
ATOM     18  C   UNL     1     112.560 128.186 135.580  0.00  0.00    +0.000 A 
ATOM     19  C   UNL     1     113.607 128.096 136.549  0.00  0.00    +0.000 A 
ATOM     20  C   UNL     1     112.915 128.857 135.258  0.00  0.00    +0.000 A 
ATOM     21  C   UNL     1     113.963 128.768 136.226  0.00  0.00    +0.000 A 
ATOM     22  C   UNL     1     113.617 129.147 135.580  0.00  0.00    +0.000 A 
ENDBRANCH   7  17
ENDBRANCH   1   6
BRANCH   1  30
ATOM     23  O   UNL     1     112.144 127.954 138.574  0.00  0.00    +0.000 OA
ATOM     24  O   UNL     1     110.296 129.424 139.316  0.00  0.00    +0.000 OA
ATOM     25  O   UNL     1     111.438 128.924 140.396  0.00  0.00    +0.000 OA
ATOM     26  C   UNL     1     110.912 128.934 139.069  0.00  0.00    +0.000 C 
ATOM     27  C   UNL     1     111.482 128.684 139.609  0.00  0.00    +0.000 C 
ATOM     28  C   UNL     1     110.956 128.694 138.280  0.00  0.00    +0.000 C 
ATOM     29  C   UNL     1     112.098 128.194 139.361  0.00  0.00    +0.000 C 
ATOM     30  C   UNL     1     111.572 128.204 138.033  0.00  0.00    +0.000 C 
BRANCH  29  32
ATOM     31  O   UNL     1     113.459 128.164 139.798  0.00  0.00    +0.000 OA
ATOM     32  C   UNL     1     112.669 127.944 139.901  0.00  0.00    +0.000 C 
ENDBRANCH  29  32
BRANCH  28  33
ATOM     33  O   UNL     1     110.386 128.944 137.740  0.00  0.00    +0.000 OA
BRANCH  33  35
ATOM     34  O   UNL     1     110.885 130.280 137.826  0.00  0.00    +0.000 OA
ATOM     35  C   UNL     1     110.372 129.729 137.489  0.00  0.00    +0.000 C 
BRANCH  35  39
ATOM     36  O   UNL     1     107.914 129.363 136.077  0.00  0.00    +0.000 OA
ATOM     37  O   UNL     1     109.666 131.506 135.365  0.00  0.00    +0.000 OA
ATOM     38  O   UNL     1     108.262 130.670 135.132  0.00  0.00    +0.000 OA
ATOM     39  C   UNL     1     109.844 129.965 136.899  0.00  0.00    +0.000 A 
ATOM     40  C   UNL     1     110.019 130.618 136.426  0.00  0.00    +0.000 A 
ATOM     41  C   UNL     1     109.143 129.546 136.783  0.00  0.00    +0.000 A 
ATOM     42  C   UNL     1     108.615 129.782 136.193  0.00  0.00    +0.000 A 
ATOM     43  C   UNL     1     109.491 130.853 135.837  0.00  0.00    +0.000 A 
ATOM     44  C   UNL     1     108.790 130.435 135.720  0.00  0.00    +0.000 A 
ENDBRANCH  35  39
ENDBRANCH  33  35
ENDBRANCH  28  33
ENDBRANCH   1  30
TORSDOF 7
ENDMDL
MODEL 9
REMARK VINA RESULT:      -9.8      1.666      4.127
REMARK  Name = 6453359
REMARK  7 active torsions:
REMARK  status: ('A' for Active; 'I' for Inactive)
REMARK    1  A    between atoms: O_2  and  C_19
REMARK    2  A    between atoms: O_2  and  C_24
REMARK    3  A    between atoms: O_3  and  C_21
REMARK    4  A    between atoms: O_3  and  C_23
REMARK    5  A    between atoms: C_20  and  C_22
REMARK    6  A    between atoms: C_24  and  C_27
REMARK    7  A    between atoms: C_25  and  C_30
REMARK                            x       y       z     vdW  Elec       q    Type
REMARK                         _______ _______ _______ _____ _____    ______ ____
ROOT
ATOM      1  O   UNL     1     111.396 128.172 137.156  0.00  0.00    +0.000 OA
ENDROOT
BRANCH   1   6
ATOM      2  O   UNL     1     113.031 127.990 135.722  0.00  0.00    +0.000 OA
ATOM      3  O   UNL     1     112.159 129.620 137.368  0.00  0.00    +0.000 OA
ATOM      4  O   UNL     1     113.212 130.552 137.046  0.00  0.00    +0.000 OA
ATOM      5  O   UNL     1     115.185 129.821 135.022  0.00  0.00    +0.000 OA
ATOM      6  C   UNL     1     112.068 128.353 136.713  0.00  0.00    +0.000 A 
ATOM      7  C   UNL     1     112.359 127.809 136.165  0.00  0.00    +0.000 A 
ATOM      8  C   UNL     1     112.449 129.076 136.819  0.00  0.00    +0.000 A 
ATOM      9  C   UNL     1     113.121 129.257 136.376  0.00  0.00    +0.000 A 
ATOM     10  C   UNL     1     113.413 128.714 135.828  0.00  0.00    +0.000 A 
ATOM     11  C   UNL     1     113.510 130.015 136.495  0.00  0.00    +0.000 A 
ATOM     12  C   UNL     1     114.112 128.890 135.360  0.00  0.00    +0.000 A 
ATOM     13  C   UNL     1     114.210 130.208 136.037  0.00  0.00    +0.000 A 
ATOM     14  C   UNL     1     114.513 129.643 135.466  0.00  0.00    +0.000 A 
BRANCH   7  17
ATOM     15  O   UNL     1     110.537 126.161 134.705  0.00  0.00    +0.000 OA
ATOM     16  O   UNL     1     110.835 124.912 135.742  0.00  0.00    +0.000 OA
ATOM     17  C   UNL     1     111.978 127.085 136.059  0.00  0.00    +0.000 A 
ATOM     18  C   UNL     1     111.448 126.985 135.435  0.00  0.00    +0.000 A 
ATOM     19  C   UNL     1     112.127 126.461 136.577  0.00  0.00    +0.000 A 
ATOM     20  C   UNL     1     111.067 126.261 135.329  0.00  0.00    +0.000 A 
ATOM     21  C   UNL     1     111.746 125.737 136.472  0.00  0.00    +0.000 A 
ATOM     22  C   UNL     1     111.216 125.637 135.847  0.00  0.00    +0.000 A 
ENDBRANCH   7  17
ENDBRANCH   1   6
BRANCH   1  30
ATOM     23  O   UNL     1     110.535 129.049 136.428  0.00  0.00    +0.000 OA
ATOM     24  O   UNL     1     109.178 129.409 138.466  0.00  0.00    +0.000 OA
ATOM     25  O   UNL     1     108.770 130.166 137.059  0.00  0.00    +0.000 OA
ATOM     26  C   UNL     1     109.630 129.289 137.787  0.00  0.00    +0.000 C 
ATOM     27  C   UNL     1     109.426 129.668 137.083  0.00  0.00    +0.000 C 
ATOM     28  C   UNL     1     110.287 128.790 137.812  0.00  0.00    +0.000 C 
ATOM     29  C   UNL     1     109.879 129.548 136.404  0.00  0.00    +0.000 C 
ATOM     30  C   UNL     1     110.740 128.670 137.132  0.00  0.00    +0.000 C 
BRANCH  29  32
ATOM     31  O   UNL     1     109.450 129.480 135.043  0.00  0.00    +0.000 OA
ATOM     32  C   UNL     1     109.675 129.926 135.700  0.00  0.00    +0.000 C 
ENDBRANCH  29  32
BRANCH  28  33
ATOM     33  O   UNL     1     110.492 128.412 138.515  0.00  0.00    +0.000 OA
BRANCH  33  35
ATOM     34  O   UNL     1     109.334 127.581 138.407  0.00  0.00    +0.000 OA
ATOM     35  C   UNL     1     110.031 127.788 138.796  0.00  0.00    +0.000 C 
BRANCH  35  39
ATOM     36  O   UNL     1     110.084 125.365 140.312  0.00  0.00    +0.000 OA
ATOM     37  O   UNL     1     111.400 127.700 141.303  0.00  0.00    +0.000 OA
ATOM     38  O   UNL     1     110.979 126.114 141.478  0.00  0.00    +0.000 OA
ATOM     39  C   UNL     1     110.268 127.369 139.467  0.00  0.00    +0.000 A 
ATOM     40  C   UNL     1     110.716 127.744 140.050  0.00  0.00    +0.000 A 
ATOM     41  C   UNL     1     110.058 126.576 139.554  0.00  0.00    +0.000 A 
ATOM     42  C   UNL     1     110.295 126.158 140.225  0.00  0.00    +0.000 A 
ATOM     43  C   UNL     1     110.952 127.325 140.720  0.00  0.00    +0.000 A 
ATOM     44  C   UNL     1     110.742 126.532 140.808  0.00  0.00    +0.000 A 
ENDBRANCH  35  39
ENDBRANCH  33  35
ENDBRANCH  28  33
ENDBRANCH   1  30
TORSDOF 7
ENDMDL
MODEL 10
REMARK VINA RESULT:      -9.8      1.420      3.524
REMARK  Name = 6453359
REMARK  7 active torsions:
REMARK  status: ('A' for Active; 'I' for Inactive)
REMARK    1  A    between atoms: O_2  and  C_19
REMARK    2  A    between atoms: O_2  and  C_24
REMARK    3  A    between atoms: O_3  and  C_21
REMARK    4  A    between atoms: O_3  and  C_23
REMARK    5  A    between atoms: C_20  and  C_22
REMARK    6  A    between atoms: C_24  and  C_27
REMARK    7  A    between atoms: C_25  and  C_30
REMARK                            x       y       z     vdW  Elec       q    Type
REMARK                         _______ _______ _______ _____ _____    ______ ____
ROOT
ATOM      1  O   UNL     1     112.307 129.181 137.914  0.00  0.00    +0.000 OA
ENDROOT
BRANCH   1   6
ATOM      2  O   UNL     1     111.424 130.044 136.115  0.00  0.00    +0.000 OA
ATOM      3  O   UNL     1     110.711 128.838 138.156  0.00  0.00    +0.000 OA
ATOM      4  O   UNL     1     109.332 128.884 137.736  0.00  0.00    +0.000 OA
ATOM      5  O   UNL     1     108.661 130.175 135.204  0.00  0.00    +0.000 OA
ATOM      6  C   UNL     1     111.747 129.411 137.355  0.00  0.00    +0.000 A 
ATOM      7  C   UNL     1     111.985 129.814 136.675  0.00  0.00    +0.000 A 
ATOM      8  C   UNL     1     110.950 129.240 137.475  0.00  0.00    +0.000 A 
ATOM      9  C   UNL     1     110.389 129.471 136.916  0.00  0.00    +0.000 A 
ATOM     10  C   UNL     1     110.626 129.873 136.236  0.00  0.00    +0.000 A 
ATOM     11  C   UNL     1     109.560 129.287 137.053  0.00  0.00    +0.000 A 
ATOM     12  C   UNL     1     110.052 130.119 135.645  0.00  0.00    +0.000 A 
ATOM     13  C   UNL     1     108.972 129.525 136.473  0.00  0.00    +0.000 A 
ATOM     14  C   UNL     1     109.220 129.943 135.765  0.00  0.00    +0.000 A 
BRANCH   7  17
ATOM     15  O   UNL     1     114.494 129.191 135.456  0.00  0.00    +0.000 OA
ATOM     16  O   UNL     1     115.177 130.500 136.192  0.00  0.00    +0.000 OA
ATOM     17  C   UNL     1     112.782 129.985 136.554  0.00  0.00    +0.000 A 
ATOM     18  C   UNL     1     113.239 129.502 136.065  0.00  0.00    +0.000 A 
ATOM     19  C   UNL     1     113.124 130.639 136.923  0.00  0.00    +0.000 A 
ATOM     20  C   UNL     1     114.037 129.674 135.945  0.00  0.00    +0.000 A 
ATOM     21  C   UNL     1     113.922 130.811 136.802  0.00  0.00    +0.000 A 
ATOM     22  C   UNL     1     114.378 130.328 136.313  0.00  0.00    +0.000 A 
ENDBRANCH   7  17
ENDBRANCH   1   6
BRANCH   1  30
ATOM     23  O   UNL     1     112.267 127.797 137.561  0.00  0.00    +0.000 OA
ATOM     24  O   UNL     1     112.793 127.184 139.900  0.00  0.00    +0.000 OA
ATOM     25  O   UNL     1     112.577 126.005 138.767  0.00  0.00    +0.000 OA
ATOM     26  C   UNL     1     112.617 127.388 139.121  0.00  0.00    +0.000 C 
ATOM     27  C   UNL     1     112.510 126.798 138.554  0.00  0.00    +0.000 C 
ATOM     28  C   UNL     1     112.550 128.182 138.908  0.00  0.00    +0.000 C 
ATOM     29  C   UNL     1     112.335 127.003 137.775  0.00  0.00    +0.000 C 
ATOM     30  C   UNL     1     112.375 128.387 138.128  0.00  0.00    +0.000 C 
BRANCH  29  32
ATOM     31  O   UNL     1     112.730 126.373 136.554  0.00  0.00    +0.000 OA
ATOM     32  C   UNL     1     112.227 126.414 137.208  0.00  0.00    +0.000 C 
ENDBRANCH  29  32
BRANCH  28  33
ATOM     33  O   UNL     1     112.658 128.772 139.474  0.00  0.00    +0.000 OA
BRANCH  33  35
ATOM     34  O   UNL     1     114.045 128.438 139.561  0.00  0.00    +0.000 OA
ATOM     35  C   UNL     1     113.409 128.914 139.784  0.00  0.00    +0.000 C 
BRANCH  35  39
ATOM     36  O   UNL     1     114.836 131.257 140.584  0.00  0.00    +0.000 OA
ATOM     37  O   UNL     1     112.680 130.281 142.186  0.00  0.00    +0.000 OA
ATOM     38  O   UNL     1     113.875 131.387 141.918  0.00  0.00    +0.000 OA
ATOM     39  C   UNL     1     113.525 129.533 140.318  0.00  0.00    +0.000 A 
ATOM     40  C   UNL     1     113.045 129.598 140.985  0.00  0.00    +0.000 A 
ATOM     41  C   UNL     1     114.123 130.085 140.184  0.00  0.00    +0.000 A 
ATOM     42  C   UNL     1     114.239 130.704 140.718  0.00  0.00    +0.000 A 
ATOM     43  C   UNL     1     113.161 130.216 141.518  0.00  0.00    +0.000 A 
ATOM     44  C   UNL     1     113.758 130.769 141.385  0.00  0.00    +0.000 A 
ENDBRANCH  35  39
ENDBRANCH  33  35
ENDBRANCH  28  33
ENDBRANCH   1  30
TORSDOF 7
ENDMDL
