MODEL 1
REMARK VINA RESULT:     -10.1      0.000      0.000
REMARK  Name = 42607577
REMARK  14 active torsions:
REMARK  status: ('A' for Active; 'I' for Inactive)
REMARK    1  A    between atoms: O_2  and  C_19
REMARK    2  A    between atoms: O_2  and  C_24
REMARK    3  A    between atoms: O_5  and  C_21
REMARK    4  A    between atoms: O_5  and  C_23
REMARK    5  A    between atoms: O_6  and  C_22
REMARK    6  A    between atoms: O_6  and  C_27
REMARK    7  A    between atoms: C_20  and  C_22
REMARK    8  A    between atoms: C_24  and  C_28
REMARK    9  A    between atoms: C_27  and  C_32
REMARK   10  A    between atoms: C_31  and  C_34
REMARK   11  A    between atoms: C_33  and  C_35
REMARK   12  A    between atoms: C_34  and  C_37
REMARK   13  A    between atoms: C_36  and  C_38
REMARK   14  A    between atoms: C_43  and  C_47
REMARK                            x       y       z     vdW  Elec       q    Type
REMARK                         _______ _______ _______ _____ _____    ______ ____
ROOT
ATOM      1  O   UNL     1     111.659 130.621 140.729  0.00  0.00    +0.000 OA
ATOM      2  O   UNL     1     110.030 131.519 142.362  0.00  0.00    +0.000 OA
ATOM      3  O   UNL     1     109.616 131.388 140.770  0.00  0.00    +0.000 OA
ATOM      4  C   UNL     1     110.573 131.220 141.818  0.00  0.00    +0.000 C 
ATOM      5  C   UNL     1     110.366 131.154 141.021  0.00  0.00    +0.000 C 
ATOM      6  C   UNL     1     111.323 130.986 142.069  0.00  0.00    +0.000 C 
ATOM      7  C   UNL     1     110.909 130.855 140.477  0.00  0.00    +0.000 C 
ATOM      8  C   UNL     1     111.866 130.687 141.525  0.00  0.00    +0.000 C 
ENDROOT
BRANCH   6   9
ATOM      9  O   UNL     1     111.530 131.052 142.865  0.00  0.00    +0.000 OA
BRANCH   9  11
ATOM     10  O   UNL     1     111.900 132.422 142.703  0.00  0.00    +0.000 OA
ATOM     11  C   UNL     1     111.683 131.794 143.192  0.00  0.00    +0.000 C 
BRANCH  11  12
ATOM     12  C   UNL     1     111.620 131.906 144.006  0.00  0.00    +0.000 C 
ATOM     13  C   UNL     1     112.116 132.445 144.388  0.00  0.00    +0.000 C 
BRANCH  13  16
ATOM     14  O   UNL     1     110.989 133.842 146.612  0.00  0.00    +0.000 OA
ATOM     15  O   UNL     1     111.859 132.896 147.647  0.00  0.00    +0.000 OA
ATOM     16  C   UNL     1     112.052 132.557 145.203  0.00  0.00    +0.000 A 
ATOM     17  C   UNL     1     111.553 133.143 145.501  0.00  0.00    +0.000 A 
ATOM     18  C   UNL     1     112.486 132.085 145.721  0.00  0.00    +0.000 A 
ATOM     19  C   UNL     1     111.489 133.256 146.315  0.00  0.00    +0.000 A 
ATOM     20  C   UNL     1     112.422 132.197 146.536  0.00  0.00    +0.000 A 
ATOM     21  C   UNL     1     111.923 132.783 146.833  0.00  0.00    +0.000 A 
ENDBRANCH  13  16
ENDBRANCH  11  12
ENDBRANCH   9  11
ENDBRANCH   6   9
BRANCH   8  22
ATOM     22  O   UNL     1     112.616 130.453 141.777  0.00  0.00    +0.000 OA
BRANCH  22  25
ATOM     23  O   UNL     1     114.108 130.491 141.072  0.00  0.00    +0.000 OA
ATOM     24  O   UNL     1     114.779 129.103 140.485  0.00  0.00    +0.000 OA
ATOM     25  C   UNL     1     112.952 129.758 141.484  0.00  0.00    +0.000 A 
ATOM     26  C   UNL     1     113.698 129.778 141.131  0.00  0.00    +0.000 A 
ATOM     27  C   UNL     1     112.543 129.045 141.543  0.00  0.00    +0.000 A 
ATOM     28  C   UNL     1     114.034 129.083 140.837  0.00  0.00    +0.000 A 
ATOM     29  C   UNL     1     112.878 128.351 141.249  0.00  0.00    +0.000 A 
ATOM     30  C   UNL     1     113.623 128.370 140.897  0.00  0.00    +0.000 A 
BRANCH  30  32
ATOM     31  O   UNL     1     114.556 127.294 141.028  0.00  0.00    +0.000 OA
ATOM     32  C   UNL     1     113.959 127.676 140.604  0.00  0.00    +0.000 C 
BRANCH  32  33
ATOM     33  C   UNL     1     113.698 127.362 139.887  0.00  0.00    +0.000 C 
ATOM     34  C   UNL     1     113.887 126.585 139.683  0.00  0.00    +0.000 C 
BRANCH  34  37
ATOM     35  O   UNL     1     114.452 125.571 137.071  0.00  0.00    +0.000 OA
ATOM     36  O   UNL     1     112.840 125.335 136.814  0.00  0.00    +0.000 OA
ATOM     37  C   UNL     1     113.626 126.273 138.965  0.00  0.00    +0.000 A 
ATOM     38  C   UNL     1     114.170 126.078 138.377  0.00  0.00    +0.000 A 
ATOM     39  C   UNL     1     112.819 126.155 138.836  0.00  0.00    +0.000 A 
ATOM     40  C   UNL     1     113.908 125.766 137.659  0.00  0.00    +0.000 A 
ATOM     41  C   UNL     1     112.557 125.842 138.119  0.00  0.00    +0.000 A 
ATOM     42  C   UNL     1     113.102 125.648 137.531  0.00  0.00    +0.000 A 
ENDBRANCH  34  37
ENDBRANCH  32  33
ENDBRANCH  30  32
ENDBRANCH  22  25
ENDBRANCH   8  22
BRANCH   7  43
ATOM     43  C   UNL     1     110.702 130.789 139.682  0.00  0.00    +0.000 C 
BRANCH  43  44
ATOM     44  O   UNL     1     111.280 130.864 139.097  0.00  0.00    +0.000 OA
BRANCH  44  46
ATOM     45  O   UNL     1     110.391 130.377 138.090  0.00  0.00    +0.000 OA
ATOM     46  C   UNL     1     111.158 130.533 138.352  0.00  0.00    +0.000 C 
BRANCH  46  47
ATOM     47  C   UNL     1     111.802 130.357 137.867  0.00  0.00    +0.000 C 
ATOM     48  C   UNL     1     111.866 129.612 137.519  0.00  0.00    +0.000 C 
BRANCH  48  50
ATOM     49  O   UNL     1     114.443 128.910 135.582  0.00  0.00    +0.000 OA
ATOM     50  C   UNL     1     112.510 129.437 137.035  0.00  0.00    +0.000 A 
ATOM     51  C   UNL     1     113.273 129.632 137.278  0.00  0.00    +0.000 A 
ATOM     52  C   UNL     1     112.391 129.066 136.308  0.00  0.00    +0.000 A 
ATOM     53  C   UNL     1     113.918 129.456 136.793  0.00  0.00    +0.000 A 
ATOM     54  C   UNL     1     113.035 128.890 135.824  0.00  0.00    +0.000 A 
ATOM     55  C   UNL     1     113.798 129.086 136.066  0.00  0.00    +0.000 A 
ENDBRANCH  48  50
ENDBRANCH  46  47
ENDBRANCH  44  46
ENDBRANCH  43  44
ENDBRANCH   7  43
TORSDOF 14
ENDMDL
MODEL 2
REMARK VINA RESULT:      -9.4      1.411      2.408
REMARK  Name = 42607577
REMARK  14 active torsions:
REMARK  status: ('A' for Active; 'I' for Inactive)
REMARK    1  A    between atoms: O_2  and  C_19
REMARK    2  A    between atoms: O_2  and  C_24
REMARK    3  A    between atoms: O_5  and  C_21
REMARK    4  A    between atoms: O_5  and  C_23
REMARK    5  A    between atoms: O_6  and  C_22
REMARK    6  A    between atoms: O_6  and  C_27
REMARK    7  A    between atoms: C_20  and  C_22
REMARK    8  A    between atoms: C_24  and  C_28
REMARK    9  A    between atoms: C_27  and  C_32
REMARK   10  A    between atoms: C_31  and  C_34
REMARK   11  A    between atoms: C_33  and  C_35
REMARK   12  A    between atoms: C_34  and  C_37
REMARK   13  A    between atoms: C_36  and  C_38
REMARK   14  A    between atoms: C_43  and  C_47
REMARK                            x       y       z     vdW  Elec       q    Type
REMARK                         _______ _______ _______ _____ _____    ______ ____
ROOT
ATOM      1  O   UNL     1     113.390 130.037 140.018  0.00  0.00    +0.000 OA
ATOM      2  O   UNL     1     114.359 131.466 141.791  0.00  0.00    +0.000 OA
ATOM      3  O   UNL     1     115.008 131.478 140.275  0.00  0.00    +0.000 OA
ATOM      4  C   UNL     1     114.036 130.989 141.200  0.00  0.00    +0.000 C 
ATOM      5  C   UNL     1     114.361 130.996 140.441  0.00  0.00    +0.000 C 
ATOM      6  C   UNL     1     113.388 130.506 141.367  0.00  0.00    +0.000 C 
ATOM      7  C   UNL     1     114.038 130.519 139.850  0.00  0.00    +0.000 C 
ATOM      8  C   UNL     1     113.065 130.030 140.775  0.00  0.00    +0.000 C 
ENDROOT
BRANCH   6   9
ATOM      9  O   UNL     1     113.063 130.500 142.126  0.00  0.00    +0.000 OA
BRANCH   9  11
ATOM     10  O   UNL     1     112.111 131.533 141.865  0.00  0.00    +0.000 OA
ATOM     11  C   UNL     1     112.615 131.141 142.388  0.00  0.00    +0.000 C 
BRANCH  11  12
ATOM     12  C   UNL     1     112.671 131.389 143.172  0.00  0.00    +0.000 C 
ATOM     13  C   UNL     1     112.023 131.749 143.538  0.00  0.00    +0.000 C 
BRANCH  13  16
ATOM     14  O   UNL     1     111.877 131.169 146.333  0.00  0.00    +0.000 OA
ATOM     15  O   UNL     1     112.248 132.740 146.678  0.00  0.00    +0.000 OA
ATOM     16  C   UNL     1     112.080 131.997 144.323  0.00  0.00    +0.000 A 
ATOM     17  C   UNL     1     111.951 131.459 144.936  0.00  0.00    +0.000 A 
ATOM     18  C   UNL     1     112.265 132.781 144.496  0.00  0.00    +0.000 A 
ATOM     19  C   UNL     1     112.007 131.707 145.720  0.00  0.00    +0.000 A 
ATOM     20  C   UNL     1     112.321 133.030 145.281  0.00  0.00    +0.000 A 
ATOM     21  C   UNL     1     112.192 132.492 145.893  0.00  0.00    +0.000 A 
ENDBRANCH  13  16
ENDBRANCH  11  12
ENDBRANCH   9  11
ENDBRANCH   6   9
BRANCH   8  22
ATOM     22  O   UNL     1     112.417 129.547 140.943  0.00  0.00    +0.000 OA
BRANCH  22  25
ATOM     23  O   UNL     1     111.072 129.158 140.070  0.00  0.00    +0.000 OA
ATOM     24  O   UNL     1     110.948 127.672 139.365  0.00  0.00    +0.000 OA
ATOM     25  C   UNL     1     112.355 128.804 140.591  0.00  0.00    +0.000 A 
ATOM     26  C   UNL     1     111.682 128.609 140.154  0.00  0.00    +0.000 A 
ATOM     27  C   UNL     1     112.965 128.255 140.675  0.00  0.00    +0.000 A 
ATOM     28  C   UNL     1     111.620 127.866 139.802  0.00  0.00    +0.000 A 
ATOM     29  C   UNL     1     112.903 127.512 140.322  0.00  0.00    +0.000 A 
ATOM     30  C   UNL     1     112.231 127.317 139.886  0.00  0.00    +0.000 A 
BRANCH  30  32
ATOM     31  O   UNL     1     111.628 126.023 139.826  0.00  0.00    +0.000 OA
ATOM     32  C   UNL     1     112.168 126.574 139.534  0.00  0.00    +0.000 C 
BRANCH  32  33
ATOM     33  C   UNL     1     112.646 126.381 138.890  0.00  0.00    +0.000 C 
ATOM     34  C   UNL     1     112.663 125.607 138.605  0.00  0.00    +0.000 C 
BRANCH  34  37
ATOM     35  O   UNL     1     113.013 124.321 136.077  0.00  0.00    +0.000 OA
ATOM     36  O   UNL     1     114.578 124.842 136.028  0.00  0.00    +0.000 OA
ATOM     37  C   UNL     1     113.141 125.415 137.960  0.00  0.00    +0.000 A 
ATOM     38  C   UNL     1     112.838 124.964 137.341  0.00  0.00    +0.000 A 
ATOM     39  C   UNL     1     113.923 125.676 137.936  0.00  0.00    +0.000 A 
ATOM     40  C   UNL     1     113.316 124.772 136.696  0.00  0.00    +0.000 A 
ATOM     41  C   UNL     1     114.403 125.485 137.292  0.00  0.00    +0.000 A 
ATOM     42  C   UNL     1     114.099 125.033 136.672  0.00  0.00    +0.000 A 
ENDBRANCH  34  37
ENDBRANCH  32  33
ENDBRANCH  30  32
ENDBRANCH  22  25
ENDBRANCH   8  22
BRANCH   7  43
ATOM     43  C   UNL     1     114.363 130.526 139.092  0.00  0.00    +0.000 C 
BRANCH  43  44
ATOM     44  O   UNL     1     113.876 130.636 138.435  0.00  0.00    +0.000 OA
BRANCH  44  46
ATOM     45  O   UNL     1     114.766 130.653 137.318  0.00  0.00    +0.000 OA
ATOM     46  C   UNL     1     114.104 130.343 137.699  0.00  0.00    +0.000 C 
BRANCH  46  47
ATOM     47  C   UNL     1     113.669 129.739 137.342  0.00  0.00    +0.000 C 
ATOM     48  C   UNL     1     113.261 129.883 136.641  0.00  0.00    +0.000 C 
BRANCH  48  50
ATOM     49  O   UNL     1     111.524 127.465 135.216  0.00  0.00    +0.000 OA
ATOM     50  C   UNL     1     112.827 129.279 136.285  0.00  0.00    +0.000 A 
ATOM     51  C   UNL     1     113.192 128.769 135.748  0.00  0.00    +0.000 A 
ATOM     52  C   UNL     1     112.027 129.183 136.465  0.00  0.00    +0.000 A 
ATOM     53  C   UNL     1     112.757 128.165 135.392  0.00  0.00    +0.000 A 
ATOM     54  C   UNL     1     111.593 128.580 136.109  0.00  0.00    +0.000 A 
ATOM     55  C   UNL     1     111.958 128.070 135.573  0.00  0.00    +0.000 A 
ENDBRANCH  48  50
ENDBRANCH  46  47
ENDBRANCH  44  46
ENDBRANCH  43  44
ENDBRANCH   7  43
TORSDOF 14
ENDMDL
MODEL 3
REMARK VINA RESULT:      -9.2      1.497      2.992
REMARK  Name = 42607577
REMARK  14 active torsions:
REMARK  status: ('A' for Active; 'I' for Inactive)
REMARK    1  A    between atoms: O_2  and  C_19
REMARK    2  A    between atoms: O_2  and  C_24
REMARK    3  A    between atoms: O_5  and  C_21
REMARK    4  A    between atoms: O_5  and  C_23
REMARK    5  A    between atoms: O_6  and  C_22
REMARK    6  A    between atoms: O_6  and  C_27
REMARK    7  A    between atoms: C_20  and  C_22
REMARK    8  A    between atoms: C_24  and  C_28
REMARK    9  A    between atoms: C_27  and  C_32
REMARK   10  A    between atoms: C_31  and  C_34
REMARK   11  A    between atoms: C_33  and  C_35
REMARK   12  A    between atoms: C_34  and  C_37
REMARK   13  A    between atoms: C_36  and  C_38
REMARK   14  A    between atoms: C_43  and  C_47
REMARK                            x       y       z     vdW  Elec       q    Type
REMARK                         _______ _______ _______ _____ _____    ______ ____
ROOT
ATOM      1  O   UNL     1     111.682 128.535 141.714  0.00  0.00    +0.000 OA
ATOM      2  O   UNL     1     110.012 129.146 143.435  0.00  0.00    +0.000 OA
ATOM      3  O   UNL     1     109.832 127.753 142.569  0.00  0.00    +0.000 OA
ATOM      4  C   UNL     1     110.569 128.942 142.861  0.00  0.00    +0.000 C 
ATOM      5  C   UNL     1     110.479 128.245 142.428  0.00  0.00    +0.000 C 
ATOM      6  C   UNL     1     111.215 129.435 142.720  0.00  0.00    +0.000 C 
ATOM      7  C   UNL     1     111.035 128.042 141.854  0.00  0.00    +0.000 C 
ATOM      8  C   UNL     1     111.772 129.231 142.146  0.00  0.00    +0.000 C 
ENDROOT
BRANCH   6   9
ATOM      9  O   UNL     1     111.305 130.132 143.153  0.00  0.00    +0.000 OA
BRANCH   9  11
ATOM     10  O   UNL     1     111.952 129.455 144.233  0.00  0.00    +0.000 OA
ATOM     11  C   UNL     1     111.520 130.098 143.949  0.00  0.00    +0.000 C 
BRANCH  11  12
ATOM     12  C   UNL     1     111.303 130.707 144.460  0.00  0.00    +0.000 C 
ATOM     13  C   UNL     1     111.879 131.213 144.769  0.00  0.00    +0.000 C 
BRANCH  13  16
ATOM     14  O   UNL     1     112.249 132.638 147.218  0.00  0.00    +0.000 OA
ATOM     15  O   UNL     1     111.008 133.649 146.816  0.00  0.00    +0.000 OA
ATOM     16  C   UNL     1     111.661 131.822 145.280  0.00  0.00    +0.000 A 
ATOM     17  C   UNL     1     112.063 131.925 145.993  0.00  0.00    +0.000 A 
ATOM     18  C   UNL     1     111.041 132.327 145.080  0.00  0.00    +0.000 A 
ATOM     19  C   UNL     1     111.846 132.534 146.505  0.00  0.00    +0.000 A 
ATOM     20  C   UNL     1     110.823 132.937 145.592  0.00  0.00    +0.000 A 
ATOM     21  C   UNL     1     111.226 133.040 146.305  0.00  0.00    +0.000 A 
ENDBRANCH  13  16
ENDBRANCH  11  12
ENDBRANCH   9  11
ENDBRANCH   6   9
BRANCH   8  22
ATOM     22  O   UNL     1     112.418 129.724 142.005  0.00  0.00    +0.000 OA
BRANCH  22  25
ATOM     23  O   UNL     1     113.977 129.431 141.548  0.00  0.00    +0.000 OA
ATOM     24  O   UNL     1     114.454 129.742 140.000  0.00  0.00    +0.000 OA
ATOM     25  C   UNL     1     112.657 129.879 141.231  0.00  0.00    +0.000 A 
ATOM     26  C   UNL     1     113.437 129.733 141.002  0.00  0.00    +0.000 A 
ATOM     27  C   UNL     1     112.118 130.181 140.685  0.00  0.00    +0.000 A 
ATOM     28  C   UNL     1     113.676 129.889 140.228  0.00  0.00    +0.000 A 
ATOM     29  C   UNL     1     112.356 130.336 139.911  0.00  0.00    +0.000 A 
ATOM     30  C   UNL     1     113.135 130.190 139.683  0.00  0.00    +0.000 A 
BRANCH  30  32
ATOM     31  O   UNL     1     113.824 131.018 138.742  0.00  0.00    +0.000 OA
ATOM     32  C   UNL     1     113.374 130.346 138.909  0.00  0.00    +0.000 C 
BRANCH  32  33
ATOM     33  C   UNL     1     113.163 129.830 138.300  0.00  0.00    +0.000 C 
ATOM     34  C   UNL     1     113.245 130.065 137.513  0.00  0.00    +0.000 C 
BRANCH  34  37
ATOM     35  O   UNL     1     113.992 128.287 135.403  0.00  0.00    +0.000 OA
ATOM     36  O   UNL     1     112.399 127.998 135.083  0.00  0.00    +0.000 OA
ATOM     37  C   UNL     1     113.034 129.548 136.905  0.00  0.00    +0.000 A 
ATOM     38  C   UNL     1     113.618 129.176 136.458  0.00  0.00    +0.000 A 
ATOM     39  C   UNL     1     112.238 129.403 136.745  0.00  0.00    +0.000 A 
ATOM     40  C   UNL     1     113.408 128.659 135.850  0.00  0.00    +0.000 A 
ATOM     41  C   UNL     1     112.026 128.887 136.138  0.00  0.00    +0.000 A 
ATOM     42  C   UNL     1     112.611 128.515 135.690  0.00  0.00    +0.000 A 
ENDBRANCH  34  37
ENDBRANCH  32  33
ENDBRANCH  30  32
ENDBRANCH  22  25
ENDBRANCH   8  22
BRANCH   7  43
ATOM     43  C   UNL     1     110.945 127.345 141.422  0.00  0.00    +0.000 C 
BRANCH  43  44
ATOM     44  O   UNL     1     111.585 127.030 141.007  0.00  0.00    +0.000 OA
BRANCH  44  46
ATOM     45  O   UNL     1     110.697 126.200 140.259  0.00  0.00    +0.000 OA
ATOM     46  C   UNL     1     111.458 126.482 140.406  0.00  0.00    +0.000 C 
BRANCH  46  47
ATOM     47  C   UNL     1     112.092 126.214 139.949  0.00  0.00    +0.000 C 
ATOM     48  C   UNL     1     112.142 126.417 139.152  0.00  0.00    +0.000 C 
BRANCH  48  50
ATOM     49  O   UNL     1     114.675 125.345 137.330  0.00  0.00    +0.000 OA
ATOM     50  C   UNL     1     112.775 126.150 138.697  0.00  0.00    +0.000 A 
ATOM     51  C   UNL     1     112.635 125.685 138.029  0.00  0.00    +0.000 A 
ATOM     52  C   UNL     1     113.548 126.345 138.909  0.00  0.00    +0.000 A 
ATOM     53  C   UNL     1     113.269 125.417 137.573  0.00  0.00    +0.000 A 
ATOM     54  C   UNL     1     114.181 126.078 138.453  0.00  0.00    +0.000 A 
ATOM     55  C   UNL     1     114.041 125.613 137.786  0.00  0.00    +0.000 A 
ENDBRANCH  48  50
ENDBRANCH  46  47
ENDBRANCH  44  46
ENDBRANCH  43  44
ENDBRANCH   7  43
TORSDOF 14
ENDMDL
MODEL 4
REMARK VINA RESULT:      -8.9      1.539      3.332
REMARK  Name = 42607577
REMARK  14 active torsions:
REMARK  status: ('A' for Active; 'I' for Inactive)
REMARK    1  A    between atoms: O_2  and  C_19
REMARK    2  A    between atoms: O_2  and  C_24
REMARK    3  A    between atoms: O_5  and  C_21
REMARK    4  A    between atoms: O_5  and  C_23
REMARK    5  A    between atoms: O_6  and  C_22
REMARK    6  A    between atoms: O_6  and  C_27
REMARK    7  A    between atoms: C_20  and  C_22
REMARK    8  A    between atoms: C_24  and  C_28
REMARK    9  A    between atoms: C_27  and  C_32
REMARK   10  A    between atoms: C_31  and  C_34
REMARK   11  A    between atoms: C_33  and  C_35
REMARK   12  A    between atoms: C_34  and  C_37
REMARK   13  A    between atoms: C_36  and  C_38
REMARK   14  A    between atoms: C_43  and  C_47
REMARK                            x       y       z     vdW  Elec       q    Type
REMARK                         _______ _______ _______ _____ _____    ______ ____
ROOT
ATOM      1  O   UNL     1     112.026 128.987 140.843  0.00  0.00    +0.000 OA
ATOM      2  O   UNL     1     111.369 129.597 143.150  0.00  0.00    +0.000 OA
ATOM      3  O   UNL     1     111.500 128.009 142.721  0.00  0.00    +0.000 OA
ATOM      4  C   UNL     1     111.588 129.394 142.381  0.00  0.00    +0.000 C 
ATOM      5  C   UNL     1     111.654 128.599 142.166  0.00  0.00    +0.000 C 
ATOM      6  C   UNL     1     111.741 129.984 141.826  0.00  0.00    +0.000 C 
ATOM      7  C   UNL     1     111.873 128.396 141.397  0.00  0.00    +0.000 C 
ATOM      8  C   UNL     1     111.961 129.781 141.057  0.00  0.00    +0.000 C 
ENDROOT
BRANCH   6   9
ATOM      9  O   UNL     1     111.675 130.779 142.040  0.00  0.00    +0.000 OA
BRANCH   9  11
ATOM     10  O   UNL     1     113.035 130.954 142.443  0.00  0.00    +0.000 OA
ATOM     11  C   UNL     1     112.233 131.117 142.546  0.00  0.00    +0.000 C 
BRANCH  11  12
ATOM     12  C   UNL     1     111.987 131.618 143.153  0.00  0.00    +0.000 C 
ATOM     13  C   UNL     1     112.499 132.199 143.441  0.00  0.00    +0.000 C 
BRANCH  13  16
ATOM     14  O   UNL     1     112.053 132.679 146.223  0.00  0.00    +0.000 OA
ATOM     15  O   UNL     1     111.516 134.200 145.873  0.00  0.00    +0.000 OA
ATOM     16  C   UNL     1     112.253 132.700 144.049  0.00  0.00    +0.000 A 
ATOM     17  C   UNL     1     112.276 132.440 144.831  0.00  0.00    +0.000 A 
ATOM     18  C   UNL     1     111.984 133.459 143.875  0.00  0.00    +0.000 A 
ATOM     19  C   UNL     1     112.030 132.940 145.439  0.00  0.00    +0.000 A 
ATOM     20  C   UNL     1     111.738 133.960 144.483  0.00  0.00    +0.000 A 
ATOM     21  C   UNL     1     111.761 133.700 145.265  0.00  0.00    +0.000 A 
ENDBRANCH  13  16
ENDBRANCH  11  12
ENDBRANCH   9  11
ENDBRANCH   6   9
BRANCH   8  22
ATOM     22  O   UNL     1     112.114 130.373 140.502  0.00  0.00    +0.000 OA
BRANCH  22  25
ATOM     23  O   UNL     1     113.230 130.508 139.294  0.00  0.00    +0.000 OA
ATOM     24  O   UNL     1     112.773 130.302 137.722  0.00  0.00    +0.000 OA
ATOM     25  C   UNL     1     111.885 130.270 139.716  0.00  0.00    +0.000 A 
ATOM     26  C   UNL     1     112.444 130.337 139.111  0.00  0.00    +0.000 A 
ATOM     27  C   UNL     1     111.099 130.099 139.533  0.00  0.00    +0.000 A 
ATOM     28  C   UNL     1     112.215 130.234 138.325  0.00  0.00    +0.000 A 
ATOM     29  C   UNL     1     110.871 129.996 138.748  0.00  0.00    +0.000 A 
ATOM     30  C   UNL     1     111.428 130.064 138.144  0.00  0.00    +0.000 A 
BRANCH  30  32
ATOM     31  O   UNL     1     111.009 130.617 136.894  0.00  0.00    +0.000 OA
ATOM     32  C   UNL     1     111.200 129.961 137.358  0.00  0.00    +0.000 C 
BRANCH  32  33
ATOM     33  C   UNL     1     111.162 129.203 137.035  0.00  0.00    +0.000 C 
ATOM     34  C   UNL     1     110.726 129.068 136.348  0.00  0.00    +0.000 C 
BRANCH  34  37
ATOM     35  O   UNL     1     109.670 126.412 136.381  0.00  0.00    +0.000 OA
ATOM     36  O   UNL     1     110.579 126.035 135.057  0.00  0.00    +0.000 OA
ATOM     37  C   UNL     1     110.688 128.309 136.025  0.00  0.00    +0.000 A 
ATOM     38  C   UNL     1     110.198 127.740 136.364  0.00  0.00    +0.000 A 
ATOM     39  C   UNL     1     111.143 128.121 135.363  0.00  0.00    +0.000 A 
ATOM     40  C   UNL     1     110.161 126.982 136.042  0.00  0.00    +0.000 A 
ATOM     41  C   UNL     1     111.107 127.363 135.040  0.00  0.00    +0.000 A 
ATOM     42  C   UNL     1     110.615 126.793 135.380  0.00  0.00    +0.000 A 
ENDBRANCH  34  37
ENDBRANCH  32  33
ENDBRANCH  30  32
ENDBRANCH  22  25
ENDBRANCH   8  22
BRANCH   7  43
ATOM     43  C   UNL     1     111.939 127.602 141.184  0.00  0.00    +0.000 C 
BRANCH  43  44
ATOM     44  O   UNL     1     112.518 127.366 140.646  0.00  0.00    +0.000 OA
BRANCH  44  46
ATOM     45  O   UNL     1     111.861 126.113 140.450  0.00  0.00    +0.000 OA
ATOM     46  C   UNL     1     112.422 126.670 140.214  0.00  0.00    +0.000 C 
BRANCH  46  47
ATOM     47  C   UNL     1     112.886 126.530 139.547  0.00  0.00    +0.000 C 
ATOM     48  C   UNL     1     112.542 126.232 138.859  0.00  0.00    +0.000 C 
BRANCH  48  50
ATOM     49  O   UNL     1     114.401 125.673 136.191  0.00  0.00    +0.000 OA
ATOM     50  C   UNL     1     113.007 126.093 138.193  0.00  0.00    +0.000 A 
ATOM     51  C   UNL     1     113.001 125.349 137.835  0.00  0.00    +0.000 A 
ATOM     52  C   UNL     1     113.477 126.696 137.883  0.00  0.00    +0.000 A 
ATOM     53  C   UNL     1     113.466 125.209 137.167  0.00  0.00    +0.000 A 
ATOM     54  C   UNL     1     113.941 126.556 137.216  0.00  0.00    +0.000 A 
ATOM     55  C   UNL     1     113.936 125.813 136.858  0.00  0.00    +0.000 A 
ENDBRANCH  48  50
ENDBRANCH  46  47
ENDBRANCH  44  46
ENDBRANCH  43  44
ENDBRANCH   7  43
TORSDOF 14
ENDMDL
MODEL 5
REMARK VINA RESULT:      -8.9      7.081      9.433
REMARK  Name = 42607577
REMARK  14 active torsions:
REMARK  status: ('A' for Active; 'I' for Inactive)
REMARK    1  A    between atoms: O_2  and  C_19
REMARK    2  A    between atoms: O_2  and  C_24
REMARK    3  A    between atoms: O_5  and  C_21
REMARK    4  A    between atoms: O_5  and  C_23
REMARK    5  A    between atoms: O_6  and  C_22
REMARK    6  A    between atoms: O_6  and  C_27
REMARK    7  A    between atoms: C_20  and  C_22
REMARK    8  A    between atoms: C_24  and  C_28
REMARK    9  A    between atoms: C_27  and  C_32
REMARK   10  A    between atoms: C_31  and  C_34
REMARK   11  A    between atoms: C_33  and  C_35
REMARK   12  A    between atoms: C_34  and  C_37
REMARK   13  A    between atoms: C_36  and  C_38
REMARK   14  A    between atoms: C_43  and  C_47
REMARK                            x       y       z     vdW  Elec       q    Type
REMARK                         _______ _______ _______ _____ _____    ______ ____
ROOT
ATOM      1  O   UNL     1     107.012 126.297 142.703  0.00  0.00    +0.000 OA
ATOM      2  O   UNL     1     107.900 128.567 142.272  0.00  0.00    +0.000 OA
ATOM      3  O   UNL     1     107.066 128.257 143.662  0.00  0.00    +0.000 OA
ATOM      4  C   UNL     1     107.604 127.810 142.415  0.00  0.00    +0.000 C 
ATOM      5  C   UNL     1     107.187 127.655 143.111  0.00  0.00    +0.000 C 
ATOM      6  C   UNL     1     107.724 127.208 141.864  0.00  0.00    +0.000 C 
ATOM      7  C   UNL     1     106.891 126.899 143.254  0.00  0.00    +0.000 C 
ATOM      8  C   UNL     1     107.428 126.452 142.008  0.00  0.00    +0.000 C 
ENDROOT
BRANCH   6   9
ATOM      9  O   UNL     1     108.141 127.363 141.169  0.00  0.00    +0.000 OA
BRANCH   9  11
ATOM     10  O   UNL     1     109.407 127.080 141.768  0.00  0.00    +0.000 OA
ATOM     11  C   UNL     1     108.959 127.466 141.193  0.00  0.00    +0.000 C 
BRANCH  11  12
ATOM     12  C   UNL     1     109.329 127.956 140.642  0.00  0.00    +0.000 C 
ATOM     13  C   UNL     1     109.986 127.682 140.222  0.00  0.00    +0.000 C 
BRANCH  13  16
ATOM     14  O   UNL     1     110.539 128.374 137.505  0.00  0.00    +0.000 OA
ATOM     15  O   UNL     1     111.465 129.641 138.017  0.00  0.00    +0.000 OA
ATOM     16  C   UNL     1     110.356 128.172 139.671  0.00  0.00    +0.000 A 
ATOM     17  C   UNL     1     110.263 128.028 138.864  0.00  0.00    +0.000 A 
ATOM     18  C   UNL     1     110.818 128.806 139.926  0.00  0.00    +0.000 A 
ATOM     19  C   UNL     1     110.632 128.518 138.313  0.00  0.00    +0.000 A 
ATOM     20  C   UNL     1     111.188 129.296 139.375  0.00  0.00    +0.000 A 
ATOM     21  C   UNL     1     111.095 129.152 138.568  0.00  0.00    +0.000 A 
ENDBRANCH  13  16
ENDBRANCH  11  12
ENDBRANCH   9  11
ENDBRANCH   6   9
BRANCH   8  22
ATOM     22  O   UNL     1     107.549 125.850 141.456  0.00  0.00    +0.000 OA
BRANCH  22  25
ATOM     23  O   UNL     1     107.804 124.222 141.381  0.00  0.00    +0.000 OA
ATOM     24  O   UNL     1     106.564 123.210 140.979  0.00  0.00    +0.000 OA
ATOM     25  C   UNL     1     106.929 125.344 141.255  0.00  0.00    +0.000 A 
ATOM     26  C   UNL     1     107.057 124.530 141.218  0.00  0.00    +0.000 A 
ATOM     27  C   UNL     1     106.181 125.652 141.093  0.00  0.00    +0.000 A 
ATOM     28  C   UNL     1     106.437 124.024 141.017  0.00  0.00    +0.000 A 
ATOM     29  C   UNL     1     105.561 125.146 140.892  0.00  0.00    +0.000 A 
ATOM     30  C   UNL     1     105.689 124.333 140.854  0.00  0.00    +0.000 A 
BRANCH  30  32
ATOM     31  O   UNL     1     104.799 123.268 141.198  0.00  0.00    +0.000 OA
ATOM     32  C   UNL     1     105.069 123.827 140.654  0.00  0.00    +0.000 C 
BRANCH  32  33
ATOM     33  C   UNL     1     104.718 123.879 139.909  0.00  0.00    +0.000 C 
ATOM     34  C   UNL     1     104.044 123.435 139.738  0.00  0.00    +0.000 C 
BRANCH  34  37
ATOM     35  O   UNL     1     101.721 123.796 138.113  0.00  0.00    +0.000 OA
ATOM     36  O   UNL     1     102.647 123.645 136.756  0.00  0.00    +0.000 OA
ATOM     37  C   UNL     1     103.694 123.487 138.993  0.00  0.00    +0.000 A 
ATOM     38  C   UNL     1     102.883 123.615 138.926  0.00  0.00    +0.000 A 
ATOM     39  C   UNL     1     104.157 123.412 138.314  0.00  0.00    +0.000 A 
ATOM     40  C   UNL     1     102.532 123.668 138.180  0.00  0.00    +0.000 A 
ATOM     41  C   UNL     1     103.808 123.464 137.568  0.00  0.00    +0.000 A 
ATOM     42  C   UNL     1     102.995 123.593 137.502  0.00  0.00    +0.000 A 
ENDBRANCH  34  37
ENDBRANCH  32  33
ENDBRANCH  30  32
ENDBRANCH  22  25
ENDBRANCH   8  22
BRANCH   7  43
ATOM     43  C   UNL     1     106.474 126.744 143.949  0.00  0.00    +0.000 C 
BRANCH  43  44
ATOM     44  O   UNL     1     106.651 126.074 144.397  0.00  0.00    +0.000 OA
BRANCH  44  46
ATOM     45  O   UNL     1     105.358 125.617 144.796  0.00  0.00    +0.000 OA
ATOM     46  C   UNL     1     106.134 125.823 144.988  0.00  0.00    +0.000 C 
BRANCH  46  47
ATOM     47  C   UNL     1     106.391 125.779 145.770  0.00  0.00    +0.000 C 
ATOM     48  C   UNL     1     106.362 125.061 146.175  0.00  0.00    +0.000 C 
BRANCH  48  50
ATOM     49  O   UNL     1     107.390 124.887 149.306  0.00  0.00    +0.000 OA
ATOM     50  C   UNL     1     106.619 125.018 146.957  0.00  0.00    +0.000 A 
ATOM     51  C   UNL     1     106.090 124.807 147.553  0.00  0.00    +0.000 A 
ATOM     52  C   UNL     1     107.405 125.185 147.143  0.00  0.00    +0.000 A 
ATOM     53  C   UNL     1     106.347 124.763 148.337  0.00  0.00    +0.000 A 
ATOM     54  C   UNL     1     107.662 125.141 147.926  0.00  0.00    +0.000 A 
ATOM     55  C   UNL     1     107.133 124.930 148.522  0.00  0.00    +0.000 A 
ENDBRANCH  48  50
ENDBRANCH  46  47
ENDBRANCH  44  46
ENDBRANCH  43  44
ENDBRANCH   7  43
TORSDOF 14
ENDMDL
MODEL 6
REMARK VINA RESULT:      -8.7      7.606      9.549
REMARK  Name = 42607577
REMARK  14 active torsions:
REMARK  status: ('A' for Active; 'I' for Inactive)
REMARK    1  A    between atoms: O_2  and  C_19
REMARK    2  A    between atoms: O_2  and  C_24
REMARK    3  A    between atoms: O_5  and  C_21
REMARK    4  A    between atoms: O_5  and  C_23
REMARK    5  A    between atoms: O_6  and  C_22
REMARK    6  A    between atoms: O_6  and  C_27
REMARK    7  A    between atoms: C_20  and  C_22
REMARK    8  A    between atoms: C_24  and  C_28
REMARK    9  A    between atoms: C_27  and  C_32
REMARK   10  A    between atoms: C_31  and  C_34
REMARK   11  A    between atoms: C_33  and  C_35
REMARK   12  A    between atoms: C_34  and  C_37
REMARK   13  A    between atoms: C_36  and  C_38
REMARK   14  A    between atoms: C_43  and  C_47
REMARK                            x       y       z     vdW  Elec       q    Type
REMARK                         _______ _______ _______ _____ _____    ______ ____
ROOT
ATOM      1  O   UNL     1     106.720 126.125 143.089  0.00  0.00    +0.000 OA
ATOM      2  O   UNL     1     107.126 128.565 143.167  0.00  0.00    +0.000 OA
ATOM      3  O   UNL     1     106.524 127.787 144.491  0.00  0.00    +0.000 OA
ATOM      4  C   UNL     1     106.991 127.752 143.141  0.00  0.00    +0.000 C 
ATOM      5  C   UNL     1     106.689 127.362 143.803  0.00  0.00    +0.000 C 
ATOM      6  C   UNL     1     107.156 127.327 142.453  0.00  0.00    +0.000 C 
ATOM      7  C   UNL     1     106.554 126.549 143.777  0.00  0.00    +0.000 C 
ATOM      8  C   UNL     1     107.021 126.514 142.427  0.00  0.00    +0.000 C 
ENDROOT
BRANCH   6   9
ATOM      9  O   UNL     1     107.458 127.717 141.790  0.00  0.00    +0.000 OA
BRANCH   9  11
ATOM     10  O   UNL     1     108.830 127.588 142.169  0.00  0.00    +0.000 OA
ATOM     11  C   UNL     1     108.227 128.016 141.802  0.00  0.00    +0.000 C 
BRANCH  11  12
ATOM     12  C   UNL     1     108.392 128.741 141.447  0.00  0.00    +0.000 C 
ATOM     13  C   UNL     1     109.090 128.840 141.016  0.00  0.00    +0.000 C 
BRANCH  13  16
ATOM     14  O   UNL     1     110.292 131.431 141.125  0.00  0.00    +0.000 OA
ATOM     15  O   UNL     1     109.752 131.746 139.598  0.00  0.00    +0.000 OA
ATOM     16  C   UNL     1     109.255 129.567 140.661  0.00  0.00    +0.000 A 
ATOM     17  C   UNL     1     109.691 130.136 141.070  0.00  0.00    +0.000 A 
ATOM     18  C   UNL     1     108.985 129.725 139.898  0.00  0.00    +0.000 A 
ATOM     19  C   UNL     1     109.856 130.861 140.716  0.00  0.00    +0.000 A 
ATOM     20  C   UNL     1     109.150 130.451 139.543  0.00  0.00    +0.000 A 
ATOM     21  C   UNL     1     109.586 131.020 139.952  0.00  0.00    +0.000 A 
ENDBRANCH  13  16
ENDBRANCH  11  12
ENDBRANCH   9  11
ENDBRANCH   6   9
BRANCH   8  22
ATOM     22  O   UNL     1     107.187 126.091 141.739  0.00  0.00    +0.000 OA
BRANCH  22  25
ATOM     23  O   UNL     1     107.725 124.568 141.400  0.00  0.00    +0.000 OA
ATOM     24  O   UNL     1     106.668 123.420 140.864  0.00  0.00    +0.000 OA
ATOM     25  C   UNL     1     106.659 125.517 141.470  0.00  0.00    +0.000 A 
ATOM     26  C   UNL     1     106.928 124.754 141.301  0.00  0.00    +0.000 A 
ATOM     27  C   UNL     1     105.861 125.703 141.371  0.00  0.00    +0.000 A 
ATOM     28  C   UNL     1     106.399 124.181 141.033  0.00  0.00    +0.000 A 
ATOM     29  C   UNL     1     105.333 125.129 141.103  0.00  0.00    +0.000 A 
ATOM     30  C   UNL     1     105.602 124.369 140.934  0.00  0.00    +0.000 A 
BRANCH  30  32
ATOM     31  O   UNL     1     104.909 123.134 141.133  0.00  0.00    +0.000 OA
ATOM     32  C   UNL     1     105.073 123.795 140.666  0.00  0.00    +0.000 C 
BRANCH  32  33
ATOM     33  C   UNL     1     104.708 123.881 139.931  0.00  0.00    +0.000 C 
ATOM     34  C   UNL     1     104.094 123.374 139.714  0.00  0.00    +0.000 C 
BRANCH  34  37
ATOM     35  O   UNL     1     101.737 123.791 138.152  0.00  0.00    +0.000 OA
ATOM     36  O   UNL     1     102.639 123.721 136.772  0.00  0.00    +0.000 OA
ATOM     37  C   UNL     1     103.730 123.461 138.978  0.00  0.00    +0.000 A 
ATOM     38  C   UNL     1     102.916 123.583 138.933  0.00  0.00    +0.000 A 
ATOM     39  C   UNL     1     104.181 123.426 138.288  0.00  0.00    +0.000 A 
ATOM     40  C   UNL     1     102.551 123.670 138.198  0.00  0.00    +0.000 A 
ATOM     41  C   UNL     1     103.817 123.512 137.553  0.00  0.00    +0.000 A 
ATOM     42  C   UNL     1     103.002 123.634 137.508  0.00  0.00    +0.000 A 
ENDBRANCH  34  37
ENDBRANCH  32  33
ENDBRANCH  30  32
ENDBRANCH  22  25
ENDBRANCH   8  22
BRANCH   7  43
ATOM     43  C   UNL     1     106.253 126.160 144.439  0.00  0.00    +0.000 C 
BRANCH  43  44
ATOM     44  O   UNL     1     106.284 125.336 144.484  0.00  0.00    +0.000 OA
BRANCH  44  46
ATOM     45  O   UNL     1     106.605 124.808 145.771  0.00  0.00    +0.000 OA
ATOM     46  C   UNL     1     106.053 124.952 145.175  0.00  0.00    +0.000 C 
BRANCH  46  47
ATOM     47  C   UNL     1     105.270 124.711 145.272  0.00  0.00    +0.000 C 
ATOM     48  C   UNL     1     105.075 124.165 145.859  0.00  0.00    +0.000 C 
BRANCH  48  50
ATOM     49  O   UNL     1     101.943 123.201 146.245  0.00  0.00    +0.000 OA
ATOM     50  C   UNL     1     104.293 123.924 145.956  0.00  0.00    +0.000 A 
ATOM     51  C   UNL     1     104.007 123.274 145.536  0.00  0.00    +0.000 A 
ATOM     52  C   UNL     1     103.795 124.333 146.471  0.00  0.00    +0.000 A 
ATOM     53  C   UNL     1     103.223 123.033 145.632  0.00  0.00    +0.000 A 
ATOM     54  C   UNL     1     103.013 124.092 146.568  0.00  0.00    +0.000 A 
ATOM     55  C   UNL     1     102.727 123.442 146.148  0.00  0.00    +0.000 A 
ENDBRANCH  48  50
ENDBRANCH  46  47
ENDBRANCH  44  46
ENDBRANCH  43  44
ENDBRANCH   7  43
TORSDOF 14
ENDMDL
MODEL 7
REMARK VINA RESULT:      -8.7      6.538      9.816
REMARK  Name = 42607577
REMARK  14 active torsions:
REMARK  status: ('A' for Active; 'I' for Inactive)
REMARK    1  A    between atoms: O_2  and  C_19
REMARK    2  A    between atoms: O_2  and  C_24
REMARK    3  A    between atoms: O_5  and  C_21
REMARK    4  A    between atoms: O_5  and  C_23
REMARK    5  A    between atoms: O_6  and  C_22
REMARK    6  A    between atoms: O_6  and  C_27
REMARK    7  A    between atoms: C_20  and  C_22
REMARK    8  A    between atoms: C_24  and  C_28
REMARK    9  A    between atoms: C_27  and  C_32
REMARK   10  A    between atoms: C_31  and  C_34
REMARK   11  A    between atoms: C_33  and  C_35
REMARK   12  A    between atoms: C_34  and  C_37
REMARK   13  A    between atoms: C_36  and  C_38
REMARK   14  A    between atoms: C_43  and  C_47
REMARK                            x       y       z     vdW  Elec       q    Type
REMARK                         _______ _______ _______ _____ _____    ______ ____
ROOT
ATOM      1  O   UNL     1     107.292 125.533 141.607  0.00  0.00    +0.000 OA
ATOM      2  O   UNL     1     106.476 125.188 139.296  0.00  0.00    +0.000 OA
ATOM      3  O   UNL     1     108.033 125.667 139.558  0.00  0.00    +0.000 OA
ATOM      4  C   UNL     1     106.748 125.303 140.066  0.00  0.00    +0.000 C 
ATOM      5  C   UNL     1     107.527 125.543 140.198  0.00  0.00    +0.000 C 
ATOM      6  C   UNL     1     106.242 125.179 140.706  0.00  0.00    +0.000 C 
ATOM      7  C   UNL     1     107.799 125.658 140.968  0.00  0.00    +0.000 C 
ATOM      8  C   UNL     1     106.514 125.294 141.476  0.00  0.00    +0.000 C 
ENDROOT
BRANCH   6   9
ATOM      9  O   UNL     1     105.463 124.940 140.575  0.00  0.00    +0.000 OA
BRANCH   9  11
ATOM     10  O   UNL     1     105.646 123.523 140.552  0.00  0.00    +0.000 OA
ATOM     11  C   UNL     1     105.309 124.205 140.232  0.00  0.00    +0.000 C 
BRANCH  11  12
ATOM     12  C   UNL     1     104.819 124.153 139.571  0.00  0.00    +0.000 C 
ATOM     13  C   UNL     1     104.205 123.601 139.555  0.00  0.00    +0.000 C 
BRANCH  13  16
ATOM     14  O   UNL     1     101.586 123.569 138.412  0.00  0.00    +0.000 OA
ATOM     15  O   UNL     1     102.244 123.394 136.909  0.00  0.00    +0.000 OA
ATOM     16  C   UNL     1     103.715 123.549 138.893  0.00  0.00    +0.000 A 
ATOM     17  C   UNL     1     102.896 123.585 138.983  0.00  0.00    +0.000 A 
ATOM     18  C   UNL     1     104.044 123.462 138.142  0.00  0.00    +0.000 A 
ATOM     19  C   UNL     1     102.406 123.533 138.322  0.00  0.00    +0.000 A 
ATOM     20  C   UNL     1     103.554 123.410 137.480  0.00  0.00    +0.000 A 
ATOM     21  C   UNL     1     102.734 123.446 137.570  0.00  0.00    +0.000 A 
ENDBRANCH  13  16
ENDBRANCH  11  12
ENDBRANCH   9  11
ENDBRANCH   6   9
BRANCH   8  22
ATOM     22  O   UNL     1     106.007 125.170 142.115  0.00  0.00    +0.000 OA
BRANCH  22  25
ATOM     23  O   UNL     1     106.291 124.655 143.657  0.00  0.00    +0.000 OA
ATOM     24  O   UNL     1     106.259 125.733 144.906  0.00  0.00    +0.000 OA
ATOM     25  C   UNL     1     105.991 125.709 142.740  0.00  0.00    +0.000 A 
ATOM     26  C   UNL     1     106.133 125.452 143.511  0.00  0.00    +0.000 A 
ATOM     27  C   UNL     1     105.834 126.505 142.594  0.00  0.00    +0.000 A 
ATOM     28  C   UNL     1     106.117 125.991 144.135  0.00  0.00    +0.000 A 
ATOM     29  C   UNL     1     105.818 127.045 143.218  0.00  0.00    +0.000 A 
ATOM     30  C   UNL     1     105.960 126.787 143.988  0.00  0.00    +0.000 A 
BRANCH  30  32
ATOM     31  O   UNL     1     105.335 127.295 145.170  0.00  0.00    +0.000 OA
ATOM     32  C   UNL     1     105.944 127.326 144.612  0.00  0.00    +0.000 C 
BRANCH  32  33
ATOM     33  C   UNL     1     106.536 127.897 144.681  0.00  0.00    +0.000 C 
ATOM     34  C   UNL     1     106.508 128.450 145.292  0.00  0.00    +0.000 C 
BRANCH  34  37
ATOM     35  O   UNL     1     107.418 131.132 144.910  0.00  0.00    +0.000 OA
ATOM     36  O   UNL     1     108.880 130.729 145.561  0.00  0.00    +0.000 OA
ATOM     37  C   UNL     1     107.100 129.020 145.359  0.00  0.00    +0.000 A 
ATOM     38  C   UNL     1     106.963 129.791 145.101  0.00  0.00    +0.000 A 
ATOM     39  C   UNL     1     107.831 128.819 145.685  0.00  0.00    +0.000 A 
ATOM     40  C   UNL     1     107.556 130.361 145.168  0.00  0.00    +0.000 A 
ATOM     41  C   UNL     1     108.424 129.388 145.752  0.00  0.00    +0.000 A 
ATOM     42  C   UNL     1     108.286 130.160 145.494  0.00  0.00    +0.000 A 
ENDBRANCH  34  37
ENDBRANCH  32  33
ENDBRANCH  30  32
ENDBRANCH  22  25
ENDBRANCH   8  22
BRANCH   7  43
ATOM     43  C   UNL     1     108.577 125.897 141.098  0.00  0.00    +0.000 C 
BRANCH  43  44
ATOM     44  O   UNL     1     108.732 126.579 141.536  0.00  0.00    +0.000 OA
BRANCH  44  46
ATOM     45  O   UNL     1     110.113 126.286 141.753  0.00  0.00    +0.000 OA
ATOM     46  C   UNL     1     109.509 126.836 141.640  0.00  0.00    +0.000 C 
BRANCH  46  47
ATOM     47  C   UNL     1     109.682 127.643 141.630  0.00  0.00    +0.000 C 
ATOM     48  C   UNL     1     109.438 128.125 142.253  0.00  0.00    +0.000 C 
BRANCH  48  50
ATOM     49  O   UNL     1     110.132 131.351 142.213  0.00  0.00    +0.000 OA
ATOM     50  C   UNL     1     109.612 128.931 142.243  0.00  0.00    +0.000 A 
ATOM     51  C   UNL     1     109.067 129.466 141.931  0.00  0.00    +0.000 A 
ATOM     52  C   UNL     1     110.330 129.203 142.545  0.00  0.00    +0.000 A 
ATOM     53  C   UNL     1     109.240 130.273 141.921  0.00  0.00    +0.000 A 
ATOM     54  C   UNL     1     110.504 130.008 142.535  0.00  0.00    +0.000 A 
ATOM     55  C   UNL     1     109.959 130.544 142.223  0.00  0.00    +0.000 A 
ENDBRANCH  48  50
ENDBRANCH  46  47
ENDBRANCH  44  46
ENDBRANCH  43  44
ENDBRANCH   7  43
TORSDOF 14
ENDMDL
MODEL 8
REMARK VINA RESULT:      -8.7      3.200      5.394
REMARK  Name = 42607577
REMARK  14 active torsions:
REMARK  status: ('A' for Active; 'I' for Inactive)
REMARK    1  A    between atoms: O_2  and  C_19
REMARK    2  A    between atoms: O_2  and  C_24
REMARK    3  A    between atoms: O_5  and  C_21
REMARK    4  A    between atoms: O_5  and  C_23
REMARK    5  A    between atoms: O_6  and  C_22
REMARK    6  A    between atoms: O_6  and  C_27
REMARK    7  A    between atoms: C_20  and  C_22
REMARK    8  A    between atoms: C_24  and  C_28
REMARK    9  A    between atoms: C_27  and  C_32
REMARK   10  A    between atoms: C_31  and  C_34
REMARK   11  A    between atoms: C_33  and  C_35
REMARK   12  A    between atoms: C_34  and  C_37
REMARK   13  A    between atoms: C_36  and  C_38
REMARK   14  A    between atoms: C_43  and  C_47
REMARK                            x       y       z     vdW  Elec       q    Type
REMARK                         _______ _______ _______ _____ _____    ______ ____
ROOT
ATOM      1  O   UNL     1     110.869 127.722 140.671  0.00  0.00    +0.000 OA
ATOM      2  O   UNL     1     110.175 128.375 142.955  0.00  0.00    +0.000 OA
ATOM      3  O   UNL     1     111.717 127.857 142.677  0.00  0.00    +0.000 OA
ATOM      4  C   UNL     1     110.407 128.157 142.194  0.00  0.00    +0.000 C 
ATOM      5  C   UNL     1     111.178 127.898 142.054  0.00  0.00    +0.000 C 
ATOM      6  C   UNL     1     109.867 128.198 141.571  0.00  0.00    +0.000 C 
ATOM      7  C   UNL     1     111.409 127.681 141.293  0.00  0.00    +0.000 C 
ATOM      8  C   UNL     1     110.099 127.980 140.809  0.00  0.00    +0.000 C 
ENDROOT
BRANCH   6   9
ATOM      9  O   UNL     1     109.096 128.457 141.710  0.00  0.00    +0.000 OA
BRANCH   9  11
ATOM     10  O   UNL     1     108.758 127.176 142.245  0.00  0.00    +0.000 OA
ATOM     11  C   UNL     1     108.532 127.933 142.009  0.00  0.00    +0.000 C 
BRANCH  11  12
ATOM     12  C   UNL     1     107.744 128.168 142.071  0.00  0.00    +0.000 C 
ATOM     13  C   UNL     1     107.173 127.630 142.330  0.00  0.00    +0.000 C 
BRANCH  13  16
ATOM     14  O   UNL     1     104.549 127.807 141.213  0.00  0.00    +0.000 OA
ATOM     15  O   UNL     1     104.020 128.569 142.578  0.00  0.00    +0.000 OA
ATOM     16  C   UNL     1     106.385 127.865 142.393  0.00  0.00    +0.000 A 
ATOM     17  C   UNL     1     105.861 127.719 141.772  0.00  0.00    +0.000 A 
ATOM     18  C   UNL     1     106.120 128.246 143.074  0.00  0.00    +0.000 A 
ATOM     19  C   UNL     1     105.073 127.953 141.834  0.00  0.00    +0.000 A 
ATOM     20  C   UNL     1     105.331 128.481 143.136  0.00  0.00    +0.000 A 
ATOM     21  C   UNL     1     104.808 128.334 142.516  0.00  0.00    +0.000 A 
ENDBRANCH  13  16
ENDBRANCH  11  12
ENDBRANCH   9  11
ENDBRANCH   6   9
BRANCH   8  22
ATOM     22  O   UNL     1     109.558 128.022 140.187  0.00  0.00    +0.000 OA
BRANCH  22  25
ATOM     23  O   UNL     1     109.311 127.049 138.877  0.00  0.00    +0.000 OA
ATOM     24  O   UNL     1     109.812 127.535 137.382  0.00  0.00    +0.000 OA
ATOM     25  C   UNL     1     109.809 128.265 139.439  0.00  0.00    +0.000 A 
ATOM     26  C   UNL     1     109.685 127.778 138.784  0.00  0.00    +0.000 A 
ATOM     27  C   UNL     1     110.183 128.994 139.346  0.00  0.00    +0.000 A 
ATOM     28  C   UNL     1     109.935 128.021 138.036  0.00  0.00    +0.000 A 
ATOM     29  C   UNL     1     110.433 129.237 138.598  0.00  0.00    +0.000 A 
ATOM     30  C   UNL     1     110.309 128.751 137.944  0.00  0.00    +0.000 A 
BRANCH  30  32
ATOM     31  O   UNL     1     110.030 129.365 136.684  0.00  0.00    +0.000 OA
ATOM     32  C   UNL     1     110.560 128.994 137.197  0.00  0.00    +0.000 C 
BRANCH  32  33
ATOM     33  C   UNL     1     111.340 128.867 136.961  0.00  0.00    +0.000 C 
ATOM     34  C   UNL     1     111.653 129.289 136.325  0.00  0.00    +0.000 C 
BRANCH  34  37
ATOM     35  O   UNL     1     114.438 129.892 136.550  0.00  0.00    +0.000 OA
ATOM     36  O   UNL     1     114.774 128.775 135.384  0.00  0.00    +0.000 OA
ATOM     37  C   UNL     1     112.434 129.161 136.090  0.00  0.00    +0.000 A 
ATOM     38  C   UNL     1     113.046 129.591 136.438  0.00  0.00    +0.000 A 
ATOM     39  C   UNL     1     112.602 128.602 135.507  0.00  0.00    +0.000 A 
ATOM     40  C   UNL     1     113.826 129.462 136.203  0.00  0.00    +0.000 A 
ATOM     41  C   UNL     1     113.382 128.473 135.271  0.00  0.00    +0.000 A 
ATOM     42  C   UNL     1     113.995 128.904 135.620  0.00  0.00    +0.000 A 
ENDBRANCH  34  37
ENDBRANCH  32  33
ENDBRANCH  30  32
ENDBRANCH  22  25
ENDBRANCH   8  22
BRANCH   7  43
ATOM     43  C   UNL     1     112.180 127.422 141.154  0.00  0.00    +0.000 C 
BRANCH  43  44
ATOM     44  O   UNL     1     112.324 126.832 140.596  0.00  0.00    +0.000 OA
BRANCH  44  46
ATOM     45  O   UNL     1     113.683 127.256 140.480  0.00  0.00    +0.000 OA
ATOM     46  C   UNL     1     113.053 126.793 140.214  0.00  0.00    +0.000 C 
BRANCH  46  47
ATOM     47  C   UNL     1     113.155 126.293 139.566  0.00  0.00    +0.000 C 
ATOM     48  C   UNL     1     113.422 126.596 138.848  0.00  0.00    +0.000 C 
BRANCH  48  50
ATOM     49  O   UNL     1     113.829 124.592 136.258  0.00  0.00    +0.000 OA
ATOM     50  C   UNL     1     113.524 126.095 138.201  0.00  0.00    +0.000 A 
ATOM     51  C   UNL     1     114.284 125.910 137.938  0.00  0.00    +0.000 A 
ATOM     52  C   UNL     1     112.866 125.779 137.816  0.00  0.00    +0.000 A 
ATOM     53  C   UNL     1     114.386 125.409 137.290  0.00  0.00    +0.000 A 
ATOM     54  C   UNL     1     112.968 125.278 137.169  0.00  0.00    +0.000 A 
ATOM     55  C   UNL     1     113.727 125.093 136.906  0.00  0.00    +0.000 A 
ENDBRANCH  48  50
ENDBRANCH  46  47
ENDBRANCH  44  46
ENDBRANCH  43  44
ENDBRANCH   7  43
TORSDOF 14
ENDMDL
MODEL 9
REMARK VINA RESULT:      -8.7      3.389      5.716
REMARK  Name = 42607577
REMARK  14 active torsions:
REMARK  status: ('A' for Active; 'I' for Inactive)
REMARK    1  A    between atoms: O_2  and  C_19
REMARK    2  A    between atoms: O_2  and  C_24
REMARK    3  A    between atoms: O_5  and  C_21
REMARK    4  A    between atoms: O_5  and  C_23
REMARK    5  A    between atoms: O_6  and  C_22
REMARK    6  A    between atoms: O_6  and  C_27
REMARK    7  A    between atoms: C_20  and  C_22
REMARK    8  A    between atoms: C_24  and  C_28
REMARK    9  A    between atoms: C_27  and  C_32
REMARK   10  A    between atoms: C_31  and  C_34
REMARK   11  A    between atoms: C_33  and  C_35
REMARK   12  A    between atoms: C_34  and  C_37
REMARK   13  A    between atoms: C_36  and  C_38
REMARK   14  A    between atoms: C_43  and  C_47
REMARK                            x       y       z     vdW  Elec       q    Type
REMARK                         _______ _______ _______ _____ _____    ______ ____
ROOT
ATOM      1  O   UNL     1     110.121 127.859 141.112  0.00  0.00    +0.000 OA
ATOM      2  O   UNL     1     108.567 125.981 141.541  0.00  0.00    +0.000 OA
ATOM      3  O   UNL     1     110.196 125.722 141.552  0.00  0.00    +0.000 OA
ATOM      4  C   UNL     1     109.085 126.607 141.398  0.00  0.00    +0.000 C 
ATOM      5  C   UNL     1     109.900 126.478 141.403  0.00  0.00    +0.000 C 
ATOM      6  C   UNL     1     108.789 127.362 141.249  0.00  0.00    +0.000 C 
ATOM      7  C   UNL     1     110.418 127.104 141.261  0.00  0.00    +0.000 C 
ATOM      8  C   UNL     1     109.307 127.988 141.106  0.00  0.00    +0.000 C 
ENDROOT
BRANCH   6   9
ATOM      9  O   UNL     1     107.973 127.492 141.243  0.00  0.00    +0.000 OA
BRANCH   9  11
ATOM     10  O   UNL     1     107.868 127.291 142.653  0.00  0.00    +0.000 OA
ATOM     11  C   UNL     1     107.569 127.607 141.952  0.00  0.00    +0.000 C 
BRANCH  11  12
ATOM     12  C   UNL     1     106.866 128.037 141.961  0.00  0.00    +0.000 C 
ATOM     13  C   UNL     1     106.200 127.733 142.344  0.00  0.00    +0.000 C 
BRANCH  13  16
ATOM     14  O   UNL     1     104.389 129.488 143.689  0.00  0.00    +0.000 OA
ATOM     15  O   UNL     1     103.387 129.457 142.378  0.00  0.00    +0.000 OA
ATOM     16  C   UNL     1     105.496 128.164 142.352  0.00  0.00    +0.000 A 
ATOM     17  C   UNL     1     105.294 128.610 143.016  0.00  0.00    +0.000 A 
ATOM     18  C   UNL     1     104.995 128.149 141.697  0.00  0.00    +0.000 A 
ATOM     19  C   UNL     1     104.591 129.041 143.024  0.00  0.00    +0.000 A 
ATOM     20  C   UNL     1     104.292 128.580 141.705  0.00  0.00    +0.000 A 
ATOM     21  C   UNL     1     104.090 129.026 142.369  0.00  0.00    +0.000 A 
ENDBRANCH  13  16
ENDBRANCH  11  12
ENDBRANCH   9  11
ENDBRANCH   6   9
BRANCH   8  22
ATOM     22  O   UNL     1     109.010 128.744 140.957  0.00  0.00    +0.000 OA
BRANCH  22  25
ATOM     23  O   UNL     1     109.540 130.258 141.343  0.00  0.00    +0.000 OA
ATOM     24  O   UNL     1     110.240 131.206 140.187  0.00  0.00    +0.000 OA
ATOM     25  C   UNL     1     109.359 129.218 140.379  0.00  0.00    +0.000 A 
ATOM     26  C   UNL     1     109.625 129.975 140.572  0.00  0.00    +0.000 A 
ATOM     27  C   UNL     1     109.444 128.935 139.609  0.00  0.00    +0.000 A 
ATOM     28  C   UNL     1     109.975 130.449 139.995  0.00  0.00    +0.000 A 
ATOM     29  C   UNL     1     109.794 129.409 139.031  0.00  0.00    +0.000 A 
ATOM     30  C   UNL     1     110.059 130.166 139.224  0.00  0.00    +0.000 A 
BRANCH  30  32
ATOM     31  O   UNL     1     109.968 131.231 138.275  0.00  0.00    +0.000 OA
ATOM     32  C   UNL     1     110.409 130.640 138.647  0.00  0.00    +0.000 C 
BRANCH  32  33
ATOM     33  C   UNL     1     111.199 130.524 138.440  0.00  0.00    +0.000 C 
ATOM     34  C   UNL     1     111.476 130.779 137.706  0.00  0.00    +0.000 C 
BRANCH  34  37
ATOM     35  O   UNL     1     113.577 129.053 136.827  0.00  0.00    +0.000 OA
ATOM     36  O   UNL     1     114.638 130.315 136.885  0.00  0.00    +0.000 OA
ATOM     37  C   UNL     1     112.267 130.663 137.501  0.00  0.00    +0.000 A 
ATOM     38  C   UNL     1     112.527 129.916 137.267  0.00  0.00    +0.000 A 
ATOM     39  C   UNL     1     112.797 131.294 137.530  0.00  0.00    +0.000 A 
ATOM     40  C   UNL     1     113.317 129.799 137.061  0.00  0.00    +0.000 A 
ATOM     41  C   UNL     1     113.588 131.178 137.324  0.00  0.00    +0.000 A 
ATOM     42  C   UNL     1     113.848 130.431 137.090  0.00  0.00    +0.000 A 
ENDBRANCH  34  37
ENDBRANCH  32  33
ENDBRANCH  30  32
ENDBRANCH  22  25
ENDBRANCH   8  22
BRANCH   7  43
ATOM     43  C   UNL     1     111.233 126.974 141.267  0.00  0.00    +0.000 C 
BRANCH  43  44
ATOM     44  O   UNL     1     111.739 127.540 141.591  0.00  0.00    +0.000 OA
BRANCH  44  46
ATOM     45  O   UNL     1     112.898 126.896 141.060  0.00  0.00    +0.000 OA
ATOM     46  C   UNL     1     112.527 127.572 141.354  0.00  0.00    +0.000 C 
BRANCH  46  47
ATOM     47  C   UNL     1     112.947 128.281 141.409  0.00  0.00    +0.000 C 
ATOM     48  C   UNL     1     113.325 128.590 140.745  0.00  0.00    +0.000 C 
BRANCH  48  50
ATOM     49  O   UNL     1     115.003 131.423 140.969  0.00  0.00    +0.000 OA
ATOM     50  C   UNL     1     113.744 129.297 140.801  0.00  0.00    +0.000 A 
ATOM     51  C   UNL     1     114.521 129.340 140.526  0.00  0.00    +0.000 A 
ATOM     52  C   UNL     1     113.388 129.964 141.132  0.00  0.00    +0.000 A 
ATOM     53  C   UNL     1     114.941 130.049 140.582  0.00  0.00    +0.000 A 
ATOM     54  C   UNL     1     113.807 130.671 141.188  0.00  0.00    +0.000 A 
ATOM     55  C   UNL     1     114.583 130.714 140.913  0.00  0.00    +0.000 A 
ENDBRANCH  48  50
ENDBRANCH  46  47
ENDBRANCH  44  46
ENDBRANCH  43  44
ENDBRANCH   7  43
TORSDOF 14
ENDMDL
MODEL 10
REMARK VINA RESULT:      -8.7      7.908     10.030
REMARK  Name = 42607577
REMARK  14 active torsions:
REMARK  status: ('A' for Active; 'I' for Inactive)
REMARK    1  A    between atoms: O_2  and  C_19
REMARK    2  A    between atoms: O_2  and  C_24
REMARK    3  A    between atoms: O_5  and  C_21
REMARK    4  A    between atoms: O_5  and  C_23
REMARK    5  A    between atoms: O_6  and  C_22
REMARK    6  A    between atoms: O_6  and  C_27
REMARK    7  A    between atoms: C_20  and  C_22
REMARK    8  A    between atoms: C_24  and  C_28
REMARK    9  A    between atoms: C_27  and  C_32
REMARK   10  A    between atoms: C_31  and  C_34
REMARK   11  A    between atoms: C_33  and  C_35
REMARK   12  A    between atoms: C_34  and  C_37
REMARK   13  A    between atoms: C_36  and  C_38
REMARK   14  A    between atoms: C_43  and  C_47
REMARK                            x       y       z     vdW  Elec       q    Type
REMARK                         _______ _______ _______ _____ _____    ______ ____
ROOT
ATOM      1  O   UNL     1     105.320 128.035 143.828  0.00  0.00    +0.000 OA
ATOM      2  O   UNL     1     106.787 126.044 143.941  0.00  0.00    +0.000 OA
ATOM      3  O   UNL     1     106.178 126.539 142.489  0.00  0.00    +0.000 OA
ATOM      4  C   UNL     1     106.298 126.708 143.903  0.00  0.00    +0.000 C 
ATOM      5  C   UNL     1     105.993 126.956 143.177  0.00  0.00    +0.000 C 
ATOM      6  C   UNL     1     106.113 127.124 144.591  0.00  0.00    +0.000 C 
ATOM      7  C   UNL     1     105.504 127.619 143.139  0.00  0.00    +0.000 C 
ATOM      8  C   UNL     1     105.624 127.788 144.553  0.00  0.00    +0.000 C 
ENDROOT
BRANCH   6   9
ATOM      9  O   UNL     1     106.417 126.876 145.317  0.00  0.00    +0.000 OA
BRANCH   9  11
ATOM     10  O   UNL     1     105.332 125.969 145.516  0.00  0.00    +0.000 OA
ATOM     11  C   UNL     1     106.099 126.215 145.694  0.00  0.00    +0.000 C 
BRANCH  11  12
ATOM     12  C   UNL     1     106.548 125.801 146.248  0.00  0.00    +0.000 C 
ATOM     13  C   UNL     1     106.400 125.897 147.055  0.00  0.00    +0.000 C 
BRANCH  13  16
ATOM     14  O   UNL     1     108.928 124.914 147.952  0.00  0.00    +0.000 OA
ATOM     15  O   UNL     1     108.198 124.239 149.269  0.00  0.00    +0.000 OA
ATOM     16  C   UNL     1     106.849 125.483 147.609  0.00  0.00    +0.000 A 
ATOM     17  C   UNL     1     107.663 125.405 147.504  0.00  0.00    +0.000 A 
ATOM     18  C   UNL     1     106.484 125.145 148.267  0.00  0.00    +0.000 A 
ATOM     19  C   UNL     1     108.113 124.991 148.057  0.00  0.00    +0.000 A 
ATOM     20  C   UNL     1     106.934 124.731 148.821  0.00  0.00    +0.000 A 
ATOM     21  C   UNL     1     107.748 124.653 148.716  0.00  0.00    +0.000 A 
ENDBRANCH  13  16
ENDBRANCH  11  12
ENDBRANCH   9  11
ENDBRANCH   6   9
BRANCH   8  22
ATOM     22  O   UNL     1     105.440 128.203 145.242  0.00  0.00    +0.000 OA
BRANCH  22  25
ATOM     23  O   UNL     1     104.143 129.036 145.832  0.00  0.00    +0.000 OA
ATOM     24  O   UNL     1     104.150 130.686 145.825  0.00  0.00    +0.000 OA
ATOM     25  C   UNL     1     105.443 129.028 145.239  0.00  0.00    +0.000 A 
ATOM     26  C   UNL     1     104.794 129.445 145.534  0.00  0.00    +0.000 A 
ATOM     27  C   UNL     1     106.094 129.437 144.940  0.00  0.00    +0.000 A 
ATOM     28  C   UNL     1     104.797 130.270 145.531  0.00  0.00    +0.000 A 
ATOM     29  C   UNL     1     106.097 130.262 144.937  0.00  0.00    +0.000 A 
ATOM     30  C   UNL     1     105.449 130.678 145.232  0.00  0.00    +0.000 A 
BRANCH  30  32
ATOM     31  O   UNL     1     105.636 131.918 145.918  0.00  0.00    +0.000 OA
ATOM     32  C   UNL     1     105.453 131.503 145.228  0.00  0.00    +0.000 C 
BRANCH  32  33
ATOM     33  C   UNL     1     105.273 131.914 144.536  0.00  0.00    +0.000 C 
ATOM     34  C   UNL     1     105.424 132.723 144.485  0.00  0.00    +0.000 C 
BRANCH  34  37
ATOM     35  O   UNL     1     104.015 134.816 143.141  0.00  0.00    +0.000 OA
ATOM     36  O   UNL     1     104.703 134.361 141.712  0.00  0.00    +0.000 OA
ATOM     37  C   UNL     1     105.243 133.133 143.792  0.00  0.00    +0.000 A 
ATOM     38  C   UNL     1     104.719 133.770 143.813  0.00  0.00    +0.000 A 
ATOM     39  C   UNL     1     105.587 132.906 143.077  0.00  0.00    +0.000 A 
ATOM     40  C   UNL     1     104.539 134.179 143.120  0.00  0.00    +0.000 A 
ATOM     41  C   UNL     1     105.407 133.315 142.384  0.00  0.00    +0.000 A 
ATOM     42  C   UNL     1     104.883 133.952 142.405  0.00  0.00    +0.000 A 
ENDBRANCH  34  37
ENDBRANCH  32  33
ENDBRANCH  30  32
ENDBRANCH  22  25
ENDBRANCH   8  22
BRANCH   7  43
ATOM     43  C   UNL     1     105.200 127.866 142.414  0.00  0.00    +0.000 C 
BRANCH  43  44
ATOM     44  O   UNL     1     104.497 128.297 142.386  0.00  0.00    +0.000 OA
BRANCH  44  46
ATOM     45  O   UNL     1     104.438 128.384 140.961  0.00  0.00    +0.000 OA
ATOM     46  C   UNL     1     104.295 128.714 141.704  0.00  0.00    +0.000 C 
BRANCH  46  47
ATOM     47  C   UNL     1     103.950 129.461 141.763  0.00  0.00    +0.000 C 
ATOM     48  C   UNL     1     103.130 129.540 141.736  0.00  0.00    +0.000 C 
BRANCH  48  50
ATOM     49  O   UNL     1     101.750 132.529 141.972  0.00  0.00    +0.000 OA
ATOM     50  C   UNL     1     102.785 130.287 141.796  0.00  0.00    +0.000 A 
ATOM     51  C   UNL     1     102.673 130.744 141.118  0.00  0.00    +0.000 A 
ATOM     52  C   UNL     1     102.552 130.577 142.532  0.00  0.00    +0.000 A 
ATOM     53  C   UNL     1     102.328 131.492 141.177  0.00  0.00    +0.000 A 
ATOM     54  C   UNL     1     102.208 131.324 142.591  0.00  0.00    +0.000 A 
ATOM     55  C   UNL     1     102.095 131.781 141.914  0.00  0.00    +0.000 A 
ENDBRANCH  48  50
ENDBRANCH  46  47
ENDBRANCH  44  46
ENDBRANCH  43  44
ENDBRANCH   7  43
TORSDOF 14
ENDMDL
