MODEL 1
REMARK VINA RESULT:      -7.3      0.000      0.000
REMARK  Name = 75072280
REMARK  6 active torsions:
REMARK  status: ('A' for Active; 'I' for Inactive)
REMARK    1  A    between atoms: O_2  and  C_14
REMARK    2  A    between atoms: O_4  and  C_18
REMARK    3  A    between atoms: O_5  and  C_20
REMARK    4  A    between atoms: O_6  and  C_21
REMARK    5  A    between atoms: O_7  and  C_22
REMARK    6  A    between atoms: C_8  and  C_12
REMARK                            x       y       z     vdW  Elec       q    Type
REMARK                         _______ _______ _______ _____ _____    ______ ____
ROOT
ATOM      1  O   UNL     1     112.699 126.485 136.725  0.00  0.00    +0.000 OA
ATOM      2  C   UNL     1     113.317 127.029 136.665  0.00  0.00    +0.000 C 
ATOM      3  C   UNL     1     114.095 126.763 136.597  0.00  0.00    +0.000 C 
ATOM      4  C   UNL     1     114.255 125.954 136.588  0.00  0.00    +0.000 C 
ATOM      5  C   UNL     1     113.637 125.411 136.648  0.00  0.00    +0.000 A 
ATOM      6  C   UNL     1     112.859 125.676 136.716  0.00  0.00    +0.000 A 
ATOM      7  C   UNL     1     112.207 125.120 136.779  0.00  0.00    +0.000 A 
ATOM      8  C   UNL     1     113.817 124.570 136.638  0.00  0.00    +0.000 A 
ATOM      9  C   UNL     1     112.368 124.276 136.771  0.00  0.00    +0.000 A 
ATOM     10  C   UNL     1     113.178 123.999 136.700  0.00  0.00    +0.000 A 
ENDROOT
BRANCH   2  12
ATOM     11  O   UNL     1     113.282 127.849 138.097  0.00  0.00    +0.000 OA
ATOM     12  C   UNL     1     113.157 127.838 136.674  0.00  0.00    +0.000 A 
ATOM     13  C   UNL     1     113.139 128.248 137.390  0.00  0.00    +0.000 A 
ATOM     14  C   UNL     1     113.013 128.238 135.965  0.00  0.00    +0.000 A 
ATOM     15  C   UNL     1     112.978 129.058 137.397  0.00  0.00    +0.000 A 
ATOM     16  C   UNL     1     112.852 129.047 135.974  0.00  0.00    +0.000 A 
ATOM     17  C   UNL     1     112.835 129.457 136.690  0.00  0.00    +0.000 A 
BRANCH  15  18
ATOM     18  O   UNL     1     112.960 129.467 138.113  0.00  0.00    +0.000 OA
ATOM     19  C   UNL     1     112.332 129.359 138.635  0.00  0.00    +0.000 C 
ENDBRANCH  15  18
BRANCH  16  20
ATOM     20  O   UNL     1     112.709 129.446 135.266  0.00  0.00    +0.000 OA
ATOM     21  C   UNL     1     112.352 129.052 134.635  0.00  0.00    +0.000 C 
ENDBRANCH  16  20
BRANCH  17  22
ATOM     22  O   UNL     1     112.674 130.266 136.697  0.00  0.00    +0.000 OA
ATOM     23  C   UNL     1     113.288 130.810 136.615  0.00  0.00    +0.000 C 
ENDBRANCH  17  22
ENDBRANCH   2  12
BRANCH   7  24
ATOM     24  O   UNL     1     111.432 125.395 136.848  0.00  0.00    +0.000 OA
ATOM     25  C   UNL     1     110.907 125.308 136.217  0.00  0.00    +0.000 C 
ENDBRANCH   7  24
BRANCH   9  26
ATOM     26  O   UNL     1     111.747 123.735 136.831  0.00  0.00    +0.000 OA
ATOM     27  C   UNL     1     111.895 122.966 137.089  0.00  0.00    +0.000 C 
ENDBRANCH   9  26
TORSDOF 6
ENDMDL
MODEL 2
REMARK VINA RESULT:      -7.2      0.500      1.554
REMARK  Name = 75072280
REMARK  6 active torsions:
REMARK  status: ('A' for Active; 'I' for Inactive)
REMARK    1  A    between atoms: O_2  and  C_14
REMARK    2  A    between atoms: O_4  and  C_18
REMARK    3  A    between atoms: O_5  and  C_20
REMARK    4  A    between atoms: O_6  and  C_21
REMARK    5  A    between atoms: O_7  and  C_22
REMARK    6  A    between atoms: C_8  and  C_12
REMARK                            x       y       z     vdW  Elec       q    Type
REMARK                         _______ _______ _______ _____ _____    ______ ____
ROOT
ATOM      1  O   UNL     1     112.656 126.550 136.938  0.00  0.00    +0.000 OA
ATOM      2  C   UNL     1     113.250 127.105 136.790  0.00  0.00    +0.000 C 
ATOM      3  C   UNL     1     114.002 126.853 136.565  0.00  0.00    +0.000 C 
ATOM      4  C   UNL     1     114.161 126.047 136.487  0.00  0.00    +0.000 C 
ATOM      5  C   UNL     1     113.569 125.493 136.634  0.00  0.00    +0.000 A 
ATOM      6  C   UNL     1     112.816 125.745 136.860  0.00  0.00    +0.000 A 
ATOM      7  C   UNL     1     112.190 125.177 137.017  0.00  0.00    +0.000 A 
ATOM      8  C   UNL     1     113.747 124.657 136.550  0.00  0.00    +0.000 A 
ATOM      9  C   UNL     1     112.350 124.337 136.937  0.00  0.00    +0.000 A 
ATOM     10  C   UNL     1     113.134 124.075 136.702  0.00  0.00    +0.000 A 
ENDROOT
BRANCH   2  12
ATOM     11  O   UNL     1     112.749 127.978 135.483  0.00  0.00    +0.000 OA
ATOM     12  C   UNL     1     113.089 127.910 136.868  0.00  0.00    +0.000 A 
ATOM     13  C   UNL     1     112.839 128.347 136.215  0.00  0.00    +0.000 A 
ATOM     14  C   UNL     1     113.180 128.279 137.601  0.00  0.00    +0.000 A 
ATOM     15  C   UNL     1     112.679 129.152 136.294  0.00  0.00    +0.000 A 
ATOM     16  C   UNL     1     113.020 129.085 137.679  0.00  0.00    +0.000 A 
ATOM     17  C   UNL     1     112.769 129.521 137.026  0.00  0.00    +0.000 A 
BRANCH  15  18
ATOM     18  O   UNL     1     112.428 129.589 135.640  0.00  0.00    +0.000 OA
ATOM     19  C   UNL     1     111.668 129.481 135.338  0.00  0.00    +0.000 C 
ENDBRANCH  15  18
BRANCH  16  20
ATOM     20  O   UNL     1     113.110 129.454 138.412  0.00  0.00    +0.000 OA
ATOM     21  C   UNL     1     113.037 129.015 139.107  0.00  0.00    +0.000 C 
ENDBRANCH  16  20
BRANCH  17  22
ATOM     22  O   UNL     1     112.609 130.327 137.105  0.00  0.00    +0.000 OA
ATOM     23  C   UNL     1     113.221 130.877 137.048  0.00  0.00    +0.000 C 
ENDBRANCH  17  22
ENDBRANCH   2  12
BRANCH   7  24
ATOM     24  O   UNL     1     111.440 125.438 137.242  0.00  0.00    +0.000 OA
ATOM     25  C   UNL     1     110.805 125.369 136.719  0.00  0.00    +0.000 C 
ENDBRANCH   7  24
BRANCH   9  26
ATOM     26  O   UNL     1     111.754 123.785 137.086  0.00  0.00    +0.000 OA
ATOM     27  C   UNL     1     111.948 122.992 137.205  0.00  0.00    +0.000 C 
ENDBRANCH   9  26
TORSDOF 6
ENDMDL
MODEL 3
REMARK VINA RESULT:      -7.1      1.009      1.575
REMARK  Name = 75072280
REMARK  6 active torsions:
REMARK  status: ('A' for Active; 'I' for Inactive)
REMARK    1  A    between atoms: O_2  and  C_14
REMARK    2  A    between atoms: O_4  and  C_18
REMARK    3  A    between atoms: O_5  and  C_20
REMARK    4  A    between atoms: O_6  and  C_21
REMARK    5  A    between atoms: O_7  and  C_22
REMARK    6  A    between atoms: C_8  and  C_12
REMARK                            x       y       z     vdW  Elec       q    Type
REMARK                         _______ _______ _______ _____ _____    ______ ____
ROOT
ATOM      1  O   UNL     1     112.804 126.805 136.597  0.00  0.00    +0.000 OA
ATOM      2  C   UNL     1     112.498 127.524 136.331  0.00  0.00    +0.000 C 
ATOM      3  C   UNL     1     111.781 127.543 135.924  0.00  0.00    +0.000 C 
ATOM      4  C   UNL     1     111.370 126.842 135.782  0.00  0.00    +0.000 C 
ATOM      5  C   UNL     1     111.674 126.123 136.047  0.00  0.00    +0.000 A 
ATOM      6  C   UNL     1     112.392 126.105 136.455  0.00  0.00    +0.000 A 
ATOM      7  C   UNL     1     112.720 125.362 136.736  0.00  0.00    +0.000 A 
ATOM      8  C   UNL     1     111.236 125.400 135.893  0.00  0.00    +0.000 A 
ATOM      9  C   UNL     1     112.295 124.629 136.591  0.00  0.00    +0.000 A 
ATOM     10  C   UNL     1     111.549 124.648 136.167  0.00  0.00    +0.000 A 
ENDROOT
BRANCH   2  12
ATOM     11  O   UNL     1     112.228 128.375 137.719  0.00  0.00    +0.000 OA
ATOM     12  C   UNL     1     112.910 128.224 136.474  0.00  0.00    +0.000 A 
ATOM     13  C   UNL     1     112.775 128.650 137.168  0.00  0.00    +0.000 A 
ATOM     14  C   UNL     1     113.459 128.500 135.921  0.00  0.00    +0.000 A 
ATOM     15  C   UNL     1     113.188 129.350 137.309  0.00  0.00    +0.000 A 
ATOM     16  C   UNL     1     113.871 129.200 136.064  0.00  0.00    +0.000 A 
ATOM     17  C   UNL     1     113.736 129.625 136.758  0.00  0.00    +0.000 A 
BRANCH  15  18
ATOM     18  O   UNL     1     113.053 129.775 138.003  0.00  0.00    +0.000 OA
ATOM     19  C   UNL     1     113.334 129.489 138.724  0.00  0.00    +0.000 C 
ENDBRANCH  15  18
BRANCH  16  20
ATOM     20  O   UNL     1     114.419 129.475 135.511  0.00  0.00    +0.000 OA
ATOM     21  C   UNL     1     114.752 128.953 134.965  0.00  0.00    +0.000 C 
ENDBRANCH  16  20
BRANCH  17  22
ATOM     22  O   UNL     1     114.149 130.325 136.899  0.00  0.00    +0.000 OA
ATOM     23  C   UNL     1     113.864 131.040 136.602  0.00  0.00    +0.000 C 
ENDBRANCH  17  22
ENDBRANCH   2  12
BRANCH   7  24
ATOM     24  O   UNL     1     113.438 125.353 137.143  0.00  0.00    +0.000 OA
ATOM     25  C   UNL     1     114.109 125.030 136.787  0.00  0.00    +0.000 C 
ENDBRANCH   7  24
BRANCH   9  26
ATOM     26  O   UNL     1     112.604 123.911 136.858  0.00  0.00    +0.000 OA
ATOM     27  C   UNL     1     112.105 123.262 136.963  0.00  0.00    +0.000 C 
ENDBRANCH   9  26
TORSDOF 6
ENDMDL
MODEL 4
REMARK VINA RESULT:      -6.9     12.689     13.967
REMARK  Name = 75072280
REMARK  6 active torsions:
REMARK  status: ('A' for Active; 'I' for Inactive)
REMARK    1  A    between atoms: O_2  and  C_14
REMARK    2  A    between atoms: O_4  and  C_18
REMARK    3  A    between atoms: O_5  and  C_20
REMARK    4  A    between atoms: O_6  and  C_21
REMARK    5  A    between atoms: O_7  and  C_22
REMARK    6  A    between atoms: C_8  and  C_12
REMARK                            x       y       z     vdW  Elec       q    Type
REMARK                         _______ _______ _______ _____ _____    ______ ____
ROOT
ATOM      1  O   UNL     1     103.975 124.584 147.024  0.00  0.00    +0.000 OA
ATOM      2  C   UNL     1     104.246 125.032 147.663  0.00  0.00    +0.000 C 
ATOM      3  C   UNL     1     103.710 125.331 148.214  0.00  0.00    +0.000 C 
ATOM      4  C   UNL     1     102.903 125.183 148.127  0.00  0.00    +0.000 C 
ATOM      5  C   UNL     1     102.632 124.737 147.490  0.00  0.00    +0.000 A 
ATOM      6  C   UNL     1     103.168 124.437 146.938  0.00  0.00    +0.000 A 
ATOM      7  C   UNL     1     102.897 123.970 146.269  0.00  0.00    +0.000 A 
ATOM      8  C   UNL     1     101.789 124.589 147.410  0.00  0.00    +0.000 A 
ATOM      9  C   UNL     1     102.058 123.813 146.174  0.00  0.00    +0.000 A 
ATOM     10  C   UNL     1     101.500 124.125 146.748  0.00  0.00    +0.000 A 
ENDROOT
BRANCH   2  12
ATOM     11  O   UNL     1     105.168 124.051 148.617  0.00  0.00    +0.000 OA
ATOM     12  C   UNL     1     105.053 125.179 147.749  0.00  0.00    +0.000 A 
ATOM     13  C   UNL     1     105.514 124.689 148.226  0.00  0.00    +0.000 A 
ATOM     14  C   UNL     1     105.399 125.818 147.357  0.00  0.00    +0.000 A 
ATOM     15  C   UNL     1     106.321 124.837 148.311  0.00  0.00    +0.000 A 
ATOM     16  C   UNL     1     106.206 125.965 147.443  0.00  0.00    +0.000 A 
ATOM     17  C   UNL     1     106.667 125.475 147.920  0.00  0.00    +0.000 A 
BRANCH  15  18
ATOM     18  O   UNL     1     106.782 124.347 148.789  0.00  0.00    +0.000 OA
ATOM     19  C   UNL     1     106.726 124.398 149.610  0.00  0.00    +0.000 C 
ENDBRANCH  15  18
BRANCH  16  20
ATOM     20  O   UNL     1     106.553 126.604 147.051  0.00  0.00    +0.000 OA
ATOM     21  C   UNL     1     106.095 127.259 146.845  0.00  0.00    +0.000 C 
ENDBRANCH  16  20
BRANCH  17  22
ATOM     22  O   UNL     1     107.475 125.623 148.006  0.00  0.00    +0.000 OA
ATOM     23  C   UNL     1     108.013 125.295 147.475  0.00  0.00    +0.000 C 
ENDBRANCH  17  22
ENDBRANCH   2  12
BRANCH   7  24
ATOM     24  O   UNL     1     103.440 123.674 145.723  0.00  0.00    +0.000 OA
ATOM     25  C   UNL     1     103.571 122.861 145.670  0.00  0.00    +0.000 C 
ENDBRANCH   7  24
BRANCH   9  26
ATOM     26  O   UNL     1     101.790 123.365 145.534  0.00  0.00    +0.000 OA
ATOM     27  C   UNL     1     100.980 123.266 145.411  0.00  0.00    +0.000 C 
ENDBRANCH   9  26
TORSDOF 6
ENDMDL
MODEL 5
REMARK VINA RESULT:      -6.9      1.093      4.709
REMARK  Name = 75072280
REMARK  6 active torsions:
REMARK  status: ('A' for Active; 'I' for Inactive)
REMARK    1  A    between atoms: O_2  and  C_14
REMARK    2  A    between atoms: O_4  and  C_18
REMARK    3  A    between atoms: O_5  and  C_20
REMARK    4  A    between atoms: O_6  and  C_21
REMARK    5  A    between atoms: O_7  and  C_22
REMARK    6  A    between atoms: C_8  and  C_12
REMARK                            x       y       z     vdW  Elec       q    Type
REMARK                         _______ _______ _______ _____ _____    ______ ____
ROOT
ATOM      1  O   UNL     1     113.290 127.795 136.450  0.00  0.00    +0.000 OA
ATOM      2  C   UNL     1     112.949 127.309 137.023  0.00  0.00    +0.000 C 
ATOM      3  C   UNL     1     112.779 127.610 137.772  0.00  0.00    +0.000 C 
ATOM      4  C   UNL     1     112.949 128.399 137.947  0.00  0.00    +0.000 C 
ATOM      5  C   UNL     1     113.289 128.885 137.375  0.00  0.00    +0.000 A 
ATOM      6  C   UNL     1     113.460 128.583 136.626  0.00  0.00    +0.000 A 
ATOM      7  C   UNL     1     113.814 129.079 136.020  0.00  0.00    +0.000 A 
ATOM      8  C   UNL     1     113.462 129.704 137.569  0.00  0.00    +0.000 A 
ATOM      9  C   UNL     1     113.994 129.901 136.197  0.00  0.00    +0.000 A 
ATOM     10  C   UNL     1     113.816 130.215 136.977  0.00  0.00    +0.000 A 
ENDROOT
BRANCH   2  12
ATOM     11  O   UNL     1     111.438 126.883 136.516  0.00  0.00    +0.000 OA
ATOM     12  C   UNL     1     112.780 126.521 136.847  0.00  0.00    +0.000 A 
ATOM     13  C   UNL     1     112.024 126.308 136.594  0.00  0.00    +0.000 A 
ATOM     14  C   UNL     1     113.366 125.945 136.925  0.00  0.00    +0.000 A 
ATOM     15  C   UNL     1     111.855 125.520 136.418  0.00  0.00    +0.000 A 
ATOM     16  C   UNL     1     113.197 125.158 136.749  0.00  0.00    +0.000 A 
ATOM     17  C   UNL     1     112.441 124.945 136.495  0.00  0.00    +0.000 A 
BRANCH  15  18
ATOM     18  O   UNL     1     111.100 125.307 136.164  0.00  0.00    +0.000 OA
ATOM     19  C   UNL     1     110.843 125.517 135.409  0.00  0.00    +0.000 C 
ENDBRANCH  15  18
BRANCH  16  20
ATOM     20  O   UNL     1     113.784 124.582 136.827  0.00  0.00    +0.000 OA
ATOM     21  C   UNL     1     114.575 124.806 136.888  0.00  0.00    +0.000 C 
ENDBRANCH  16  20
BRANCH  17  22
ATOM     22  O   UNL     1     112.273 124.156 136.319  0.00  0.00    +0.000 OA
ATOM     23  C   UNL     1     112.037 123.641 136.918  0.00  0.00    +0.000 C 
ENDBRANCH  17  22
ENDBRANCH   2  12
BRANCH   7  24
ATOM     24  O   UNL     1     113.981 128.769 135.274  0.00  0.00    +0.000 OA
ATOM     25  C   UNL     1     113.571 129.043 134.612  0.00  0.00    +0.000 C 
ENDBRANCH   7  24
BRANCH   9  26
ATOM     26  O   UNL     1     114.334 130.384 135.621  0.00  0.00    +0.000 OA
ATOM     27  C   UNL     1     114.706 131.087 135.841  0.00  0.00    +0.000 C 
ENDBRANCH   9  26
TORSDOF 6
ENDMDL
MODEL 6
REMARK VINA RESULT:      -6.9      1.134      4.605
REMARK  Name = 75072280
REMARK  6 active torsions:
REMARK  status: ('A' for Active; 'I' for Inactive)
REMARK    1  A    between atoms: O_2  and  C_14
REMARK    2  A    between atoms: O_4  and  C_18
REMARK    3  A    between atoms: O_5  and  C_20
REMARK    4  A    between atoms: O_6  and  C_21
REMARK    5  A    between atoms: O_7  and  C_22
REMARK    6  A    between atoms: C_8  and  C_12
REMARK                            x       y       z     vdW  Elec       q    Type
REMARK                         _______ _______ _______ _____ _____    ______ ____
ROOT
ATOM      1  O   UNL     1     112.956 127.525 137.435  0.00  0.00    +0.000 OA
ATOM      2  C   UNL     1     112.947 127.170 136.689  0.00  0.00    +0.000 C 
ATOM      3  C   UNL     1     113.140 127.613 136.020  0.00  0.00    +0.000 C 
ATOM      4  C   UNL     1     113.342 128.409 136.097  0.00  0.00    +0.000 C 
ATOM      5  C   UNL     1     113.351 128.763 136.841  0.00  0.00    +0.000 A 
ATOM      6  C   UNL     1     113.158 128.321 137.510  0.00  0.00    +0.000 A 
ATOM      7  C   UNL     1     113.164 128.679 138.292  0.00  0.00    +0.000 A 
ATOM      8  C   UNL     1     113.563 129.593 136.907  0.00  0.00    +0.000 A 
ATOM      9  C   UNL     1     113.374 129.507 138.377  0.00  0.00    +0.000 A 
ATOM     10  C   UNL     1     113.575 129.968 137.680  0.00  0.00    +0.000 A 
ENDROOT
BRANCH   2  12
ATOM     11  O   UNL     1     111.395 126.743 136.327  0.00  0.00    +0.000 OA
ATOM     12  C   UNL     1     112.745 126.374 136.614  0.00  0.00    +0.000 A 
ATOM     13  C   UNL     1     111.969 126.160 136.433  0.00  0.00    +0.000 A 
ATOM     14  C   UNL     1     113.320 125.791 136.720  0.00  0.00    +0.000 A 
ATOM     15  C   UNL     1     111.768 125.364 136.358  0.00  0.00    +0.000 A 
ATOM     16  C   UNL     1     113.117 124.995 136.645  0.00  0.00    +0.000 A 
ATOM     17  C   UNL     1     112.341 124.781 136.464  0.00  0.00    +0.000 A 
BRANCH  15  18
ATOM     18  O   UNL     1     110.992 125.150 136.177  0.00  0.00    +0.000 OA
ATOM     19  C   UNL     1     110.679 125.321 135.433  0.00  0.00    +0.000 C 
ENDBRANCH  15  18
BRANCH  16  20
ATOM     20  O   UNL     1     113.692 124.412 136.751  0.00  0.00    +0.000 OA
ATOM     21  C   UNL     1     114.478 124.626 136.883  0.00  0.00    +0.000 C 
ENDBRANCH  16  20
BRANCH  17  22
ATOM     22  O   UNL     1     112.140 123.984 136.389  0.00  0.00    +0.000 OA
ATOM     23  C   UNL     1     111.942 123.544 137.057  0.00  0.00    +0.000 C 
ENDBRANCH  17  22
ENDBRANCH   2  12
BRANCH   7  24
ATOM     24  O   UNL     1     112.970 128.228 138.956  0.00  0.00    +0.000 OA
ATOM     25  C   UNL     1     112.266 128.374 139.361  0.00  0.00    +0.000 C 
ENDBRANCH   7  24
BRANCH   9  26
ATOM     26  O   UNL     1     113.382 129.858 139.124  0.00  0.00    +0.000 OA
ATOM     27  C   UNL     1     113.849 130.525 139.261  0.00  0.00    +0.000 C 
ENDBRANCH   9  26
TORSDOF 6
ENDMDL
MODEL 7
REMARK VINA RESULT:      -6.9     11.813     13.583
REMARK  Name = 75072280
REMARK  6 active torsions:
REMARK  status: ('A' for Active; 'I' for Inactive)
REMARK    1  A    between atoms: O_2  and  C_14
REMARK    2  A    between atoms: O_4  and  C_18
REMARK    3  A    between atoms: O_5  and  C_20
REMARK    4  A    between atoms: O_6  and  C_21
REMARK    5  A    between atoms: O_7  and  C_22
REMARK    6  A    between atoms: C_8  and  C_12
REMARK                            x       y       z     vdW  Elec       q    Type
REMARK                         _______ _______ _______ _____ _____    ______ ____
ROOT
ATOM      1  O   UNL     1     105.100 125.660 146.509  0.00  0.00    +0.000 OA
ATOM      2  C   UNL     1     104.940 124.985 146.957  0.00  0.00    +0.000 C 
ATOM      3  C   UNL     1     105.476 124.734 147.532  0.00  0.00    +0.000 C 
ATOM      4  C   UNL     1     106.172 125.159 147.659  0.00  0.00    +0.000 C 
ATOM      5  C   UNL     1     106.332 125.832 147.212  0.00  0.00    +0.000 A 
ATOM      6  C   UNL     1     105.796 126.083 146.637  0.00  0.00    +0.000 A 
ATOM      7  C   UNL     1     105.952 126.784 146.164  0.00  0.00    +0.000 A 
ATOM      8  C   UNL     1     107.061 126.266 147.353  0.00  0.00    +0.000 A 
ATOM      9  C   UNL     1     106.675 127.229 146.292  0.00  0.00    +0.000 A 
ATOM     10  C   UNL     1     107.233 126.969 146.891  0.00  0.00    +0.000 A 
ENDROOT
BRANCH   2  12
ATOM     11  O   UNL     1     104.958 123.630 146.016  0.00  0.00    +0.000 OA
ATOM     12  C   UNL     1     104.244 124.561 146.829  0.00  0.00    +0.000 A 
ATOM     13  C   UNL     1     104.252 123.884 146.359  0.00  0.00    +0.000 A 
ATOM     14  C   UNL     1     103.537 124.816 147.173  0.00  0.00    +0.000 A 
ATOM     15  C   UNL     1     103.555 123.461 146.232  0.00  0.00    +0.000 A 
ATOM     16  C   UNL     1     102.841 124.393 147.046  0.00  0.00    +0.000 A 
ATOM     17  C   UNL     1     102.850 123.715 146.575  0.00  0.00    +0.000 A 
BRANCH  15  18
ATOM     18  O   UNL     1     103.564 122.784 145.761  0.00  0.00    +0.000 OA
ATOM     19  C   UNL     1     103.681 122.848 144.947  0.00  0.00    +0.000 C 
ENDBRANCH  15  18
BRANCH  16  20
ATOM     20  O   UNL     1     102.135 124.648 147.389  0.00  0.00    +0.000 OA
ATOM     21  C   UNL     1     102.115 125.352 147.818  0.00  0.00    +0.000 C 
ENDBRANCH  16  20
BRANCH  17  22
ATOM     22  O   UNL     1     102.153 123.293 146.448  0.00  0.00    +0.000 OA
ATOM     23  C   UNL     1     101.898 122.739 147.003  0.00  0.00    +0.000 C 
ENDBRANCH  17  22
ENDBRANCH   2  12
BRANCH   7  24
ATOM     24  O   UNL     1     105.409 127.027 145.592  0.00  0.00    +0.000 OA
ATOM     25  C   UNL     1     105.587 126.936 144.791  0.00  0.00    +0.000 C 
ENDBRANCH   7  24
BRANCH   9  26
ATOM     26  O   UNL     1     106.832 127.904 145.843  0.00  0.00    +0.000 OA
ATOM     27  C   UNL     1     107.453 128.404 146.054  0.00  0.00    +0.000 C 
ENDBRANCH   9  26
TORSDOF 6
ENDMDL
MODEL 8
REMARK VINA RESULT:      -6.9     10.670     12.943
REMARK  Name = 75072280
REMARK  6 active torsions:
REMARK  status: ('A' for Active; 'I' for Inactive)
REMARK    1  A    between atoms: O_2  and  C_14
REMARK    2  A    between atoms: O_4  and  C_18
REMARK    3  A    between atoms: O_5  and  C_20
REMARK    4  A    between atoms: O_6  and  C_21
REMARK    5  A    between atoms: O_7  and  C_22
REMARK    6  A    between atoms: C_8  and  C_12
REMARK                            x       y       z     vdW  Elec       q    Type
REMARK                         _______ _______ _______ _____ _____    ______ ____
ROOT
ATOM      1  O   UNL     1     102.750 132.219 141.578  0.00  0.00    +0.000 OA
ATOM      2  C   UNL     1     102.337 131.522 141.739  0.00  0.00    +0.000 C 
ATOM      3  C   UNL     1     101.530 131.550 141.909  0.00  0.00    +0.000 C 
ATOM      4  C   UNL     1     101.136 132.275 141.917  0.00  0.00    +0.000 C 
ATOM      5  C   UNL     1     101.548 132.971 141.756  0.00  0.00    +0.000 A 
ATOM      6  C   UNL     1     102.355 132.943 141.586  0.00  0.00    +0.000 A 
ATOM      7  C   UNL     1     102.795 133.661 141.416  0.00  0.00    +0.000 A 
ATOM      8  C   UNL     1     101.126 133.720 141.768  0.00  0.00    +0.000 A 
ATOM      9  C   UNL     1     102.390 134.418 141.424  0.00  0.00    +0.000 A 
ATOM     10  C   UNL     1     101.550 134.448 141.600  0.00  0.00    +0.000 A 
ENDROOT
BRANCH   2  12
ATOM     11  O   UNL     1     102.408 130.636 140.349  0.00  0.00    +0.000 OA
ATOM     12  C   UNL     1     102.732 130.798 141.731  0.00  0.00    +0.000 A 
ATOM     13  C   UNL     1     102.768 130.355 141.036  0.00  0.00    +0.000 A 
ATOM     14  C   UNL     1     103.092 130.517 142.419  0.00  0.00    +0.000 A 
ATOM     15  C   UNL     1     103.163 129.631 141.028  0.00  0.00    +0.000 A 
ATOM     16  C   UNL     1     103.487 129.793 142.410  0.00  0.00    +0.000 A 
ATOM     17  C   UNL     1     103.523 129.350 141.715  0.00  0.00    +0.000 A 
BRANCH  15  18
ATOM     18  O   UNL     1     103.199 129.188 140.333  0.00  0.00    +0.000 OA
ATOM     19  C   UNL     1     102.503 128.950 139.959  0.00  0.00    +0.000 C 
ENDBRANCH  15  18
BRANCH  16  20
ATOM     20  O   UNL     1     103.847 129.511 143.098  0.00  0.00    +0.000 OA
ATOM     21  C   UNL     1     103.883 129.989 143.770  0.00  0.00    +0.000 C 
ENDBRANCH  16  20
BRANCH  17  22
ATOM     22  O   UNL     1     103.918 128.625 141.708  0.00  0.00    +0.000 OA
ATOM     23  C   UNL     1     104.737 128.603 141.610  0.00  0.00    +0.000 C 
ENDBRANCH  17  22
ENDBRANCH   2  12
BRANCH   7  24
ATOM     24  O   UNL     1     103.602 133.623 141.248  0.00  0.00    +0.000 OA
ATOM     25  C   UNL     1     103.874 133.806 140.490  0.00  0.00    +0.000 C 
ENDBRANCH   7  24
BRANCH   9  26
ATOM     26  O   UNL     1     102.806 135.113 141.262  0.00  0.00    +0.000 OA
ATOM     27  C   UNL     1     102.482 135.844 141.467  0.00  0.00    +0.000 C 
ENDBRANCH   9  26
TORSDOF 6
ENDMDL
MODEL 9
REMARK VINA RESULT:      -6.7      2.349      4.257
REMARK  Name = 75072280
REMARK  6 active torsions:
REMARK  status: ('A' for Active; 'I' for Inactive)
REMARK    1  A    between atoms: O_2  and  C_14
REMARK    2  A    between atoms: O_4  and  C_18
REMARK    3  A    between atoms: O_5  and  C_20
REMARK    4  A    between atoms: O_6  and  C_21
REMARK    5  A    between atoms: O_7  and  C_22
REMARK    6  A    between atoms: C_8  and  C_12
REMARK                            x       y       z     vdW  Elec       q    Type
REMARK                         _______ _______ _______ _____ _____    ______ ____
ROOT
ATOM      1  O   UNL     1     112.023 126.543 139.008  0.00  0.00    +0.000 OA
ATOM      2  C   UNL     1     112.515 126.280 138.400  0.00  0.00    +0.000 C 
ATOM      3  C   UNL     1     113.331 126.246 138.515  0.00  0.00    +0.000 C 
ATOM      4  C   UNL     1     113.655 126.475 139.238  0.00  0.00    +0.000 C 
ATOM      5  C   UNL     1     113.164 126.737 139.846  0.00  0.00    +0.000 A 
ATOM      6  C   UNL     1     112.348 126.772 139.731  0.00  0.00    +0.000 A 
ATOM      7  C   UNL     1     111.825 127.044 140.357  0.00  0.00    +0.000 A 
ATOM      8  C   UNL     1     113.514 126.973 140.595  0.00  0.00    +0.000 A 
ATOM      9  C   UNL     1     112.157 127.283 141.112  0.00  0.00    +0.000 A 
ATOM     10  C   UNL     1     113.007 127.248 141.232  0.00  0.00    +0.000 A 
ENDROOT
BRANCH   2  12
ATOM     11  O   UNL     1     112.104 124.703 138.140  0.00  0.00    +0.000 OA
ATOM     12  C   UNL     1     112.190 126.052 137.677  0.00  0.00    +0.000 A 
ATOM     13  C   UNL     1     111.984 125.263 137.547  0.00  0.00    +0.000 A 
ATOM     14  C   UNL     1     112.070 126.613 137.083  0.00  0.00    +0.000 A 
ATOM     15  C   UNL     1     111.659 125.036 136.824  0.00  0.00    +0.000 A 
ATOM     16  C   UNL     1     111.745 126.384 136.360  0.00  0.00    +0.000 A 
ATOM     17  C   UNL     1     111.540 125.596 136.230  0.00  0.00    +0.000 A 
BRANCH  15  18
ATOM     18  O   UNL     1     111.454 124.248 136.694  0.00  0.00    +0.000 OA
ATOM     19  C   UNL     1     112.042 123.678 136.596  0.00  0.00    +0.000 C 
ENDBRANCH  15  18
BRANCH  16  20
ATOM     20  O   UNL     1     111.626 126.945 135.766  0.00  0.00    +0.000 OA
ATOM     21  C   UNL     1     112.003 127.678 135.809  0.00  0.00    +0.000 C 
ENDBRANCH  16  20
BRANCH  17  22
ATOM     22  O   UNL     1     111.215 125.369 135.507  0.00  0.00    +0.000 OA
ATOM     23  C   UNL     1     110.406 125.458 135.371  0.00  0.00    +0.000 C 
ENDBRANCH  17  22
ENDBRANCH   2  12
BRANCH   7  24
ATOM     24  O   UNL     1     111.010 127.075 140.233  0.00  0.00    +0.000 OA
ATOM     25  C   UNL     1     110.510 126.565 140.647  0.00  0.00    +0.000 C 
ENDBRANCH   7  24
BRANCH   9  26
ATOM     26  O   UNL     1     111.662 127.546 141.718  0.00  0.00    +0.000 OA
ATOM     27  C   UNL     1     111.960 128.040 142.308  0.00  0.00    +0.000 C 
ENDBRANCH   9  26
TORSDOF 6
ENDMDL
MODEL 10
REMARK VINA RESULT:      -6.7      1.800      4.836
REMARK  Name = 75072280
REMARK  6 active torsions:
REMARK  status: ('A' for Active; 'I' for Inactive)
REMARK    1  A    between atoms: O_2  and  C_14
REMARK    2  A    between atoms: O_4  and  C_18
REMARK    3  A    between atoms: O_5  and  C_20
REMARK    4  A    between atoms: O_6  and  C_21
REMARK    5  A    between atoms: O_7  and  C_22
REMARK    6  A    between atoms: C_8  and  C_12
REMARK                            x       y       z     vdW  Elec       q    Type
REMARK                         _______ _______ _______ _____ _____    ______ ____
ROOT
ATOM      1  O   UNL     1     113.192 127.450 138.786  0.00  0.00    +0.000 OA
ATOM      2  C   UNL     1     113.058 126.662 138.992  0.00  0.00    +0.000 C 
ATOM      3  C   UNL     1     113.133 126.423 139.778  0.00  0.00    +0.000 C 
ATOM      4  C   UNL     1     113.343 126.972 140.358  0.00  0.00    +0.000 C 
ATOM      5  C   UNL     1     113.477 127.759 140.151  0.00  0.00    +0.000 A 
ATOM      6  C   UNL     1     113.402 127.997 139.365  0.00  0.00    +0.000 A 
ATOM      7  C   UNL     1     113.539 128.815 139.138  0.00  0.00    +0.000 A 
ATOM      8  C   UNL     1     113.695 128.321 140.764  0.00  0.00    +0.000 A 
ATOM      9  C   UNL     1     113.758 129.391 139.737  0.00  0.00    +0.000 A 
ATOM     10  C   UNL     1     113.836 129.142 140.555  0.00  0.00    +0.000 A 
ENDROOT
BRANCH   2  12
ATOM     11  O   UNL     1     111.466 126.354 138.683  0.00  0.00    +0.000 OA
ATOM     12  C   UNL     1     112.848 126.114 138.413  0.00  0.00    +0.000 A 
ATOM     13  C   UNL     1     112.052 125.960 138.258  0.00  0.00    +0.000 A 
ATOM     14  C   UNL     1     113.435 125.719 137.987  0.00  0.00    +0.000 A 
ATOM     15  C   UNL     1     111.844 125.412 137.678  0.00  0.00    +0.000 A 
ATOM     16  C   UNL     1     113.225 125.171 137.407  0.00  0.00    +0.000 A 
ATOM     17  C   UNL     1     112.430 125.017 137.252  0.00  0.00    +0.000 A 
BRANCH  15  18
ATOM     18  O   UNL     1     111.048 125.258 137.523  0.00  0.00    +0.000 OA
ATOM     19  C   UNL     1     110.590 125.815 137.123  0.00  0.00    +0.000 C 
ENDBRANCH  15  18
BRANCH  16  20
ATOM     20  O   UNL     1     113.813 124.776 136.981  0.00  0.00    +0.000 OA
ATOM     21  C   UNL     1     114.585 125.066 136.977  0.00  0.00    +0.000 C 
ENDBRANCH  16  20
BRANCH  17  22
ATOM     22  O   UNL     1     112.221 124.469 136.672  0.00  0.00    +0.000 OA
ATOM     23  C   UNL     1     112.163 123.669 136.862  0.00  0.00    +0.000 C 
ENDBRANCH  17  22
ENDBRANCH   2  12
BRANCH   7  24
ATOM     24  O   UNL     1     113.461 129.045 138.349  0.00  0.00    +0.000 OA
ATOM     25  C   UNL     1     112.839 129.539 138.123  0.00  0.00    +0.000 C 
ENDBRANCH   7  24
BRANCH   9  26
ATOM     26  O   UNL     1     113.891 130.178 139.526  0.00  0.00    +0.000 OA
ATOM     27  C   UNL     1     114.387 130.649 139.988  0.00  0.00    +0.000 C 
ENDBRANCH   9  26
TORSDOF 6
ENDMDL
