MODEL 1
REMARK VINA RESULT:      -8.7      0.000      0.000
REMARK  Name = 44259716
REMARK  3 active torsions:
REMARK  status: ('A' for Active; 'I' for Inactive)
REMARK    1  A    between atoms: O_2  and  C_13
REMARK    2  A    between atoms: O_6  and  C_24
REMARK    3  A    between atoms: C_11  and  C_16
REMARK                            x       y       z     vdW  Elec       q    Type
REMARK                         _______ _______ _______ _____ _____    ______ ____
ROOT
ATOM      1  O   UNL     1     105.115 124.378 147.658  0.00  0.00    +0.000 OA
ATOM      2  O   UNL     1     107.546 125.502 146.575  0.00  0.00    +0.000 OA
ATOM      3  O   UNL     1     107.527 124.423 149.289  0.00  0.00    +0.000 OA
ATOM      4  O   UNL     1     106.333 125.463 145.796  0.00  0.00    +0.000 OA
ATOM      5  C   UNL     1     106.317 124.933 147.124  0.00  0.00    +0.000 A 
ATOM      6  C   UNL     1     105.911 124.572 147.744  0.00  0.00    +0.000 A 
ATOM      7  C   UNL     1     104.723 124.545 146.951  0.00  0.00    +0.000 A 
ATOM      8  C   UNL     1     107.149 125.141 147.201  0.00  0.00    +0.000 A 
ATOM      9  C   UNL     1     105.129 124.907 146.331  0.00  0.00    +0.000 A 
ATOM     10  C   UNL     1     105.927 125.101 146.417  0.00  0.00    +0.000 A 
ATOM     11  C   UNL     1     107.561 124.969 147.934  0.00  0.00    +0.000 A 
ATOM     12  C   UNL     1     106.308 124.392 148.485  0.00  0.00    +0.000 A 
ATOM     13  C   UNL     1     107.138 124.592 148.581  0.00  0.00    +0.000 A 
ATOM     14  C   UNL     1     108.358 125.164 148.018  0.00  0.00    +0.000 C 
ENDROOT
BRANCH   7  17
ATOM     15  O   UNL     1     101.964 125.186 147.333  0.00  0.00    +0.000 OA
ATOM     16  O   UNL     1     102.698 122.740 146.051  0.00  0.00    +0.000 OA
ATOM     17  C   UNL     1     103.926 124.351 146.865  0.00  0.00    +0.000 A 
ATOM     18  C   UNL     1     103.711 123.642 146.501  0.00  0.00    +0.000 A 
ATOM     19  C   UNL     1     103.344 124.866 147.142  0.00  0.00    +0.000 A 
ATOM     20  C   UNL     1     102.546 124.672 147.056  0.00  0.00    +0.000 A 
ATOM     21  C   UNL     1     102.914 123.448 146.415  0.00  0.00    +0.000 A 
ATOM     22  C   UNL     1     102.332 123.963 146.692  0.00  0.00    +0.000 A 
BRANCH  22  23
ATOM     23  O   UNL     1     101.534 123.769 146.606  0.00  0.00    +0.000 OA
ATOM     24  C   UNL     1     101.147 123.342 147.196  0.00  0.00    +0.000 C 
ENDBRANCH  22  23
ENDBRANCH   7  17
BRANCH   9  25
ATOM     25  O   UNL     1     104.738 125.074 145.624  0.00  0.00    +0.000 OA
ATOM     26  C   UNL     1     105.168 125.313 144.961  0.00  0.00    +0.000 C 
ENDBRANCH   9  25
TORSDOF 3
ENDMDL
MODEL 2
REMARK VINA RESULT:      -8.2      1.505      3.333
REMARK  Name = 44259716
REMARK  3 active torsions:
REMARK  status: ('A' for Active; 'I' for Inactive)
REMARK    1  A    between atoms: O_2  and  C_13
REMARK    2  A    between atoms: O_6  and  C_24
REMARK    3  A    between atoms: C_11  and  C_16
REMARK                            x       y       z     vdW  Elec       q    Type
REMARK                         _______ _______ _______ _____ _____    ______ ____
ROOT
ATOM      1  O   UNL     1     106.829 125.278 146.408  0.00  0.00    +0.000 OA
ATOM      2  O   UNL     1     105.675 124.430 148.916  0.00  0.00    +0.000 OA
ATOM      3  O   UNL     1     108.569 124.746 148.682  0.00  0.00    +0.000 OA
ATOM      4  O   UNL     1     104.844 124.702 147.769  0.00  0.00    +0.000 OA
ATOM      5  C   UNL     1     106.260 124.859 147.648  0.00  0.00    +0.000 A 
ATOM      6  C   UNL     1     106.921 125.051 147.195  0.00  0.00    +0.000 A 
ATOM      7  C   UNL     1     106.076 125.314 146.073  0.00  0.00    +0.000 A 
ATOM      8  C   UNL     1     106.342 124.620 148.471  0.00  0.00    +0.000 A 
ATOM      9  C   UNL     1     105.414 125.122 146.527  0.00  0.00    +0.000 A 
ATOM     10  C   UNL     1     105.506 124.894 147.315  0.00  0.00    +0.000 A 
ATOM     11  C   UNL     1     107.124 124.581 148.824  0.00  0.00    +0.000 A 
ATOM     12  C   UNL     1     107.712 125.017 147.531  0.00  0.00    +0.000 A 
ATOM     13  C   UNL     1     107.814 124.781 148.351  0.00  0.00    +0.000 A 
ATOM     14  C   UNL     1     107.214 124.353 149.612  0.00  0.00    +0.000 C 
ENDROOT
BRANCH   7  17
ATOM     15  O   UNL     1     105.640 127.356 144.122  0.00  0.00    +0.000 OA
ATOM     16  O   UNL     1     105.958 124.638 143.299  0.00  0.00    +0.000 OA
ATOM     17  C   UNL     1     105.984 125.541 145.286  0.00  0.00    +0.000 A 
ATOM     18  C   UNL     1     106.017 124.976 144.686  0.00  0.00    +0.000 A 
ATOM     19  C   UNL     1     105.858 126.335 145.098  0.00  0.00    +0.000 A 
ATOM     20  C   UNL     1     105.765 126.563 144.310  0.00  0.00    +0.000 A 
ATOM     21  C   UNL     1     105.925 125.204 143.899  0.00  0.00    +0.000 A 
ATOM     22  C   UNL     1     105.799 125.997 143.711  0.00  0.00    +0.000 A 
BRANCH  22  23
ATOM     23  O   UNL     1     105.707 126.225 142.923  0.00  0.00    +0.000 OA
ATOM     24  C   UNL     1     106.368 126.417 142.469  0.00  0.00    +0.000 C 
ENDBRANCH  22  23
ENDBRANCH   7  17
BRANCH   9  25
ATOM     25  O   UNL     1     104.660 125.157 146.194  0.00  0.00    +0.000 OA
ATOM     26  C   UNL     1     104.039 124.733 146.532  0.00  0.00    +0.000 C 
ENDBRANCH   9  25
TORSDOF 3
ENDMDL
MODEL 3
REMARK VINA RESULT:      -8.2     12.817     14.261
REMARK  Name = 44259716
REMARK  3 active torsions:
REMARK  status: ('A' for Active; 'I' for Inactive)
REMARK    1  A    between atoms: O_2  and  C_13
REMARK    2  A    between atoms: O_6  and  C_24
REMARK    3  A    between atoms: C_11  and  C_16
REMARK                            x       y       z     vdW  Elec       q    Type
REMARK                         _______ _______ _______ _____ _____    ______ ____
ROOT
ATOM      1  O   UNL     1     113.538 126.796 136.552  0.00  0.00    +0.000 OA
ATOM      2  O   UNL     1     111.347 124.927 136.323  0.00  0.00    +0.000 OA
ATOM      3  O   UNL     1     113.962 123.995 137.228  0.00  0.00    +0.000 OA
ATOM      4  O   UNL     1     111.174 126.321 135.997  0.00  0.00    +0.000 OA
ATOM      5  C   UNL     1     112.456 125.871 136.439  0.00  0.00    +0.000 A 
ATOM      6  C   UNL     1     113.244 126.029 136.624  0.00  0.00    +0.000 A 
ATOM      7  C   UNL     1     113.045 127.405 136.295  0.00  0.00    +0.000 A 
ATOM      8  C   UNL     1     112.136 125.075 136.510  0.00  0.00    +0.000 A 
ATOM      9  C   UNL     1     112.257 127.247 136.110  0.00  0.00    +0.000 A 
ATOM     10  C   UNL     1     111.962 126.479 136.182  0.00  0.00    +0.000 A 
ATOM     11  C   UNL     1     112.645 124.437 136.777  0.00  0.00    +0.000 A 
ATOM     12  C   UNL     1     113.768 125.403 136.893  0.00  0.00    +0.000 A 
ATOM     13  C   UNL     1     113.467 124.602 136.970  0.00  0.00    +0.000 A 
ATOM     14  C   UNL     1     112.347 123.671 136.849  0.00  0.00    +0.000 C 
ENDROOT
BRANCH   7  17
ATOM     15  O   UNL     1     114.335 129.424 134.737  0.00  0.00    +0.000 OA
ATOM     16  O   UNL     1     113.524 129.989 137.418  0.00  0.00    +0.000 OA
ATOM     17  C   UNL     1     113.340 128.172 136.223  0.00  0.00    +0.000 A 
ATOM     18  C   UNL     1     113.285 128.697 136.857  0.00  0.00    +0.000 A 
ATOM     19  C   UNL     1     113.690 128.414 135.516  0.00  0.00    +0.000 A 
ATOM     20  C   UNL     1     113.985 129.182 135.444  0.00  0.00    +0.000 A 
ATOM     21  C   UNL     1     113.579 129.464 136.785  0.00  0.00    +0.000 A 
ATOM     22  C   UNL     1     113.929 129.706 136.078  0.00  0.00    +0.000 A 
BRANCH  22  23
ATOM     23  O   UNL     1     114.224 130.474 136.005  0.00  0.00    +0.000 OA
ATOM     24  C   UNL     1     115.025 130.622 136.135  0.00  0.00    +0.000 C 
ENDBRANCH  22  23
ENDBRANCH   7  17
BRANCH   9  25
ATOM     25  O   UNL     1     111.763 127.856 135.852  0.00  0.00    +0.000 OA
ATOM     26  C   UNL     1     111.082 127.681 135.421  0.00  0.00    +0.000 C 
ENDBRANCH   9  25
TORSDOF 3
ENDMDL
MODEL 4
REMARK VINA RESULT:      -8.1      1.002      4.623
REMARK  Name = 44259716
REMARK  3 active torsions:
REMARK  status: ('A' for Active; 'I' for Inactive)
REMARK    1  A    between atoms: O_2  and  C_13
REMARK    2  A    between atoms: O_6  and  C_24
REMARK    3  A    between atoms: C_11  and  C_16
REMARK                            x       y       z     vdW  Elec       q    Type
REMARK                         _______ _______ _______ _____ _____    ______ ____
ROOT
ATOM      1  O   UNL     1     104.358 124.182 146.854  0.00  0.00    +0.000 OA
ATOM      2  O   UNL     1     101.529 124.613 147.254  0.00  0.00    +0.000 OA
ATOM      3  O   UNL     1     102.439 122.791 145.162  0.00  0.00    +0.000 OA
ATOM      4  O   UNL     1     102.508 125.285 148.074  0.00  0.00    +0.000 OA
ATOM      5  C   UNL     1     102.959 124.395 147.051  0.00  0.00    +0.000 A 
ATOM      6  C   UNL     1     103.576 124.027 146.645  0.00  0.00    +0.000 A 
ATOM      7  C   UNL     1     104.524 124.705 147.471  0.00  0.00    +0.000 A 
ATOM      8  C   UNL     1     102.139 124.241 146.842  0.00  0.00    +0.000 A 
ATOM      9  C   UNL     1     103.908 125.073 147.877  0.00  0.00    +0.000 A 
ATOM     10  C   UNL     1     103.124 124.918 147.667  0.00  0.00    +0.000 A 
ATOM     11  C   UNL     1     101.960 123.698 146.202  0.00  0.00    +0.000 A 
ATOM     12  C   UNL     1     103.415 123.480 146.001  0.00  0.00    +0.000 A 
ATOM     13  C   UNL     1     102.603 123.315 145.778  0.00  0.00    +0.000 A 
ATOM     14  C   UNL     1     101.176 123.544 145.994  0.00  0.00    +0.000 C 
ENDROOT
BRANCH   7  17
ATOM     15  O   UNL     1     106.900 126.268 147.182  0.00  0.00    +0.000 OA
ATOM     16  O   UNL     1     106.844 124.077 149.017  0.00  0.00    +0.000 OA
ATOM     17  C   UNL     1     105.306 124.861 147.680  0.00  0.00    +0.000 A 
ATOM     18  C   UNL     1     105.684 124.391 148.244  0.00  0.00    +0.000 A 
ATOM     19  C   UNL     1     105.712 125.486 147.326  0.00  0.00    +0.000 A 
ATOM     20  C   UNL     1     106.495 125.642 147.536  0.00  0.00    +0.000 A 
ATOM     21  C   UNL     1     106.466 124.546 148.453  0.00  0.00    +0.000 A 
ATOM     22  C   UNL     1     106.872 125.172 148.100  0.00  0.00    +0.000 A 
BRANCH  22  23
ATOM     23  O   UNL     1     107.655 125.328 148.309  0.00  0.00    +0.000 OA
ATOM     24  C   UNL     1     108.272 124.997 147.873  0.00  0.00    +0.000 C 
ENDBRANCH  22  23
ENDBRANCH   7  17
BRANCH   9  25
ATOM     25  O   UNL     1     104.073 125.596 148.493  0.00  0.00    +0.000 OA
ATOM     26  C   UNL     1     103.467 125.852 148.991  0.00  0.00    +0.000 C 
ENDBRANCH   9  25
TORSDOF 3
ENDMDL
MODEL 5
REMARK VINA RESULT:      -8.0     12.000     13.821
REMARK  Name = 44259716
REMARK  3 active torsions:
REMARK  status: ('A' for Active; 'I' for Inactive)
REMARK    1  A    between atoms: O_2  and  C_13
REMARK    2  A    between atoms: O_6  and  C_24
REMARK    3  A    between atoms: C_11  and  C_16
REMARK                            x       y       z     vdW  Elec       q    Type
REMARK                         _______ _______ _______ _____ _____    ______ ____
ROOT
ATOM      1  O   UNL     1     113.542 127.447 136.074  0.00  0.00    +0.000 OA
ATOM      2  O   UNL     1     113.417 129.933 137.540  0.00  0.00    +0.000 OA
ATOM      3  O   UNL     1     114.758 129.841 134.948  0.00  0.00    +0.000 OA
ATOM      4  O   UNL     1     112.826 128.727 138.067  0.00  0.00    +0.000 OA
ATOM      5  C   UNL     1     113.481 128.677 136.798  0.00  0.00    +0.000 A 
ATOM      6  C   UNL     1     113.719 128.250 136.134  0.00  0.00    +0.000 A 
ATOM      7  C   UNL     1     113.126 127.070 136.678  0.00  0.00    +0.000 A 
ATOM      8  C   UNL     1     113.659 129.515 136.872  0.00  0.00    +0.000 A 
ATOM      9  C   UNL     1     112.887 127.496 137.343  0.00  0.00    +0.000 A 
ATOM     10  C   UNL     1     113.065 128.301 137.403  0.00  0.00    +0.000 A 
ATOM     11  C   UNL     1     114.092 129.912 136.246  0.00  0.00    +0.000 A 
ATOM     12  C   UNL     1     114.154 128.631 135.497  0.00  0.00    +0.000 A 
ATOM     13  C   UNL     1     114.341 129.467 135.554  0.00  0.00    +0.000 A 
ATOM     14  C   UNL     1     114.269 130.716 136.309  0.00  0.00    +0.000 C 
ENDROOT
BRANCH   7  17
ATOM     15  O   UNL     1     113.863 124.336 137.071  0.00  0.00    +0.000 OA
ATOM     16  O   UNL     1     111.324 124.982 135.929  0.00  0.00    +0.000 OA
ATOM     17  C   UNL     1     112.948 126.267 136.619  0.00  0.00    +0.000 A 
ATOM     18  C   UNL     1     112.225 126.026 136.304  0.00  0.00    +0.000 A 
ATOM     19  C   UNL     1     113.494 125.704 136.875  0.00  0.00    +0.000 A 
ATOM     20  C   UNL     1     113.317 124.899 136.815  0.00  0.00    +0.000 A 
ATOM     21  C   UNL     1     112.047 125.223 136.244  0.00  0.00    +0.000 A 
ATOM     22  C   UNL     1     112.593 124.660 136.500  0.00  0.00    +0.000 A 
BRANCH  22  23
ATOM     23  O   UNL     1     112.416 123.855 136.440  0.00  0.00    +0.000 OA
ATOM     24  C   UNL     1     112.028 123.472 137.059  0.00  0.00    +0.000 C 
ENDBRANCH  22  23
ENDBRANCH   7  17
BRANCH   9  25
ATOM     25  O   UNL     1     112.471 127.120 137.948  0.00  0.00    +0.000 OA
ATOM     26  C   UNL     1     112.463 127.444 138.707  0.00  0.00    +0.000 C 
ENDBRANCH   9  25
TORSDOF 3
ENDMDL
MODEL 6
REMARK VINA RESULT:      -8.0      6.873      8.456
REMARK  Name = 44259716
REMARK  3 active torsions:
REMARK  status: ('A' for Active; 'I' for Inactive)
REMARK    1  A    between atoms: O_2  and  C_13
REMARK    2  A    between atoms: O_6  and  C_24
REMARK    3  A    between atoms: C_11  and  C_16
REMARK                            x       y       z     vdW  Elec       q    Type
REMARK                         _______ _______ _______ _____ _____    ______ ____
ROOT
ATOM      1  O   UNL     1     103.520 130.291 142.310  0.00  0.00    +0.000 OA
ATOM      2  O   UNL     1     104.248 127.824 140.995  0.00  0.00    +0.000 OA
ATOM      3  O   UNL     1     105.380 128.464 143.609  0.00  0.00    +0.000 OA
ATOM      4  O   UNL     1     103.330 128.752 140.381  0.00  0.00    +0.000 OA
ATOM      5  C   UNL     1     103.881 129.071 141.661  0.00  0.00    +0.000 A 
ATOM      6  C   UNL     1     103.944 129.584 142.304  0.00  0.00    +0.000 A 
ATOM      7  C   UNL     1     103.033 130.486 141.674  0.00  0.00    +0.000 A 
ATOM      8  C   UNL     1     104.318 128.330 141.642  0.00  0.00    +0.000 A 
ATOM      9  C   UNL     1     102.969 129.973 141.031  0.00  0.00    +0.000 A 
ATOM     10  C   UNL     1     103.393 129.265 141.024  0.00  0.00    +0.000 A 
ATOM     11  C   UNL     1     104.827 128.122 142.301  0.00  0.00    +0.000 A 
ATOM     12  C   UNL     1     104.449 129.392 142.973  0.00  0.00    +0.000 A 
ATOM     13  C   UNL     1     104.893 128.657 142.972  0.00  0.00    +0.000 A 
ATOM     14  C   UNL     1     105.250 127.413 142.292  0.00  0.00    +0.000 C 
ENDROOT
BRANCH   7  17
ATOM     15  O   UNL     1     102.804 133.241 140.949  0.00  0.00    +0.000 OA
ATOM     16  O   UNL     1     100.717 131.977 142.436  0.00  0.00    +0.000 OA
ATOM     17  C   UNL     1     102.609 131.193 141.680  0.00  0.00    +0.000 A 
ATOM     18  C   UNL     1     101.875 131.231 142.055  0.00  0.00    +0.000 A 
ATOM     19  C   UNL     1     102.919 131.863 141.312  0.00  0.00    +0.000 A 
ATOM     20  C   UNL     1     102.494 132.571 141.318  0.00  0.00    +0.000 A 
ATOM     21  C   UNL     1     101.451 131.938 142.061  0.00  0.00    +0.000 A 
ATOM     22  C   UNL     1     101.761 132.608 141.693  0.00  0.00    +0.000 A 
BRANCH  22  23
ATOM     23  O   UNL     1     101.336 133.317 141.699  0.00  0.00    +0.000 OA
ATOM     24  C   UNL     1     101.426 133.846 142.326  0.00  0.00    +0.000 C 
ENDBRANCH  22  23
ENDBRANCH   7  17
BRANCH   9  25
ATOM     25  O   UNL     1     102.482 130.167 140.394  0.00  0.00    +0.000 OA
ATOM     26  C   UNL     1     102.206 129.575 139.890  0.00  0.00    +0.000 C 
ENDBRANCH   9  25
TORSDOF 3
ENDMDL
MODEL 7
REMARK VINA RESULT:      -8.0      1.661      4.601
REMARK  Name = 44259716
REMARK  3 active torsions:
REMARK  status: ('A' for Active; 'I' for Inactive)
REMARK    1  A    between atoms: O_2  and  C_13
REMARK    2  A    between atoms: O_6  and  C_24
REMARK    3  A    between atoms: C_11  and  C_16
REMARK                            x       y       z     vdW  Elec       q    Type
REMARK                         _______ _______ _______ _____ _____    ______ ____
ROOT
ATOM      1  O   UNL     1     103.332 124.387 146.211  0.00  0.00    +0.000 OA
ATOM      2  O   UNL     1     102.154 123.692 148.756  0.00  0.00    +0.000 OA
ATOM      3  O   UNL     1     100.717 123.108 146.282  0.00  0.00    +0.000 OA
ATOM      4  O   UNL     1     103.447 124.327 148.683  0.00  0.00    +0.000 OA
ATOM      5  C   UNL     1     102.749 124.043 147.469  0.00  0.00    +0.000 A 
ATOM      6  C   UNL     1     102.710 124.063 146.645  0.00  0.00    +0.000 A 
ATOM      7  C   UNL     1     103.993 124.692 146.600  0.00  0.00    +0.000 A 
ATOM      8  C   UNL     1     102.107 123.708 147.933  0.00  0.00    +0.000 A 
ATOM      9  C   UNL     1     104.031 124.671 147.424  0.00  0.00    +0.000 A 
ATOM     10  C   UNL     1     103.409 124.347 147.859  0.00  0.00    +0.000 A 
ATOM     11  C   UNL     1     101.416 123.390 147.533  0.00  0.00    +0.000 A 
ATOM     12  C   UNL     1     102.027 123.750 146.227  0.00  0.00    +0.000 A 
ATOM     13  C   UNL     1     101.376 123.411 146.674  0.00  0.00    +0.000 A 
ATOM     14  C   UNL     1     100.796 123.066 147.969  0.00  0.00    +0.000 C 
ENDROOT
BRANCH   7  17
ATOM     15  O   UNL     1     106.374 124.353 145.056  0.00  0.00    +0.000 OA
ATOM     16  O   UNL     1     105.346 126.975 145.541  0.00  0.00    +0.000 OA
ATOM     17  C   UNL     1     104.615 125.015 146.167  0.00  0.00    +0.000 A 
ATOM     18  C   UNL     1     104.670 125.833 146.071  0.00  0.00    +0.000 A 
ATOM     19  C   UNL     1     105.183 124.522 145.829  0.00  0.00    +0.000 A 
ATOM     20  C   UNL     1     105.806 124.846 145.394  0.00  0.00    +0.000 A 
ATOM     21  C   UNL     1     105.291 126.157 145.637  0.00  0.00    +0.000 A 
ATOM     22  C   UNL     1     105.859 125.664 145.299  0.00  0.00    +0.000 A 
BRANCH  22  23
ATOM     23  O   UNL     1     106.482 125.988 144.864  0.00  0.00    +0.000 OA
ATOM     24  C   UNL     1     106.375 126.180 144.069  0.00  0.00    +0.000 C 
ENDBRANCH  22  23
ENDBRANCH   7  17
BRANCH   9  25
ATOM     25  O   UNL     1     104.692 124.975 147.814  0.00  0.00    +0.000 OA
ATOM     26  C   UNL     1     104.860 124.739 148.587  0.00  0.00    +0.000 C 
ENDBRANCH   9  25
TORSDOF 3
ENDMDL
MODEL 8
REMARK VINA RESULT:      -7.9     11.524     13.028
REMARK  Name = 44259716
REMARK  3 active torsions:
REMARK  status: ('A' for Active; 'I' for Inactive)
REMARK    1  A    between atoms: O_2  and  C_13
REMARK    2  A    between atoms: O_6  and  C_24
REMARK    3  A    between atoms: C_11  and  C_16
REMARK                            x       y       z     vdW  Elec       q    Type
REMARK                         _______ _______ _______ _____ _____    ______ ____
ROOT
ATOM      1  O   UNL     1     110.045 127.030 136.292  0.00  0.00    +0.000 OA
ATOM      2  O   UNL     1     110.788 129.649 135.327  0.00  0.00    +0.000 OA
ATOM      3  O   UNL     1     107.973 129.006 135.761  0.00  0.00    +0.000 OA
ATOM      4  O   UNL     1     111.787 128.646 135.601  0.00  0.00    +0.000 OA
ATOM      5  C   UNL     1     110.411 128.325 135.815  0.00  0.00    +0.000 A 
ATOM      6  C   UNL     1     109.830 127.787 136.045  0.00  0.00    +0.000 A 
ATOM      7  C   UNL     1     110.840 126.810 136.309  0.00  0.00    +0.000 A 
ATOM      8  C   UNL     1     110.201 129.118 135.555  0.00  0.00    +0.000 A 
ATOM      9  C   UNL     1     111.421 127.349 136.078  0.00  0.00    +0.000 A 
ATOM     10  C   UNL     1     111.207 128.107 135.831  0.00  0.00    +0.000 A 
ATOM     11  C   UNL     1     109.375 129.351 135.536  0.00  0.00    +0.000 A 
ATOM     12  C   UNL     1     108.998 128.003 136.032  0.00  0.00    +0.000 A 
ATOM     13  C   UNL     1     108.769 128.790 135.776  0.00  0.00    +0.000 A 
ATOM     14  C   UNL     1     109.163 130.109 135.288  0.00  0.00    +0.000 C 
ENDROOT
BRANCH   7  17
ATOM     15  O   UNL     1     111.480 124.094 135.691  0.00  0.00    +0.000 OA
ATOM     16  O   UNL     1     111.488 124.982 138.408  0.00  0.00    +0.000 OA
ATOM     17  C   UNL     1     111.055 126.054 136.556  0.00  0.00    +0.000 A 
ATOM     18  C   UNL     1     111.164 125.896 137.358  0.00  0.00    +0.000 A 
ATOM     19  C   UNL     1     111.160 125.453 136.000  0.00  0.00    +0.000 A 
ATOM     20  C   UNL     1     111.375 124.695 136.247  0.00  0.00    +0.000 A 
ATOM     21  C   UNL     1     111.378 125.139 137.605  0.00  0.00    +0.000 A 
ATOM     22  C   UNL     1     111.484 124.539 137.049  0.00  0.00    +0.000 A 
BRANCH  22  23
ATOM     23  O   UNL     1     111.699 123.781 137.296  0.00  0.00    +0.000 OA
ATOM     24  C   UNL     1     112.472 123.515 137.187  0.00  0.00    +0.000 C 
ENDBRANCH  22  23
ENDBRANCH   7  17
BRANCH   9  25
ATOM     25  O   UNL     1     112.216 127.131 136.095  0.00  0.00    +0.000 OA
ATOM     26  C   UNL     1     112.801 127.707 136.174  0.00  0.00    +0.000 C 
ENDBRANCH   9  25
TORSDOF 3
ENDMDL
MODEL 9
REMARK VINA RESULT:      -7.9     10.172     12.353
REMARK  Name = 44259716
REMARK  3 active torsions:
REMARK  status: ('A' for Active; 'I' for Inactive)
REMARK    1  A    between atoms: O_2  and  C_13
REMARK    2  A    between atoms: O_6  and  C_24
REMARK    3  A    between atoms: C_11  and  C_16
REMARK                            x       y       z     vdW  Elec       q    Type
REMARK                         _______ _______ _______ _____ _____    ______ ____
ROOT
ATOM      1  O   UNL     1     113.434 126.260 138.279  0.00  0.00    +0.000 OA
ATOM      2  O   UNL     1     111.300 124.417 137.653  0.00  0.00    +0.000 OA
ATOM      3  O   UNL     1     113.793 124.322 136.136  0.00  0.00    +0.000 OA
ATOM      4  O   UNL     1     111.157 125.390 138.708  0.00  0.00    +0.000 OA
ATOM      5  C   UNL     1     112.380 125.348 137.969  0.00  0.00    +0.000 A 
ATOM      6  C   UNL     1     113.139 125.638 137.826  0.00  0.00    +0.000 A 
ATOM      7  C   UNL     1     112.972 126.593 138.876  0.00  0.00    +0.000 A 
ATOM      8  C   UNL     1     112.059 124.700 137.503  0.00  0.00    +0.000 A 
ATOM      9  C   UNL     1     112.213 126.303 139.019  0.00  0.00    +0.000 A 
ATOM     10  C   UNL     1     111.916 125.680 138.565  0.00  0.00    +0.000 A 
ATOM     11  C   UNL     1     112.537 124.350 136.881  0.00  0.00    +0.000 A 
ATOM     12  C   UNL     1     113.631 125.300 137.207  0.00  0.00    +0.000 A 
ATOM     13  C   UNL     1     113.328 124.652 136.732  0.00  0.00    +0.000 A 
ATOM     14  C   UNL     1     112.238 123.727 136.429  0.00  0.00    +0.000 C 
ENDROOT
BRANCH   7  17
ATOM     15  O   UNL     1     113.316 129.398 139.303  0.00  0.00    +0.000 OA
ATOM     16  O   UNL     1     114.401 127.524 141.169  0.00  0.00    +0.000 OA
ATOM     17  C   UNL     1     113.267 127.215 139.329  0.00  0.00    +0.000 A 
ATOM     18  C   UNL     1     113.686 127.059 140.022  0.00  0.00    +0.000 A 
ATOM     19  C   UNL     1     113.144 127.995 139.089  0.00  0.00    +0.000 A 
ATOM     20  C   UNL     1     113.440 128.618 139.543  0.00  0.00    +0.000 A 
ATOM     21  C   UNL     1     113.982 127.681 140.476  0.00  0.00    +0.000 A 
ATOM     22  C   UNL     1     113.858 128.460 140.236  0.00  0.00    +0.000 A 
BRANCH  22  23
ATOM     23  O   UNL     1     114.154 129.084 140.690  0.00  0.00    +0.000 OA
ATOM     24  C   UNL     1     113.654 129.498 141.197  0.00  0.00    +0.000 C 
ENDBRANCH  22  23
ENDBRANCH   7  17
BRANCH   9  25
ATOM     25  O   UNL     1     111.749 126.635 139.615  0.00  0.00    +0.000 OA
ATOM     26  C   UNL     1     110.945 126.456 139.661  0.00  0.00    +0.000 C 
ENDBRANCH   9  25
TORSDOF 3
ENDMDL
MODEL 10
REMARK VINA RESULT:      -7.8     11.915     12.948
REMARK  Name = 44259716
REMARK  3 active torsions:
REMARK  status: ('A' for Active; 'I' for Inactive)
REMARK    1  A    between atoms: O_2  and  C_13
REMARK    2  A    between atoms: O_6  and  C_24
REMARK    3  A    between atoms: C_11  and  C_16
REMARK                            x       y       z     vdW  Elec       q    Type
REMARK                         _______ _______ _______ _____ _____    ______ ____
ROOT
ATOM      1  O   UNL     1     110.940 126.336 136.281  0.00  0.00    +0.000 OA
ATOM      2  O   UNL     1     113.748 125.761 136.645  0.00  0.00    +0.000 OA
ATOM      3  O   UNL     1     111.829 123.568 136.452  0.00  0.00    +0.000 OA
ATOM      4  O   UNL     1     113.272 127.119 136.556  0.00  0.00    +0.000 OA
ATOM      5  C   UNL     1     112.328 126.051 136.461  0.00  0.00    +0.000 A 
ATOM      6  C   UNL     1     111.551 125.789 136.369  0.00  0.00    +0.000 A 
ATOM      7  C   UNL     1     111.106 127.145 136.285  0.00  0.00    +0.000 A 
ATOM      8  C   UNL     1     112.975 125.491 136.554  0.00  0.00    +0.000 A 
ATOM      9  C   UNL     1     111.883 127.406 136.376  0.00  0.00    +0.000 A 
ATOM     10  C   UNL     1     112.495 126.858 136.464  0.00  0.00    +0.000 A 
ATOM     11  C   UNL     1     112.808 124.648 136.551  0.00  0.00    +0.000 A 
ATOM     12  C   UNL     1     111.366 124.950 136.364  0.00  0.00    +0.000 A 
ATOM     13  C   UNL     1     111.998 124.376 136.456  0.00  0.00    +0.000 A 
ATOM     14  C   UNL     1     113.421 124.103 136.639  0.00  0.00    +0.000 C 
ENDROOT
BRANCH   7  17
ATOM     15  O   UNL     1     109.516 128.831 134.612  0.00  0.00    +0.000 OA
ATOM     16  O   UNL     1     109.029 128.741 137.427  0.00  0.00    +0.000 OA
ATOM     17  C   UNL     1     110.495 127.691 136.197  0.00  0.00    +0.000 A 
ATOM     18  C   UNL     1     110.067 127.943 136.856  0.00  0.00    +0.000 A 
ATOM     19  C   UNL     1     110.312 127.988 135.449  0.00  0.00    +0.000 A 
ATOM     20  C   UNL     1     109.700 128.535 135.360  0.00  0.00    +0.000 A 
ATOM     21  C   UNL     1     109.457 128.490 136.768  0.00  0.00    +0.000 A 
ATOM     22  C   UNL     1     109.273 128.786 136.020  0.00  0.00    +0.000 A 
BRANCH  22  23
ATOM     23  O   UNL     1     108.662 129.334 135.931  0.00  0.00    +0.000 OA
ATOM     24  C   UNL     1     108.816 130.140 136.007  0.00  0.00    +0.000 C 
ENDBRANCH  22  23
ENDBRANCH   7  17
BRANCH   9  25
ATOM     25  O   UNL     1     112.050 128.214 136.380  0.00  0.00    +0.000 OA
ATOM     26  C   UNL     1     112.775 128.485 136.666  0.00  0.00    +0.000 C 
ENDBRANCH   9  25
TORSDOF 3
ENDMDL
