MODEL 1
REMARK VINA RESULT:      -9.2      0.000      0.000
REMARK  Name = 44257732
REMARK  7 active torsions:
REMARK  status: ('A' for Active; 'I' for Inactive)
REMARK    1  A    between atoms: O_2  and  C_12
REMARK    2  A    between atoms: O_2  and  C_21
REMARK    3  A    between atoms: C_14  and  C_17
REMARK    4  A    between atoms: C_16  and  C_18
REMARK    5  A    between atoms: C_21  and  C_23
REMARK    6  A    between atoms: C_23  and  C_26
REMARK    7  A    between atoms: C_29  and  C_32
REMARK                            x       y       z     vdW  Elec       q    Type
REMARK                         _______ _______ _______ _____ _____    ______ ____
ROOT
ATOM      1  O   UNL     1     112.130 127.476 137.408  0.00  0.00    +0.000 OA
ATOM      2  O   UNL     1     110.771 125.371 138.831  0.00  0.00    +0.000 OA
ATOM      3  O   UNL     1     112.591 127.069 140.237  0.00  0.00    +0.000 OA
ATOM      4  O   UNL     1     113.291 128.134 139.560  0.00  0.00    +0.000 OA
ATOM      5  C   UNL     1     111.452 126.419 138.137  0.00  0.00    +0.000 A 
ATOM      6  C   UNL     1     111.982 127.051 138.141  0.00  0.00    +0.000 A 
ATOM      7  C   UNL     1     111.301 126.003 138.834  0.00  0.00    +0.000 A 
ATOM      8  C   UNL     1     112.362 127.268 138.840  0.00  0.00    +0.000 A 
ATOM      9  C   UNL     1     111.681 126.220 139.534  0.00  0.00    +0.000 A 
ATOM     10  C   UNL     1     112.211 126.852 139.536  0.00  0.00    +0.000 A 
ATOM     11  C   UNL     1     112.916 127.925 138.856  0.00  0.00    +0.000 A 
ATOM     12  C   UNL     1     112.681 128.135 137.405  0.00  0.00    +0.000 A 
ATOM     13  C   UNL     1     113.077 128.361 138.134  0.00  0.00    +0.000 A 
ENDROOT
BRANCH   5  19
ATOM     14  O   UNL     1     110.397 126.608 137.192  0.00  0.00    +0.000 OA
ATOM     15  O   UNL     1     111.284 124.741 135.831  0.00  0.00    +0.000 OA
ATOM     16  O   UNL     1     109.933 125.552 135.339  0.00  0.00    +0.000 OA
ATOM     17  C   UNL     1     111.368 125.580 136.984  0.00  0.00    +0.000 C 
ATOM     18  C   UNL     1     110.988 125.363 136.284  0.00  0.00    +0.000 C 
ATOM     19  C   UNL     1     111.072 126.203 137.438  0.00  0.00    +0.000 C 
ATOM     20  C   UNL     1     110.313 125.769 136.039  0.00  0.00    +0.000 C 
ATOM     21  C   UNL     1     110.018 126.391 136.493  0.00  0.00    +0.000 C 
BRANCH  21  23
ATOM     22  O   UNL     1     108.804 127.077 136.808  0.00  0.00    +0.000 OA
ATOM     23  C   UNL     1     109.342 126.797 136.248  0.00  0.00    +0.000 C 
ENDBRANCH  21  23
BRANCH  17  24
ATOM     24  O   UNL     1     112.043 125.175 137.230  0.00  0.00    +0.000 OA
BRANCH  24  26
ATOM     25  O   UNL     1     112.489 125.090 135.874  0.00  0.00    +0.000 OA
ATOM     26  C   UNL     1     112.585 124.900 136.671  0.00  0.00    +0.000 C 
BRANCH  26  27
ATOM     27  C   UNL     1     113.224 124.436 136.910  0.00  0.00    +0.000 C 
ATOM     28  C   UNL     1     113.093 123.681 137.214  0.00  0.00    +0.000 C 
BRANCH  27  29
ATOM     29  C   UNL     1     113.993 124.727 136.845  0.00  0.00    +0.000 C 
ATOM     30  C   UNL     1     114.578 124.465 137.364  0.00  0.00    +0.000 C 
ENDBRANCH  27  29
ENDBRANCH  26  27
ENDBRANCH  24  26
ENDBRANCH  17  24
ENDBRANCH   5  19
BRANCH  12  32
ATOM     31  O   UNL     1     113.274 129.791 134.612  0.00  0.00    +0.000 OA
ATOM     32  C   UNL     1     112.830 128.549 136.707  0.00  0.00    +0.000 A 
ATOM     33  C   UNL     1     113.476 128.347 136.237  0.00  0.00    +0.000 A 
ATOM     34  C   UNL     1     112.331 129.165 136.479  0.00  0.00    +0.000 A 
ATOM     35  C   UNL     1     113.625 128.761 135.539  0.00  0.00    +0.000 A 
ATOM     36  C   UNL     1     112.479 129.580 135.780  0.00  0.00    +0.000 A 
ATOM     37  C   UNL     1     113.126 129.377 135.310  0.00  0.00    +0.000 A 
ENDBRANCH  12  32
TORSDOF 7
ENDMDL
MODEL 2
REMARK VINA RESULT:      -9.1      1.160      3.997
REMARK  Name = 44257732
REMARK  7 active torsions:
REMARK  status: ('A' for Active; 'I' for Inactive)
REMARK    1  A    between atoms: O_2  and  C_12
REMARK    2  A    between atoms: O_2  and  C_21
REMARK    3  A    between atoms: C_14  and  C_17
REMARK    4  A    between atoms: C_16  and  C_18
REMARK    5  A    between atoms: C_21  and  C_23
REMARK    6  A    between atoms: C_23  and  C_26
REMARK    7  A    between atoms: C_29  and  C_32
REMARK                            x       y       z     vdW  Elec       q    Type
REMARK                         _______ _______ _______ _____ _____    ______ ____
ROOT
ATOM      1  O   UNL     1     111.747 126.327 136.396  0.00  0.00    +0.000 OA
ATOM      2  O   UNL     1     114.602 126.396 136.776  0.00  0.00    +0.000 OA
ATOM      3  O   UNL     1     113.277 123.874 136.539  0.00  0.00    +0.000 OA
ATOM      4  O   UNL     1     111.850 123.797 136.347  0.00  0.00    +0.000 OA
ATOM      5  C   UNL     1     113.186 126.348 136.587  0.00  0.00    +0.000 A 
ATOM      6  C   UNL     1     112.494 125.911 136.485  0.00  0.00    +0.000 A 
ATOM      7  C   UNL     1     113.910 125.959 136.674  0.00  0.00    +0.000 A 
ATOM      8  C   UNL     1     112.524 125.087 136.469  0.00  0.00    +0.000 A 
ATOM      9  C   UNL     1     113.940 125.135 136.658  0.00  0.00    +0.000 A 
ATOM     10  C   UNL     1     113.247 124.699 136.555  0.00  0.00    +0.000 A 
ATOM     11  C   UNL     1     111.809 124.621 136.362  0.00  0.00    +0.000 A 
ATOM     12  C   UNL     1     111.022 125.878 136.289  0.00  0.00    +0.000 A 
ATOM     13  C   UNL     1     111.054 125.020 136.272  0.00  0.00    +0.000 A 
ENDROOT
BRANCH   5  19
ATOM     14  O   UNL     1     113.132 127.598 135.898  0.00  0.00    +0.000 OA
ATOM     15  O   UNL     1     113.114 128.792 138.065  0.00  0.00    +0.000 OA
ATOM     16  O   UNL     1     113.065 129.645 136.652  0.00  0.00    +0.000 OA
ATOM     17  C   UNL     1     113.150 127.570 137.326  0.00  0.00    +0.000 C 
ATOM     18  C   UNL     1     113.120 128.394 137.343  0.00  0.00    +0.000 C 
ATOM     19  C   UNL     1     113.156 127.171 136.604  0.00  0.00    +0.000 C 
ATOM     20  C   UNL     1     113.096 128.820 136.636  0.00  0.00    +0.000 C 
ATOM     21  C   UNL     1     113.102 128.422 135.914  0.00  0.00    +0.000 C 
BRANCH  21  23
ATOM     22  O   UNL     1     112.437 128.757 134.693  0.00  0.00    +0.000 OA
ATOM     23  C   UNL     1     113.077 128.847 135.207  0.00  0.00    +0.000 C 
ENDBRANCH  21  23
BRANCH  17  24
ATOM     24  O   UNL     1     113.174 127.144 138.032  0.00  0.00    +0.000 OA
BRANCH  24  26
ATOM     25  O   UNL     1     112.260 128.065 138.632  0.00  0.00    +0.000 OA
ATOM     26  C   UNL     1     112.782 127.430 138.700  0.00  0.00    +0.000 C 
BRANCH  26  27
ATOM     27  C   UNL     1     112.914 127.081 139.436  0.00  0.00    +0.000 C 
ATOM     28  C   UNL     1     113.653 127.139 139.794  0.00  0.00    +0.000 C 
BRANCH  27  29
ATOM     29  C   UNL     1     112.303 126.673 139.813  0.00  0.00    +0.000 C 
ATOM     30  C   UNL     1     112.359 126.500 140.618  0.00  0.00    +0.000 C 
ENDBRANCH  27  29
ENDBRANCH  26  27
ENDBRANCH  24  26
ENDBRANCH  17  24
ENDBRANCH   5  19
BRANCH  12  32
ATOM     31  O   UNL     1     108.136 127.441 135.943  0.00  0.00    +0.000 OA
ATOM     32  C   UNL     1     110.301 126.269 136.203  0.00  0.00    +0.000 A 
ATOM     33  C   UNL     1     109.871 126.493 136.869  0.00  0.00    +0.000 A 
ATOM     34  C   UNL     1     110.009 126.435 135.449  0.00  0.00    +0.000 A 
ATOM     35  C   UNL     1     109.149 126.884 136.783  0.00  0.00    +0.000 A 
ATOM     36  C   UNL     1     109.287 126.826 135.362  0.00  0.00    +0.000 A 
ATOM     37  C   UNL     1     108.857 127.050 136.029  0.00  0.00    +0.000 A 
ENDBRANCH  12  32
TORSDOF 7
ENDMDL
MODEL 3
REMARK VINA RESULT:      -9.0      1.302      3.235
REMARK  Name = 44257732
REMARK  7 active torsions:
REMARK  status: ('A' for Active; 'I' for Inactive)
REMARK    1  A    between atoms: O_2  and  C_12
REMARK    2  A    between atoms: O_2  and  C_21
REMARK    3  A    between atoms: C_14  and  C_17
REMARK    4  A    between atoms: C_16  and  C_18
REMARK    5  A    between atoms: C_21  and  C_23
REMARK    6  A    between atoms: C_23  and  C_26
REMARK    7  A    between atoms: C_29  and  C_32
REMARK                            x       y       z     vdW  Elec       q    Type
REMARK                         _______ _______ _______ _____ _____    ______ ____
ROOT
ATOM      1  O   UNL     1     111.578 127.486 136.501  0.00  0.00    +0.000 OA
ATOM      2  O   UNL     1     113.292 128.422 138.619  0.00  0.00    +0.000 OA
ATOM      3  O   UNL     1     113.566 129.529 135.997  0.00  0.00    +0.000 OA
ATOM      4  O   UNL     1     112.727 129.087 134.910  0.00  0.00    +0.000 OA
ATOM      5  C   UNL     1     112.448 127.966 137.559  0.00  0.00    +0.000 A 
ATOM      6  C   UNL     1     112.213 127.999 136.769  0.00  0.00    +0.000 A 
ATOM      7  C   UNL     1     113.057 128.455 137.829  0.00  0.00    +0.000 A 
ATOM      8  C   UNL     1     112.586 128.520 136.249  0.00  0.00    +0.000 A 
ATOM      9  C   UNL     1     113.429 128.976 137.308  0.00  0.00    +0.000 A 
ATOM     10  C   UNL     1     113.193 129.008 136.518  0.00  0.00    +0.000 A 
ATOM     11  C   UNL     1     112.349 128.563 135.424  0.00  0.00    +0.000 A 
ATOM     12  C   UNL     1     111.329 127.515 135.679  0.00  0.00    +0.000 A 
ATOM     13  C   UNL     1     111.716 128.057 135.137  0.00  0.00    +0.000 A 
ENDROOT
BRANCH   5  19
ATOM     14  O   UNL     1     111.362 127.657 138.433  0.00  0.00    +0.000 OA
ATOM     15  O   UNL     1     112.390 125.463 138.934  0.00  0.00    +0.000 OA
ATOM     16  O   UNL     1     110.959 125.884 139.641  0.00  0.00    +0.000 OA
ATOM     17  C   UNL     1     112.420 126.714 138.247  0.00  0.00    +0.000 C 
ATOM     18  C   UNL     1     112.047 126.194 138.767  0.00  0.00    +0.000 C 
ATOM     19  C   UNL     1     112.077 127.446 138.079  0.00  0.00    +0.000 C 
ATOM     20  C   UNL     1     111.332 126.405 139.120  0.00  0.00    +0.000 C 
ATOM     21  C   UNL     1     110.989 127.136 138.953  0.00  0.00    +0.000 C 
BRANCH  21  23
ATOM     22  O   UNL     1     110.090 128.145 139.420  0.00  0.00    +0.000 OA
ATOM     23  C   UNL     1     110.274 127.348 139.306  0.00  0.00    +0.000 C 
ENDBRANCH  21  23
BRANCH  17  24
ATOM     24  O   UNL     1     113.135 126.504 137.893  0.00  0.00    +0.000 OA
BRANCH  24  26
ATOM     25  O   UNL     1     112.675 125.158 137.749  0.00  0.00    +0.000 OA
ATOM     26  C   UNL     1     113.281 125.715 137.698  0.00  0.00    +0.000 C 
BRANCH  26  27
ATOM     27  C   UNL     1     114.034 125.486 137.451  0.00  0.00    +0.000 C 
ATOM     28  C   UNL     1     114.651 125.439 137.996  0.00  0.00    +0.000 C 
BRANCH  27  29
ATOM     29  C   UNL     1     114.170 125.302 136.658  0.00  0.00    +0.000 C 
ATOM     30  C   UNL     1     114.943 125.233 136.377  0.00  0.00    +0.000 C 
ENDBRANCH  27  29
ENDBRANCH  26  27
ENDBRANCH  24  26
ENDBRANCH  17  24
ENDBRANCH   5  19
BRANCH  12  32
ATOM     31  O   UNL     1     108.894 125.559 134.612  0.00  0.00    +0.000 OA
ATOM     32  C   UNL     1     110.720 127.026 135.413  0.00  0.00    +0.000 A 
ATOM     33  C   UNL     1     110.897 126.300 135.063  0.00  0.00    +0.000 A 
ATOM     34  C   UNL     1     109.934 127.263 135.495  0.00  0.00    +0.000 A 
ATOM     35  C   UNL     1     110.288 125.811 134.797  0.00  0.00    +0.000 A 
ATOM     36  C   UNL     1     109.325 126.774 135.228  0.00  0.00    +0.000 A 
ATOM     37  C   UNL     1     109.502 126.048 134.879  0.00  0.00    +0.000 A 
ENDBRANCH  12  32
TORSDOF 7
ENDMDL
MODEL 4
REMARK VINA RESULT:      -9.0      1.263      2.936
REMARK  Name = 44257732
REMARK  7 active torsions:
REMARK  status: ('A' for Active; 'I' for Inactive)
REMARK    1  A    between atoms: O_2  and  C_12
REMARK    2  A    between atoms: O_2  and  C_21
REMARK    3  A    between atoms: C_14  and  C_17
REMARK    4  A    between atoms: C_16  and  C_18
REMARK    5  A    between atoms: C_21  and  C_23
REMARK    6  A    between atoms: C_23  and  C_26
REMARK    7  A    between atoms: C_29  and  C_32
REMARK                            x       y       z     vdW  Elec       q    Type
REMARK                         _______ _______ _______ _____ _____    ______ ____
ROOT
ATOM      1  O   UNL     1     111.784 127.339 136.833  0.00  0.00    +0.000 OA
ATOM      2  O   UNL     1     111.335 124.677 137.839  0.00  0.00    +0.000 OA
ATOM      3  O   UNL     1     110.586 125.308 135.153  0.00  0.00    +0.000 OA
ATOM      4  O   UNL     1     110.795 126.629 134.613  0.00  0.00    +0.000 OA
ATOM      5  C   UNL     1     111.552 125.993 137.328  0.00  0.00    +0.000 A 
ATOM      6  C   UNL     1     111.500 126.537 136.710  0.00  0.00    +0.000 A 
ATOM      7  C   UNL     1     111.283 125.220 137.221  0.00  0.00    +0.000 A 
ATOM      8  C   UNL     1     111.178 126.309 135.985  0.00  0.00    +0.000 A 
ATOM      9  C   UNL     1     110.961 124.992 136.496  0.00  0.00    +0.000 A 
ATOM     10  C   UNL     1     110.909 125.537 135.879  0.00  0.00    +0.000 A 
ATOM     11  C   UNL     1     111.118 126.866 135.334  0.00  0.00    +0.000 A 
ATOM     12  C   UNL     1     111.732 127.910 136.193  0.00  0.00    +0.000 A 
ATOM     13  C   UNL     1     111.397 127.672 135.439  0.00  0.00    +0.000 A 
ENDROOT
BRANCH   5  19
ATOM     14  O   UNL     1     111.410 126.628 138.600  0.00  0.00    +0.000 OA
ATOM     15  O   UNL     1     113.767 126.093 139.130  0.00  0.00    +0.000 OA
ATOM     16  O   UNL     1     112.839 126.906 140.226  0.00  0.00    +0.000 OA
ATOM     17  C   UNL     1     112.660 126.043 138.229  0.00  0.00    +0.000 C 
ATOM     18  C   UNL     1     112.982 126.271 138.953  0.00  0.00    +0.000 C 
ATOM     19  C   UNL     1     111.874 126.221 138.052  0.00  0.00    +0.000 C 
ATOM     20  C   UNL     1     112.517 126.678 139.501  0.00  0.00    +0.000 C 
ATOM     21  C   UNL     1     111.732 126.856 139.324  0.00  0.00    +0.000 C 
BRANCH  21  23
ATOM     22  O   UNL     1     110.444 127.249 139.805  0.00  0.00    +0.000 OA
ATOM     23  C   UNL     1     111.267 127.263 139.871  0.00  0.00    +0.000 C 
ENDBRANCH  21  23
BRANCH  17  24
ATOM     24  O   UNL     1     113.123 125.636 137.681  0.00  0.00    +0.000 OA
BRANCH  24  26
ATOM     25  O   UNL     1     114.257 126.428 138.045  0.00  0.00    +0.000 OA
ATOM     26  C   UNL     1     113.931 125.797 137.624  0.00  0.00    +0.000 C 
BRANCH  26  27
ATOM     27  C   UNL     1     114.412 125.327 137.147  0.00  0.00    +0.000 C 
ATOM     28  C   UNL     1     114.611 124.564 137.386  0.00  0.00    +0.000 C 
BRANCH  27  29
ATOM     29  C   UNL     1     114.695 125.621 136.429  0.00  0.00    +0.000 C 
ATOM     30  C   UNL     1     115.096 125.123 135.909  0.00  0.00    +0.000 C 
ENDBRANCH  27  29
ENDBRANCH  26  27
ENDBRANCH  24  26
ENDBRANCH  17  24
ENDBRANCH   5  19
BRANCH  12  32
ATOM     31  O   UNL     1     112.813 130.997 136.631  0.00  0.00    +0.000 OA
ATOM     32  C   UNL     1     112.002 128.682 136.303  0.00  0.00    +0.000 A 
ATOM     33  C   UNL     1     111.494 129.259 136.600  0.00  0.00    +0.000 A 
ATOM     34  C   UNL     1     112.781 128.876 136.115  0.00  0.00    +0.000 A 
ATOM     35  C   UNL     1     111.764 130.031 136.710  0.00  0.00    +0.000 A 
ATOM     36  C   UNL     1     113.052 129.648 136.224  0.00  0.00    +0.000 A 
ATOM     37  C   UNL     1     112.543 130.225 136.521  0.00  0.00    +0.000 A 
ENDBRANCH  12  32
TORSDOF 7
ENDMDL
MODEL 5
REMARK VINA RESULT:      -8.9      1.400      3.502
REMARK  Name = 44257732
REMARK  7 active torsions:
REMARK  status: ('A' for Active; 'I' for Inactive)
REMARK    1  A    between atoms: O_2  and  C_12
REMARK    2  A    between atoms: O_2  and  C_21
REMARK    3  A    between atoms: C_14  and  C_17
REMARK    4  A    between atoms: C_16  and  C_18
REMARK    5  A    between atoms: C_21  and  C_23
REMARK    6  A    between atoms: C_23  and  C_26
REMARK    7  A    between atoms: C_29  and  C_32
REMARK                            x       y       z     vdW  Elec       q    Type
REMARK                         _______ _______ _______ _____ _____    ______ ____
ROOT
ATOM      1  O   UNL     1     112.607 126.228 138.479  0.00  0.00    +0.000 OA
ATOM      2  O   UNL     1     111.038 124.713 136.596  0.00  0.00    +0.000 OA
ATOM      3  O   UNL     1     113.870 124.332 136.693  0.00  0.00    +0.000 OA
ATOM      4  O   UNL     1     114.690 125.072 137.621  0.00  0.00    +0.000 OA
ATOM      5  C   UNL     1     111.828 125.458 137.526  0.00  0.00    +0.000 A 
ATOM      6  C   UNL     1     112.563 125.642 137.851  0.00  0.00    +0.000 A 
ATOM      7  C   UNL     1     111.774 124.897 136.922  0.00  0.00    +0.000 A 
ATOM      8  C   UNL     1     113.244 125.267 137.573  0.00  0.00    +0.000 A 
ATOM      9  C   UNL     1     112.454 124.522 136.644  0.00  0.00    +0.000 A 
ATOM     10  C   UNL     1     113.189 124.708 136.971  0.00  0.00    +0.000 A 
ATOM     11  C   UNL     1     114.015 125.452 137.905  0.00  0.00    +0.000 A 
ATOM     12  C   UNL     1     113.370 126.424 138.822  0.00  0.00    +0.000 A 
ATOM     13  C   UNL     1     114.078 126.034 138.533  0.00  0.00    +0.000 A 
ENDROOT
BRANCH   5  19
ATOM     14  O   UNL     1     110.786 125.571 138.496  0.00  0.00    +0.000 OA
ATOM     15  O   UNL     1     109.831 127.482 137.248  0.00  0.00    +0.000 OA
ATOM     16  O   UNL     1     109.106 126.958 138.636  0.00  0.00    +0.000 OA
ATOM     17  C   UNL     1     110.829 126.470 137.387  0.00  0.00    +0.000 C 
ATOM     18  C   UNL     1     110.149 126.845 137.664  0.00  0.00    +0.000 C 
ATOM     19  C   UNL     1     111.148 125.832 137.803  0.00  0.00    +0.000 C 
ATOM     20  C   UNL     1     109.788 126.582 138.358  0.00  0.00    +0.000 C 
ATOM     21  C   UNL     1     110.106 125.946 138.774  0.00  0.00    +0.000 C 
BRANCH  21  23
ATOM     22  O   UNL     1     110.182 125.258 140.025  0.00  0.00    +0.000 OA
ATOM     23  C   UNL     1     109.745 125.683 139.468  0.00  0.00    +0.000 C 
ENDBRANCH  21  23
BRANCH  17  24
ATOM     24  O   UNL     1     111.191 126.732 136.693  0.00  0.00    +0.000 OA
BRANCH  24  26
ATOM     25  O   UNL     1     110.937 128.089 137.063  0.00  0.00    +0.000 OA
ATOM     26  C   UNL     1     111.192 127.536 136.507  0.00  0.00    +0.000 C 
BRANCH  26  27
ATOM     27  C   UNL     1     111.449 127.786 135.764  0.00  0.00    +0.000 C 
ATOM     28  C   UNL     1     111.017 127.590 135.090  0.00  0.00    +0.000 C 
BRANCH  27  29
ATOM     29  C   UNL     1     112.139 128.234 135.696  0.00  0.00    +0.000 C 
ATOM     30  C   UNL     1     112.345 128.566 134.969  0.00  0.00    +0.000 C 
ENDBRANCH  27  29
ENDBRANCH  26  27
ENDBRANCH  24  26
ENDBRANCH  17  24
ENDBRANCH   5  19
BRANCH  12  32
ATOM     31  O   UNL     1     113.577 128.666 141.236  0.00  0.00    +0.000 OA
ATOM     32  C   UNL     1     113.422 126.985 139.425  0.00  0.00    +0.000 A 
ATOM     33  C   UNL     1     113.479 127.786 139.241  0.00  0.00    +0.000 A 
ATOM     34  C   UNL     1     113.416 126.743 140.214  0.00  0.00    +0.000 A 
ATOM     35  C   UNL     1     113.531 128.347 139.844  0.00  0.00    +0.000 A 
ATOM     36  C   UNL     1     113.467 127.304 140.818  0.00  0.00    +0.000 A 
ATOM     37  C   UNL     1     113.525 128.105 140.633  0.00  0.00    +0.000 A 
ENDBRANCH  12  32
TORSDOF 7
ENDMDL
MODEL 6
REMARK VINA RESULT:      -8.9      1.170      4.222
REMARK  Name = 44257732
REMARK  7 active torsions:
REMARK  status: ('A' for Active; 'I' for Inactive)
REMARK    1  A    between atoms: O_2  and  C_12
REMARK    2  A    between atoms: O_2  and  C_21
REMARK    3  A    between atoms: C_14  and  C_17
REMARK    4  A    between atoms: C_16  and  C_18
REMARK    5  A    between atoms: C_21  and  C_23
REMARK    6  A    between atoms: C_23  and  C_26
REMARK    7  A    between atoms: C_29  and  C_32
REMARK                            x       y       z     vdW  Elec       q    Type
REMARK                         _______ _______ _______ _____ _____    ______ ____
ROOT
ATOM      1  O   UNL     1     111.567 126.093 136.994  0.00  0.00    +0.000 OA
ATOM      2  O   UNL     1     109.252 127.718 137.541  0.00  0.00    +0.000 OA
ATOM      3  O   UNL     1     109.275 126.038 135.227  0.00  0.00    +0.000 OA
ATOM      4  O   UNL     1     110.415 125.210 134.919  0.00  0.00    +0.000 OA
ATOM      5  C   UNL     1     110.394 126.907 137.258  0.00  0.00    +0.000 A 
ATOM      6  C   UNL     1     110.778 126.357 136.778  0.00  0.00    +0.000 A 
ATOM      7  C   UNL     1     109.636 127.168 137.061  0.00  0.00    +0.000 A 
ATOM      8  C   UNL     1     110.405 126.068 136.102  0.00  0.00    +0.000 A 
ATOM      9  C   UNL     1     109.263 126.878 136.384  0.00  0.00    +0.000 A 
ATOM     10  C   UNL     1     109.648 126.328 135.905  0.00  0.00    +0.000 A 
ATOM     11  C   UNL     1     110.796 125.494 135.594  0.00  0.00    +0.000 A 
ATOM     12  C   UNL     1     111.973 125.521 136.499  0.00  0.00    +0.000 A 
ATOM     13  C   UNL     1     111.585 125.219 135.794  0.00  0.00    +0.000 A 
ENDROOT
BRANCH   5  19
ATOM     14  O   UNL     1     110.763 126.752 138.629  0.00  0.00    +0.000 OA
ATOM     15  O   UNL     1     111.891 128.954 138.574  0.00  0.00    +0.000 OA
ATOM     16  O   UNL     1     111.885 128.065 139.965  0.00  0.00    +0.000 OA
ATOM     17  C   UNL     1     111.143 127.931 137.916  0.00  0.00    +0.000 C 
ATOM     18  C   UNL     1     111.515 128.221 138.592  0.00  0.00    +0.000 C 
ATOM     19  C   UNL     1     110.766 127.196 137.934  0.00  0.00    +0.000 C 
ATOM     20  C   UNL     1     111.512 127.775 139.287  0.00  0.00    +0.000 C 
ATOM     21  C   UNL     1     111.136 127.042 139.306  0.00  0.00    +0.000 C 
BRANCH  21  23
ATOM     22  O   UNL     1     110.826 125.830 139.997  0.00  0.00    +0.000 OA
ATOM     23  C   UNL     1     111.133 126.597 140.000  0.00  0.00    +0.000 C 
ENDBRANCH  21  23
BRANCH  17  24
ATOM     24  O   UNL     1     111.145 128.375 137.221  0.00  0.00    +0.000 OA
BRANCH  24  26
ATOM     25  O   UNL     1     112.483 128.799 137.494  0.00  0.00    +0.000 OA
ATOM     26  C   UNL     1     111.802 128.838 137.030  0.00  0.00    +0.000 C 
BRANCH  26  27
ATOM     27  C   UNL     1     111.777 129.338 136.374  0.00  0.00    +0.000 C 
ATOM     28  C   UNL     1     111.292 130.005 136.383  0.00  0.00    +0.000 C 
BRANCH  27  29
ATOM     29  C   UNL     1     112.238 129.171 135.710  0.00  0.00    +0.000 C 
ATOM     30  C   UNL     1     112.006 129.447 134.968  0.00  0.00    +0.000 C 
ENDBRANCH  27  29
ENDBRANCH  26  27
ENDBRANCH  24  26
ENDBRANCH  17  24
ENDBRANCH   5  19
BRANCH  12  32
ATOM     31  O   UNL     1     115.003 124.484 137.297  0.00  0.00    +0.000 OA
ATOM     32  C   UNL     1     112.730 125.262 136.698  0.00  0.00    +0.000 A 
ATOM     33  C   UNL     1     113.390 125.704 136.476  0.00  0.00    +0.000 A 
ATOM     34  C   UNL     1     112.828 124.560 137.120  0.00  0.00    +0.000 A 
ATOM     35  C   UNL     1     114.147 125.445 136.675  0.00  0.00    +0.000 A 
ATOM     36  C   UNL     1     113.586 124.300 137.320  0.00  0.00    +0.000 A 
ATOM     37  C   UNL     1     114.245 124.743 137.098  0.00  0.00    +0.000 A 
ENDBRANCH  12  32
TORSDOF 7
ENDMDL
MODEL 7
REMARK VINA RESULT:      -8.9      1.497      3.765
REMARK  Name = 44257732
REMARK  7 active torsions:
REMARK  status: ('A' for Active; 'I' for Inactive)
REMARK    1  A    between atoms: O_2  and  C_12
REMARK    2  A    between atoms: O_2  and  C_21
REMARK    3  A    between atoms: C_14  and  C_17
REMARK    4  A    between atoms: C_16  and  C_18
REMARK    5  A    between atoms: C_21  and  C_23
REMARK    6  A    between atoms: C_23  and  C_26
REMARK    7  A    between atoms: C_29  and  C_32
REMARK                            x       y       z     vdW  Elec       q    Type
REMARK                         _______ _______ _______ _____ _____    ______ ____
ROOT
ATOM      1  O   UNL     1     112.170 126.681 137.665  0.00  0.00    +0.000 OA
ATOM      2  O   UNL     1     110.223 128.805 137.644  0.00  0.00    +0.000 OA
ATOM      3  O   UNL     1     109.632 126.371 139.022  0.00  0.00    +0.000 OA
ATOM      4  O   UNL     1     110.580 125.285 139.055  0.00  0.00    +0.000 OA
ATOM      5  C   UNL     1     111.180 127.744 137.662  0.00  0.00    +0.000 A 
ATOM      6  C   UNL     1     111.400 126.985 137.898  0.00  0.00    +0.000 A 
ATOM      7  C   UNL     1     110.443 128.046 137.880  0.00  0.00    +0.000 A 
ATOM      8  C   UNL     1     110.884 126.527 138.351  0.00  0.00    +0.000 A 
ATOM      9  C   UNL     1     109.927 127.588 138.333  0.00  0.00    +0.000 A 
ATOM     10  C   UNL     1     110.148 126.829 138.568  0.00  0.00    +0.000 A 
ATOM     11  C   UNL     1     111.102 125.735 138.602  0.00  0.00    +0.000 A 
ATOM     12  C   UNL     1     112.405 125.892 137.907  0.00  0.00    +0.000 A 
ATOM     13  C   UNL     1     111.868 125.415 138.378  0.00  0.00    +0.000 A 
ENDROOT
BRANCH   5  19
ATOM     14  O   UNL     1     112.298 128.628 137.576  0.00  0.00    +0.000 OA
ATOM     15  O   UNL     1     112.036 128.720 135.117  0.00  0.00    +0.000 OA
ATOM     16  O   UNL     1     113.243 129.574 135.850  0.00  0.00    +0.000 OA
ATOM     17  C   UNL     1     111.608 128.232 136.389  0.00  0.00    +0.000 C 
ATOM     18  C   UNL     1     112.123 128.689 135.936  0.00  0.00    +0.000 C 
ATOM     19  C   UNL     1     111.695 128.201 137.209  0.00  0.00    +0.000 C 
ATOM     20  C   UNL     1     112.726 129.116 136.303  0.00  0.00    +0.000 C 
ATOM     21  C   UNL     1     112.814 129.086 137.122  0.00  0.00    +0.000 C 
BRANCH  21  23
ATOM     22  O   UNL     1     113.472 129.523 138.314  0.00  0.00    +0.000 OA
ATOM     23  C   UNL     1     113.417 129.513 137.490  0.00  0.00    +0.000 C 
ENDBRANCH  21  23
BRANCH  17  24
ATOM     24  O   UNL     1     111.004 127.805 136.023  0.00  0.00    +0.000 OA
BRANCH  24  26
ATOM     25  O   UNL     1     111.875 127.504 134.930  0.00  0.00    +0.000 OA
ATOM     26  C   UNL     1     111.125 127.480 135.273  0.00  0.00    +0.000 C 
BRANCH  26  27
ATOM     27  C   UNL     1     110.496 127.132 134.869  0.00  0.00    +0.000 C 
ATOM     28  C   UNL     1     109.865 127.595 134.612  0.00  0.00    +0.000 C 
BRANCH  27  29
ATOM     29  C   UNL     1     110.500 126.320 134.721  0.00  0.00    +0.000 C 
ATOM     30  C   UNL     1     109.788 125.918 134.612  0.00  0.00    +0.000 C 
ENDBRANCH  27  29
ENDBRANCH  26  27
ENDBRANCH  24  26
ENDBRANCH  17  24
ENDBRANCH   5  19
BRANCH  12  32
ATOM     31  O   UNL     1     115.352 124.694 137.030  0.00  0.00    +0.000 OA
ATOM     32  C   UNL     1     113.142 125.592 137.688  0.00  0.00    +0.000 A 
ATOM     33  C   UNL     1     113.806 125.751 138.150  0.00  0.00    +0.000 A 
ATOM     34  C   UNL     1     113.214 125.134 137.006  0.00  0.00    +0.000 A 
ATOM     35  C   UNL     1     114.543 125.452 137.931  0.00  0.00    +0.000 A 
ATOM     36  C   UNL     1     113.951 124.834 136.786  0.00  0.00    +0.000 A 
ATOM     37  C   UNL     1     114.616 124.993 137.249  0.00  0.00    +0.000 A 
ENDBRANCH  12  32
TORSDOF 7
ENDMDL
MODEL 8
REMARK VINA RESULT:      -8.8      1.365      3.569
REMARK  Name = 44257732
REMARK  7 active torsions:
REMARK  status: ('A' for Active; 'I' for Inactive)
REMARK    1  A    between atoms: O_2  and  C_12
REMARK    2  A    between atoms: O_2  and  C_21
REMARK    3  A    between atoms: C_14  and  C_17
REMARK    4  A    between atoms: C_16  and  C_18
REMARK    5  A    between atoms: C_21  and  C_23
REMARK    6  A    between atoms: C_23  and  C_26
REMARK    7  A    between atoms: C_29  and  C_32
REMARK                            x       y       z     vdW  Elec       q    Type
REMARK                         _______ _______ _______ _____ _____    ______ ____
ROOT
ATOM      1  O   UNL     1     112.373 127.259 136.103  0.00  0.00    +0.000 OA
ATOM      2  O   UNL     1     111.549 124.534 136.548  0.00  0.00    +0.000 OA
ATOM      3  O   UNL     1     109.974 126.220 134.860  0.00  0.00    +0.000 OA
ATOM      4  O   UNL     1     110.353 127.589 134.612  0.00  0.00    +0.000 OA
ATOM      5  C   UNL     1     111.946 125.887 136.319  0.00  0.00    +0.000 A 
ATOM      6  C   UNL     1     111.816 126.619 135.961  0.00  0.00    +0.000 A 
ATOM      7  C   UNL     1     111.418 125.266 136.190  0.00  0.00    +0.000 A 
ATOM      8  C   UNL     1     111.159 126.730 135.475  0.00  0.00    +0.000 A 
ATOM      9  C   UNL     1     110.761 125.376 135.704  0.00  0.00    +0.000 A 
ATOM     10  C   UNL     1     110.632 126.109 135.347  0.00  0.00    +0.000 A 
ATOM     11  C   UNL     1     111.013 127.488 135.097  0.00  0.00    +0.000 A 
ATOM     12  C   UNL     1     112.243 128.023 135.733  0.00  0.00    +0.000 A 
ATOM     13  C   UNL     1     111.558 128.138 135.227  0.00  0.00    +0.000 A 
ENDROOT
BRANCH   5  19
ATOM     14  O   UNL     1     113.338 125.607 136.472  0.00  0.00    +0.000 OA
ATOM     15  O   UNL     1     113.103 125.783 138.929  0.00  0.00    +0.000 OA
ATOM     16  O   UNL     1     114.575 125.444 138.264  0.00  0.00    +0.000 OA
ATOM     17  C   UNL     1     112.524 125.835 137.625  0.00  0.00    +0.000 C 
ATOM     18  C   UNL     1     113.182 125.724 138.111  0.00  0.00    +0.000 C 
ATOM     19  C   UNL     1     112.603 125.777 136.805  0.00  0.00    +0.000 C 
ATOM     20  C   UNL     1     113.917 125.555 137.777  0.00  0.00    +0.000 C 
ATOM     21  C   UNL     1     113.996 125.497 136.959  0.00  0.00    +0.000 C 
BRANCH  21  23
ATOM     22  O   UNL     1     114.774 124.954 135.889  0.00  0.00    +0.000 OA
ATOM     23  C   UNL     1     114.731 125.327 136.625  0.00  0.00    +0.000 C 
ENDBRANCH  21  23
BRANCH  17  24
ATOM     24  O   UNL     1     111.789 126.004 137.957  0.00  0.00    +0.000 OA
BRANCH  24  26
ATOM     25  O   UNL     1     112.419 126.828 138.942  0.00  0.00    +0.000 OA
ATOM     26  C   UNL     1     111.741 126.464 138.641  0.00  0.00    +0.000 C 
BRANCH  26  27
ATOM     27  C   UNL     1     111.017 126.561 139.023  0.00  0.00    +0.000 C 
ATOM     28  C   UNL     1     110.654 125.917 139.388  0.00  0.00    +0.000 C 
BRANCH  27  29
ATOM     29  C   UNL     1     110.655 127.303 139.040  0.00  0.00    +0.000 C 
ATOM     30  C   UNL     1     109.877 127.375 139.305  0.00  0.00    +0.000 C 
ENDBRANCH  27  29
ENDBRANCH  26  27
ENDBRANCH  24  26
ENDBRANCH  17  24
ENDBRANCH   5  19
BRANCH  12  32
ATOM     31  O   UNL     1     114.360 130.501 136.253  0.00  0.00    +0.000 OA
ATOM     32  C   UNL     1     112.772 128.642 135.863  0.00  0.00    +0.000 A 
ATOM     33  C   UNL     1     112.642 129.174 136.480  0.00  0.00    +0.000 A 
ATOM     34  C   UNL     1     113.432 128.731 135.376  0.00  0.00    +0.000 A 
ATOM     35  C   UNL     1     113.171 129.793 136.610  0.00  0.00    +0.000 A 
ATOM     36  C   UNL     1     113.961 129.350 135.505  0.00  0.00    +0.000 A 
ATOM     37  C   UNL     1     113.831 129.882 136.123  0.00  0.00    +0.000 A 
ENDBRANCH  12  32
TORSDOF 7
ENDMDL
MODEL 9
REMARK VINA RESULT:      -8.8      1.536      4.486
REMARK  Name = 44257732
REMARK  7 active torsions:
REMARK  status: ('A' for Active; 'I' for Inactive)
REMARK    1  A    between atoms: O_2  and  C_12
REMARK    2  A    between atoms: O_2  and  C_21
REMARK    3  A    between atoms: C_14  and  C_17
REMARK    4  A    between atoms: C_16  and  C_18
REMARK    5  A    between atoms: C_21  and  C_23
REMARK    6  A    between atoms: C_23  and  C_26
REMARK    7  A    between atoms: C_29  and  C_32
REMARK                            x       y       z     vdW  Elec       q    Type
REMARK                         _______ _______ _______ _____ _____    ______ ____
ROOT
ATOM      1  O   UNL     1     112.295 126.660 136.236  0.00  0.00    +0.000 OA
ATOM      2  O   UNL     1     110.610 128.824 135.353  0.00  0.00    +0.000 OA
ATOM      3  O   UNL     1     109.761 126.126 134.942  0.00  0.00    +0.000 OA
ATOM      4  O   UNL     1     110.576 125.015 135.369  0.00  0.00    +0.000 OA
ATOM      5  C   UNL     1     111.437 127.742 135.786  0.00  0.00    +0.000 A 
ATOM      6  C   UNL     1     111.570 126.931 135.862  0.00  0.00    +0.000 A 
ATOM      7  C   UNL     1     110.744 128.014 135.429  0.00  0.00    +0.000 A 
ATOM      8  C   UNL     1     111.012 126.393 135.580  0.00  0.00    +0.000 A 
ATOM      9  C   UNL     1     110.186 127.476 135.147  0.00  0.00    +0.000 A 
ATOM     10  C   UNL     1     110.320 126.665 135.223  0.00  0.00    +0.000 A 
ATOM     11  C   UNL     1     111.140 125.546 135.653  0.00  0.00    +0.000 A 
ATOM     12  C   UNL     1     112.440 125.817 136.317  0.00  0.00    +0.000 A 
ATOM     13  C   UNL     1     111.859 125.257 136.024  0.00  0.00    +0.000 A 
ENDROOT
BRANCH   5  19
ATOM     14  O   UNL     1     112.657 128.463 135.612  0.00  0.00    +0.000 OA
ATOM     15  O   UNL     1     112.343 129.529 137.823  0.00  0.00    +0.000 OA
ATOM     16  O   UNL     1     113.669 129.895 136.912  0.00  0.00    +0.000 OA
ATOM     17  C   UNL     1     111.889 128.635 136.805  0.00  0.00    +0.000 C 
ATOM     18  C   UNL     1     112.448 129.174 137.086  0.00  0.00    +0.000 C 
ATOM     19  C   UNL     1     111.994 128.280 136.067  0.00  0.00    +0.000 C 
ATOM     20  C   UNL     1     113.110 129.356 136.630  0.00  0.00    +0.000 C 
ATOM     21  C   UNL     1     113.215 129.001 135.893  0.00  0.00    +0.000 C 
BRANCH  21  23
ATOM     22  O   UNL     1     113.819 129.205 134.613  0.00  0.00    +0.000 OA
ATOM     23  C   UNL     1     113.878 129.184 135.437  0.00  0.00    +0.000 C 
ENDBRANCH  21  23
BRANCH  17  24
ATOM     24  O   UNL     1     111.227 128.452 137.260  0.00  0.00    +0.000 OA
BRANCH  24  26
ATOM     25  O   UNL     1     112.024 128.488 138.446  0.00  0.00    +0.000 OA
ATOM     26  C   UNL     1     111.285 128.429 138.083  0.00  0.00    +0.000 C 
BRANCH  26  27
ATOM     27  C   UNL     1     110.605 128.347 138.543  0.00  0.00    +0.000 C 
ATOM     28  C   UNL     1     110.060 128.963 138.586  0.00  0.00    +0.000 C 
BRANCH  27  29
ATOM     29  C   UNL     1     110.471 127.647 138.960  0.00  0.00    +0.000 C 
ATOM     30  C   UNL     1     109.736 127.509 139.307  0.00  0.00    +0.000 C 
ENDBRANCH  27  29
ENDBRANCH  26  27
ENDBRANCH  24  26
ENDBRANCH  17  24
ENDBRANCH   5  19
BRANCH  12  32
ATOM     31  O   UNL     1     115.212 124.740 137.748  0.00  0.00    +0.000 OA
ATOM     32  C   UNL     1     113.133 125.548 136.675  0.00  0.00    +0.000 A 
ATOM     33  C   UNL     1     113.799 125.389 136.216  0.00  0.00    +0.000 A 
ATOM     34  C   UNL     1     113.159 125.437 137.492  0.00  0.00    +0.000 A 
ATOM     35  C   UNL     1     114.492 125.120 136.574  0.00  0.00    +0.000 A 
ATOM     36  C   UNL     1     113.852 125.168 137.850  0.00  0.00    +0.000 A 
ATOM     37  C   UNL     1     114.519 125.009 137.391  0.00  0.00    +0.000 A 
ENDBRANCH  12  32
TORSDOF 7
ENDMDL
MODEL 10
REMARK VINA RESULT:      -8.8      1.345      3.445
REMARK  Name = 44257732
REMARK  7 active torsions:
REMARK  status: ('A' for Active; 'I' for Inactive)
REMARK    1  A    between atoms: O_2  and  C_12
REMARK    2  A    between atoms: O_2  and  C_21
REMARK    3  A    between atoms: C_14  and  C_17
REMARK    4  A    between atoms: C_16  and  C_18
REMARK    5  A    between atoms: C_21  and  C_23
REMARK    6  A    between atoms: C_23  and  C_26
REMARK    7  A    between atoms: C_29  and  C_32
REMARK                            x       y       z     vdW  Elec       q    Type
REMARK                         _______ _______ _______ _____ _____    ______ ____
ROOT
ATOM      1  O   UNL     1     111.767 127.722 136.195  0.00  0.00    +0.000 OA
ATOM      2  O   UNL     1     114.168 126.240 136.778  0.00  0.00    +0.000 OA
ATOM      3  O   UNL     1     114.366 128.790 135.502  0.00  0.00    +0.000 OA
ATOM      4  O   UNL     1     113.188 129.562 135.193  0.00  0.00    +0.000 OA
ATOM      5  C   UNL     1     112.985 126.985 136.484  0.00  0.00    +0.000 A 
ATOM      6  C   UNL     1     112.624 127.658 136.172  0.00  0.00    +0.000 A 
ATOM      7  C   UNL     1     113.807 126.913 136.467  0.00  0.00    +0.000 A 
ATOM      8  C   UNL     1     113.084 128.259 135.845  0.00  0.00    +0.000 A 
ATOM      9  C   UNL     1     114.268 127.514 136.140  0.00  0.00    +0.000 A 
ATOM     10  C   UNL     1     113.905 128.187 135.829  0.00  0.00    +0.000 A 
ATOM     11  C   UNL     1     112.719 128.966 135.518  0.00  0.00    +0.000 A 
ATOM     12  C   UNL     1     111.385 128.420 135.873  0.00  0.00    +0.000 A 
ATOM     13  C   UNL     1     111.864 129.046 135.532  0.00  0.00    +0.000 A 
ENDROOT
BRANCH   5  19
ATOM     14  O   UNL     1     112.158 125.832 136.320  0.00  0.00    +0.000 OA
ATOM     15  O   UNL     1     111.878 125.684 138.774  0.00  0.00    +0.000 OA
ATOM     16  O   UNL     1     111.143 124.579 137.792  0.00  0.00    +0.000 OA
ATOM     17  C   UNL     1     112.431 126.335 137.629  0.00  0.00    +0.000 C 
ATOM     18  C   UNL     1     111.971 125.733 137.956  0.00  0.00    +0.000 C 
ATOM     19  C   UNL     1     112.525 126.384 136.810  0.00  0.00    +0.000 C 
ATOM     20  C   UNL     1     111.604 125.181 137.465  0.00  0.00    +0.000 C 
ATOM     21  C   UNL     1     111.697 125.230 136.647  0.00  0.00    +0.000 C 
BRANCH  21  23
ATOM     22  O   UNL     1     110.889 124.934 135.506  0.00  0.00    +0.000 OA
ATOM     23  C   UNL     1     111.331 124.679 136.155  0.00  0.00    +0.000 C 
ENDBRANCH  21  23
BRANCH  17  24
ATOM     24  O   UNL     1     112.799 126.887 138.120  0.00  0.00    +0.000 OA
BRANCH  24  26
ATOM     25  O   UNL     1     111.641 126.933 138.957  0.00  0.00    +0.000 OA
ATOM     26  C   UNL     1     112.431 127.126 138.819  0.00  0.00    +0.000 C 
BRANCH  26  27
ATOM     27  C   UNL     1     112.854 127.557 139.380  0.00  0.00    +0.000 C 
ATOM     28  C   UNL     1     113.432 127.186 139.836  0.00  0.00    +0.000 C 
BRANCH  27  29
ATOM     29  C   UNL     1     112.699 128.361 139.485  0.00  0.00    +0.000 C 
ATOM     30  C   UNL     1     113.206 128.822 139.944  0.00  0.00    +0.000 C 
ENDBRANCH  27  29
ENDBRANCH  26  27
ENDBRANCH  24  26
ENDBRANCH  17  24
ENDBRANCH   5  19
BRANCH  12  32
ATOM     31  O   UNL     1     108.097 128.697 135.942  0.00  0.00    +0.000 OA
ATOM     32  C   UNL     1     110.563 128.489 135.890  0.00  0.00    +0.000 A 
ATOM     33  C   UNL     1     110.190 128.818 136.548  0.00  0.00    +0.000 A 
ATOM     34  C   UNL     1     110.114 128.230 135.249  0.00  0.00    +0.000 A 
ATOM     35  C   UNL     1     109.368 128.887 136.566  0.00  0.00    +0.000 A 
ATOM     36  C   UNL     1     109.291 128.299 135.265  0.00  0.00    +0.000 A 
ATOM     37  C   UNL     1     108.919 128.628 135.924  0.00  0.00    +0.000 A 
ENDBRANCH  12  32
TORSDOF 7
ENDMDL
