MODEL 1
REMARK VINA RESULT:      -9.6      0.000      0.000
REMARK  Name = 101666683
REMARK  2 active torsions:
REMARK  status: ('A' for Active; 'I' for Inactive)
REMARK    1  A    between atoms: O_4  and  C_24
REMARK    2  A    between atoms: C_5  and  C_10
REMARK                            x       y       z     vdW  Elec       q    Type
REMARK                         _______ _______ _______ _____ _____    ______ ____
ROOT
ATOM      1  O   UNL     1     112.296 127.761 135.838  0.00  0.00    +0.000 OA
ATOM      2  O   UNL     1     112.189 124.965 136.616  0.00  0.00    +0.000 OA
ATOM      3  C   UNL     1     113.591 128.488 135.840  0.00  0.00    +0.000 C 
ATOM      4  C   UNL     1     113.982 127.772 136.108  0.00  0.00    +0.000 C 
ATOM      5  C   UNL     1     113.520 127.059 136.236  0.00  0.00    +0.000 A 
ATOM      6  C   UNL     1     112.742 128.483 135.704  0.00  0.00    +0.000 C 
ATOM      7  C   UNL     1     112.704 127.053 136.105  0.00  0.00    +0.000 A 
ATOM      8  C   UNL     1     112.580 124.249 136.883  0.00  0.00    +0.000 C 
ATOM      9  C   UNL     1     113.900 126.374 136.492  0.00  0.00    +0.000 A 
ATOM     10  C   UNL     1     113.467 125.684 136.619  0.00  0.00    +0.000 A 
ATOM     11  C   UNL     1     112.652 125.679 136.488  0.00  0.00    +0.000 A 
ATOM     12  C   UNL     1     112.271 126.363 136.231  0.00  0.00    +0.000 A 
ATOM     13  C   UNL     1     113.429 124.254 137.019  0.00  0.00    +0.000 C 
ATOM     14  C   UNL     1     113.876 124.976 136.886  0.00  0.00    +0.000 C 
ATOM     15  C   UNL     1     112.547 123.455 137.104  0.00  0.00    +0.000 C 
ATOM     16  C   UNL     1     111.858 123.850 136.880  0.00  0.00    +0.000 C 
ENDROOT
BRANCH   3  18
ATOM     17  O   UNL     1     113.616 129.671 136.992  0.00  0.00    +0.000 OA
ATOM     18  C   UNL     1     114.027 129.177 135.715  0.00  0.00    +0.000 A 
ATOM     19  C   UNL     1     114.039 129.769 136.291  0.00  0.00    +0.000 A 
ATOM     20  C   UNL     1     114.450 129.275 135.014  0.00  0.00    +0.000 A 
ATOM     21  C   UNL     1     114.475 130.458 136.165  0.00  0.00    +0.000 A 
ATOM     22  C   UNL     1     114.886 129.964 134.888  0.00  0.00    +0.000 A 
ATOM     23  C   UNL     1     114.899 130.556 135.464  0.00  0.00    +0.000 A 
BRANCH  23  24
ATOM     24  O   UNL     1     115.335 131.245 135.337  0.00  0.00    +0.000 OA
ATOM     25  C   UNL     1     115.709 131.370 134.612  0.00  0.00    +0.000 C 
ENDBRANCH  23  24
ENDBRANCH   3  18
TORSDOF 2
ENDMDL
MODEL 2
REMARK VINA RESULT:      -9.1     11.422     12.307
REMARK  Name = 101666683
REMARK  2 active torsions:
REMARK  status: ('A' for Active; 'I' for Inactive)
REMARK    1  A    between atoms: O_4  and  C_24
REMARK    2  A    between atoms: C_5  and  C_10
REMARK                            x       y       z     vdW  Elec       q    Type
REMARK                         _______ _______ _______ _____ _____    ______ ____
ROOT
ATOM      1  O   UNL     1     103.031 129.606 140.625  0.00  0.00    +0.000 OA
ATOM      2  O   UNL     1     104.882 127.600 141.618  0.00  0.00    +0.000 OA
ATOM      3  C   UNL     1     102.606 130.728 141.501  0.00  0.00    +0.000 C 
ATOM      4  C   UNL     1     103.098 130.412 142.130  0.00  0.00    +0.000 C 
ATOM      5  C   UNL     1     103.551 129.694 141.994  0.00  0.00    +0.000 A 
ATOM      6  C   UNL     1     102.572 130.323 140.744  0.00  0.00    +0.000 C 
ATOM      7  C   UNL     1     103.519 129.305 141.266  0.00  0.00    +0.000 A 
ATOM      8  C   UNL     1     105.374 127.284 142.247  0.00  0.00    +0.000 C 
ATOM      9  C   UNL     1     104.022 129.396 142.600  0.00  0.00    +0.000 A 
ATOM     10  C   UNL     1     104.461 128.708 142.482  0.00  0.00    +0.000 A 
ATOM     11  C   UNL     1     104.429 128.318 141.754  0.00  0.00    +0.000 A 
ATOM     12  C   UNL     1     103.958 128.617 141.147  0.00  0.00    +0.000 A 
ATOM     13  C   UNL     1     105.408 127.690 143.004  0.00  0.00    +0.000 C 
ATOM     14  C   UNL     1     104.949 128.406 143.122  0.00  0.00    +0.000 C 
ATOM     15  C   UNL     1     105.900 126.713 142.526  0.00  0.00    +0.000 C 
ATOM     16  C   UNL     1     105.607 126.663 141.756  0.00  0.00    +0.000 C 
ENDROOT
BRANCH   3  18
ATOM     17  O   UNL     1     103.193 132.183 140.986  0.00  0.00    +0.000 OA
ATOM     18  C   UNL     1     102.168 131.417 141.623  0.00  0.00    +0.000 A 
ATOM     19  C   UNL     1     102.462 132.145 141.365  0.00  0.00    +0.000 A 
ATOM     20  C   UNL     1     101.436 131.379 142.002  0.00  0.00    +0.000 A 
ATOM     21  C   UNL     1     102.024 132.832 141.487  0.00  0.00    +0.000 A 
ATOM     22  C   UNL     1     100.998 132.067 142.124  0.00  0.00    +0.000 A 
ATOM     23  C   UNL     1     101.292 132.794 141.867  0.00  0.00    +0.000 A 
BRANCH  23  24
ATOM     24  O   UNL     1     100.853 133.482 141.989  0.00  0.00    +0.000 OA
ATOM     25  C   UNL     1     100.710 133.750 142.756  0.00  0.00    +0.000 C 
ENDBRANCH  23  24
ENDBRANCH   3  18
TORSDOF 2
ENDMDL
MODEL 3
REMARK VINA RESULT:      -8.9      3.277      3.781
REMARK  Name = 101666683
REMARK  2 active torsions:
REMARK  status: ('A' for Active; 'I' for Inactive)
REMARK    1  A    between atoms: O_4  and  C_24
REMARK    2  A    between atoms: C_5  and  C_10
REMARK                            x       y       z     vdW  Elec       q    Type
REMARK                         _______ _______ _______ _____ _____    ______ ____
ROOT
ATOM      1  O   UNL     1     109.641 126.255 135.305  0.00  0.00    +0.000 OA
ATOM      2  O   UNL     1     111.667 124.407 136.261  0.00  0.00    +0.000 OA
ATOM      3  C   UNL     1     109.839 127.720 135.450  0.00  0.00    +0.000 C 
ATOM      4  C   UNL     1     110.597 127.572 135.824  0.00  0.00    +0.000 C 
ATOM      5  C   UNL     1     110.865 126.762 135.933  0.00  0.00    +0.000 A 
ATOM      6  C   UNL     1     109.357 127.057 135.188  0.00  0.00    +0.000 C 
ATOM      7  C   UNL     1     110.403 126.125 135.682  0.00  0.00    +0.000 A 
ATOM      8  C   UNL     1     112.426 124.259 136.636  0.00  0.00    +0.000 C 
ATOM      9  C   UNL     1     111.594 126.625 136.293  0.00  0.00    +0.000 A 
ATOM     10  C   UNL     1     111.862 125.853 136.403  0.00  0.00    +0.000 A 
ATOM     11  C   UNL     1     111.399 125.217 136.152  0.00  0.00    +0.000 A 
ATOM     12  C   UNL     1     110.671 125.353 135.792  0.00  0.00    +0.000 A 
ATOM     13  C   UNL     1     112.907 124.922 136.897  0.00  0.00    +0.000 C 
ATOM     14  C   UNL     1     112.623 125.724 136.780  0.00  0.00    +0.000 C 
ATOM     15  C   UNL     1     113.000 123.731 136.907  0.00  0.00    +0.000 C 
ATOM     16  C   UNL     1     112.311 123.446 136.553  0.00  0.00    +0.000 C 
ENDROOT
BRANCH   3  18
ATOM     17  O   UNL     1     108.680 128.343 136.446  0.00  0.00    +0.000 OA
ATOM     18  C   UNL     1     109.574 128.494 135.341  0.00  0.00    +0.000 A 
ATOM     19  C   UNL     1     108.994 128.806 135.840  0.00  0.00    +0.000 A 
ATOM     20  C   UNL     1     109.888 128.956 134.734  0.00  0.00    +0.000 A 
ATOM     21  C   UNL     1     108.729 129.578 135.731  0.00  0.00    +0.000 A 
ATOM     22  C   UNL     1     109.622 129.729 134.626  0.00  0.00    +0.000 A 
ATOM     23  C   UNL     1     109.043 130.041 135.124  0.00  0.00    +0.000 A 
BRANCH  23  24
ATOM     24  O   UNL     1     108.778 130.815 135.014  0.00  0.00    +0.000 OA
ATOM     25  C   UNL     1     109.274 131.450 135.191  0.00  0.00    +0.000 C 
ENDBRANCH  23  24
ENDBRANCH   3  18
TORSDOF 2
ENDMDL
MODEL 4
REMARK VINA RESULT:      -8.9      0.824      5.273
REMARK  Name = 101666683
REMARK  2 active torsions:
REMARK  status: ('A' for Active; 'I' for Inactive)
REMARK    1  A    between atoms: O_4  and  C_24
REMARK    2  A    between atoms: C_5  and  C_10
REMARK                            x       y       z     vdW  Elec       q    Type
REMARK                         _______ _______ _______ _____ _____    ______ ____
ROOT
ATOM      1  O   UNL     1     112.939 128.202 137.195  0.00  0.00    +0.000 OA
ATOM      2  O   UNL     1     114.450 130.373 135.997  0.00  0.00    +0.000 OA
ATOM      3  C   UNL     1     112.939 126.856 136.567  0.00  0.00    +0.000 C 
ATOM      4  C   UNL     1     113.456 127.154 135.949  0.00  0.00    +0.000 C 
ATOM      5  C   UNL     1     113.707 127.976 135.966  0.00  0.00    +0.000 A 
ATOM      6  C   UNL     1     112.679 127.383 137.194  0.00  0.00    +0.000 C 
ATOM      7  C   UNL     1     113.456 128.483 136.569  0.00  0.00    +0.000 A 
ATOM      8  C   UNL     1     114.967 130.672 135.380  0.00  0.00    +0.000 C 
ATOM      9  C   UNL     1     114.203 128.258 135.371  0.00  0.00    +0.000 A 
ATOM     10  C   UNL     1     114.450 129.044 135.377  0.00  0.00    +0.000 A 
ATOM     11  C   UNL     1     114.199 129.551 135.980  0.00  0.00    +0.000 A 
ATOM     12  C   UNL     1     113.703 129.270 136.575  0.00  0.00    +0.000 A 
ATOM     13  C   UNL     1     115.227 130.144 134.752  0.00  0.00    +0.000 C 
ATOM     14  C   UNL     1     114.967 129.326 134.751  0.00  0.00    +0.000 C 
ATOM     15  C   UNL     1     115.395 131.290 135.042  0.00  0.00    +0.000 C 
ATOM     16  C   UNL     1     114.963 131.417 135.733  0.00  0.00    +0.000 C 
ENDROOT
BRANCH   3  18
ATOM     17  O   UNL     1     111.456 126.459 135.960  0.00  0.00    +0.000 OA
ATOM     18  C   UNL     1     112.694 126.068 136.558  0.00  0.00    +0.000 A 
ATOM     19  C   UNL     1     111.952 125.869 136.255  0.00  0.00    +0.000 A 
ATOM     20  C   UNL     1     113.190 125.478 136.853  0.00  0.00    +0.000 A 
ATOM     21  C   UNL     1     111.707 125.082 136.246  0.00  0.00    +0.000 A 
ATOM     22  C   UNL     1     112.945 124.691 136.844  0.00  0.00    +0.000 A 
ATOM     23  C   UNL     1     112.204 124.493 136.541  0.00  0.00    +0.000 A 
BRANCH  23  24
ATOM     24  O   UNL     1     111.959 123.704 136.533  0.00  0.00    +0.000 OA
ATOM     25  C   UNL     1     111.965 123.262 137.229  0.00  0.00    +0.000 C 
ENDBRANCH  23  24
ENDBRANCH   3  18
TORSDOF 2
ENDMDL
MODEL 5
REMARK VINA RESULT:      -8.9      3.606      6.332
REMARK  Name = 101666683
REMARK  2 active torsions:
REMARK  status: ('A' for Active; 'I' for Inactive)
REMARK    1  A    between atoms: O_4  and  C_24
REMARK    2  A    between atoms: C_5  and  C_10
REMARK                            x       y       z     vdW  Elec       q    Type
REMARK                         _______ _______ _______ _____ _____    ______ ____
ROOT
ATOM      1  O   UNL     1     108.694 127.923 136.446  0.00  0.00    +0.000 OA
ATOM      2  O   UNL     1     108.278 130.653 135.546  0.00  0.00    +0.000 OA
ATOM      3  C   UNL     1     109.874 127.153 135.975  0.00  0.00    +0.000 C 
ATOM      4  C   UNL     1     110.122 127.833 135.512  0.00  0.00    +0.000 C 
ATOM      5  C   UNL     1     109.647 128.550 135.525  0.00  0.00    +0.000 A 
ATOM      6  C   UNL     1     109.155 127.199 136.445  0.00  0.00    +0.000 C 
ATOM      7  C   UNL     1     108.957 128.594 135.976  0.00  0.00    +0.000 A 
ATOM      8  C   UNL     1     108.526 131.332 135.083  0.00  0.00    +0.000 C 
ATOM      9  C   UNL     1     109.889 129.199 135.078  0.00  0.00    +0.000 A 
ATOM     10  C   UNL     1     109.443 129.892 135.082  0.00  0.00    +0.000 A 
ATOM     11  C   UNL     1     108.752 129.936 135.533  0.00  0.00    +0.000 A 
ATOM     12  C   UNL     1     108.510 129.286 135.980  0.00  0.00    +0.000 A 
ATOM     13  C   UNL     1     109.244 131.287 134.613  0.00  0.00    +0.000 C 
ATOM     14  C   UNL     1     109.706 130.563 134.612  0.00  0.00    +0.000 C 
ATOM     15  C   UNL     1     108.405 132.108 134.829  0.00  0.00    +0.000 C 
ATOM     16  C   UNL     1     107.868 131.756 135.347  0.00  0.00    +0.000 C 
ENDROOT
BRANCH   3  18
ATOM     17  O   UNL     1     109.499 125.934 134.927  0.00  0.00    +0.000 OA
ATOM     18  C   UNL     1     110.323 126.461 135.969  0.00  0.00    +0.000 A 
ATOM     19  C   UNL     1     110.136 125.851 135.445  0.00  0.00    +0.000 A 
ATOM     20  C   UNL     1     110.960 126.378 136.488  0.00  0.00    +0.000 A 
ATOM     21  C   UNL     1     110.585 125.160 135.440  0.00  0.00    +0.000 A 
ATOM     22  C   UNL     1     111.409 125.686 136.482  0.00  0.00    +0.000 A 
ATOM     23  C   UNL     1     111.221 125.077 135.958  0.00  0.00    +0.000 A 
BRANCH  23  24
ATOM     24  O   UNL     1     111.671 124.385 135.953  0.00  0.00    +0.000 OA
ATOM     25  C   UNL     1     111.771 123.952 136.648  0.00  0.00    +0.000 C 
ENDBRANCH  23  24
ENDBRANCH   3  18
TORSDOF 2
ENDMDL
MODEL 6
REMARK VINA RESULT:      -8.8      9.951     11.581
REMARK  Name = 101666683
REMARK  2 active torsions:
REMARK  status: ('A' for Active; 'I' for Inactive)
REMARK    1  A    between atoms: O_4  and  C_24
REMARK    2  A    between atoms: C_5  and  C_10
REMARK                            x       y       z     vdW  Elec       q    Type
REMARK                         _______ _______ _______ _____ _____    ______ ____
ROOT
ATOM      1  O   UNL     1     104.903 128.674 143.249  0.00  0.00    +0.000 OA
ATOM      2  O   UNL     1     102.824 130.505 142.378  0.00  0.00    +0.000 OA
ATOM      3  C   UNL     1     105.405 127.622 142.329  0.00  0.00    +0.000 C 
ATOM      4  C   UNL     1     104.859 127.901 141.727  0.00  0.00    +0.000 C 
ATOM      5  C   UNL     1     104.342 128.566 141.899  0.00  0.00    +0.000 A 
ATOM      6  C   UNL     1     105.427 128.011 143.095  0.00  0.00    +0.000 C 
ATOM      7  C   UNL     1     104.363 128.940 142.635  0.00  0.00    +0.000 A 
ATOM      8  C   UNL     1     102.278 130.784 141.776  0.00  0.00    +0.000 C 
ATOM      9  C   UNL     1     103.820 128.829 141.317  0.00  0.00    +0.000 A 
ATOM     10  C   UNL     1     103.320 129.466 141.470  0.00  0.00    +0.000 A 
ATOM     11  C   UNL     1     103.341 129.840 142.207  0.00  0.00    +0.000 A 
ATOM     12  C   UNL     1     103.862 129.576 142.788  0.00  0.00    +0.000 A 
ATOM     13  C   UNL     1     102.256 130.394 141.010  0.00  0.00    +0.000 C 
ATOM     14  C   UNL     1     102.780 129.731 140.856  0.00  0.00    +0.000 C 
ATOM     15  C   UNL     1     101.687 131.305 141.532  0.00  0.00    +0.000 C 
ATOM     16  C   UNL     1     102.003 131.367 142.292  0.00  0.00    +0.000 C 
ENDROOT
BRANCH   3  18
ATOM     17  O   UNL     1     106.924 127.888 141.739  0.00  0.00    +0.000 OA
ATOM     18  C   UNL     1     105.905 126.984 142.173  0.00  0.00    +0.000 A 
ATOM     19  C   UNL     1     106.665 127.117 141.878  0.00  0.00    +0.000 A 
ATOM     20  C   UNL     1     105.646 126.213 142.312  0.00  0.00    +0.000 A 
ATOM     21  C   UNL     1     107.164 126.480 141.722  0.00  0.00    +0.000 A 
ATOM     22  C   UNL     1     106.146 125.576 142.156  0.00  0.00    +0.000 A 
ATOM     23  C   UNL     1     106.905 125.709 141.861  0.00  0.00    +0.000 A 
BRANCH  23  24
ATOM     24  O   UNL     1     107.404 125.071 141.705  0.00  0.00    +0.000 OA
ATOM     25  C   UNL     1     107.193 124.510 141.139  0.00  0.00    +0.000 C 
ENDBRANCH  23  24
ENDBRANCH   3  18
TORSDOF 2
ENDMDL
MODEL 7
REMARK VINA RESULT:      -8.8     11.086     12.580
REMARK  Name = 101666683
REMARK  2 active torsions:
REMARK  status: ('A' for Active; 'I' for Inactive)
REMARK    1  A    between atoms: O_4  and  C_24
REMARK    2  A    between atoms: C_5  and  C_10
REMARK                            x       y       z     vdW  Elec       q    Type
REMARK                         _______ _______ _______ _____ _____    ______ ____
ROOT
ATOM      1  O   UNL     1     105.126 125.189 146.093  0.00  0.00    +0.000 OA
ATOM      2  O   UNL     1     106.607 124.415 148.468  0.00  0.00    +0.000 OA
ATOM      3  C   UNL     1     105.777 126.011 145.041  0.00  0.00    +0.000 C 
ATOM      4  C   UNL     1     106.499 126.018 145.507  0.00  0.00    +0.000 C 
ATOM      5  C   UNL     1     106.521 125.608 146.262  0.00  0.00    +0.000 A 
ATOM      6  C   UNL     1     105.086 125.593 145.336  0.00  0.00    +0.000 C 
ATOM      7  C   UNL     1     105.857 125.206 146.545  0.00  0.00    +0.000 A 
ATOM      8  C   UNL     1     107.329 124.422 148.934  0.00  0.00    +0.000 C 
ATOM      9  C   UNL     1     107.216 125.618 146.704  0.00  0.00    +0.000 A 
ATOM     10  C   UNL     1     107.249 125.227 147.430  0.00  0.00    +0.000 A 
ATOM     11  C   UNL     1     106.585 124.826 147.713  0.00  0.00    +0.000 A 
ATOM     12  C   UNL     1     105.890 124.816 147.270  0.00  0.00    +0.000 A 
ATOM     13  C   UNL     1     108.020 124.840 148.639  0.00  0.00    +0.000 C 
ATOM     14  C   UNL     1     107.980 125.245 147.882  0.00  0.00    +0.000 C 
ATOM     15  C   UNL     1     107.747 124.201 149.609  0.00  0.00    +0.000 C 
ATOM     16  C   UNL     1     106.962 123.965 149.515  0.00  0.00    +0.000 C 
ENDROOT
BRANCH   3  18
ATOM     17  O   UNL     1     106.185 125.213 143.655  0.00  0.00    +0.000 OA
ATOM     18  C   UNL     1     105.747 126.403 144.316  0.00  0.00    +0.000 A 
ATOM     19  C   UNL     1     105.951 126.004 143.622  0.00  0.00    +0.000 A 
ATOM     20  C   UNL     1     105.514 127.193 144.283  0.00  0.00    +0.000 A 
ATOM     21  C   UNL     1     105.921 126.395 142.897  0.00  0.00    +0.000 A 
ATOM     22  C   UNL     1     105.484 127.585 143.557  0.00  0.00    +0.000 A 
ATOM     23  C   UNL     1     105.687 127.186 142.865  0.00  0.00    +0.000 A 
BRANCH  23  24
ATOM     24  O   UNL     1     105.657 127.578 142.139  0.00  0.00    +0.000 OA
ATOM     25  C   UNL     1     105.012 128.060 141.956  0.00  0.00    +0.000 C 
ENDBRANCH  23  24
ENDBRANCH   3  18
TORSDOF 2
ENDMDL
MODEL 8
REMARK VINA RESULT:      -8.7      2.180      3.238
REMARK  Name = 101666683
REMARK  2 active torsions:
REMARK  status: ('A' for Active; 'I' for Inactive)
REMARK    1  A    between atoms: O_4  and  C_24
REMARK    2  A    between atoms: C_5  and  C_10
REMARK                            x       y       z     vdW  Elec       q    Type
REMARK                         _______ _______ _______ _____ _____    ______ ____
ROOT
ATOM      1  O   UNL     1     112.817 128.516 136.235  0.00  0.00    +0.000 OA
ATOM      2  O   UNL     1     113.915 125.900 136.859  0.00  0.00    +0.000 OA
ATOM      3  C   UNL     1     111.388 128.655 135.856  0.00  0.00    +0.000 C 
ATOM      4  C   UNL     1     111.292 127.806 135.943  0.00  0.00    +0.000 C 
ATOM      5  C   UNL     1     111.964 127.324 136.177  0.00  0.00    +0.000 A 
ATOM      6  C   UNL     1     112.156 129.012 136.003  0.00  0.00    +0.000 C 
ATOM      7  C   UNL     1     112.702 127.668 136.319  0.00  0.00    +0.000 A 
ATOM      8  C   UNL     1     113.818 125.051 136.947  0.00  0.00    +0.000 C 
ATOM      9  C   UNL     1     111.866 126.510 136.260  0.00  0.00    +0.000 A 
ATOM     10  C   UNL     1     112.504 126.038 136.484  0.00  0.00    +0.000 A 
ATOM     11  C   UNL     1     113.242 126.382 136.625  0.00  0.00    +0.000 A 
ATOM     12  C   UNL     1     113.340 127.196 136.542  0.00  0.00    +0.000 A 
ATOM     13  C   UNL     1     113.050 124.694 136.800  0.00  0.00    +0.000 C 
ATOM     14  C   UNL     1     112.389 125.190 136.567  0.00  0.00    +0.000 C 
ATOM     15  C   UNL     1     114.133 124.309 137.125  0.00  0.00    +0.000 C 
ATOM     16  C   UNL     1     114.613 124.979 137.158  0.00  0.00    +0.000 C 
ENDROOT
BRANCH   3  18
ATOM     17  O   UNL     1     110.531 129.483 136.998  0.00  0.00    +0.000 OA
ATOM     18  C   UNL     1     110.748 129.124 135.631  0.00  0.00    +0.000 A 
ATOM     19  C   UNL     1     110.319 129.539 136.203  0.00  0.00    +0.000 A 
ATOM     20  C   UNL     1     110.536 129.180 134.836  0.00  0.00    +0.000 A 
ATOM     21  C   UNL     1     109.680 130.008 135.979  0.00  0.00    +0.000 A 
ATOM     22  C   UNL     1     109.896 129.650 134.612  0.00  0.00    +0.000 A 
ATOM     23  C   UNL     1     109.468 130.064 135.183  0.00  0.00    +0.000 A 
BRANCH  23  24
ATOM     24  O   UNL     1     108.827 130.533 134.958  0.00  0.00    +0.000 OA
ATOM     25  C   UNL     1     108.957 131.271 134.613  0.00  0.00    +0.000 C 
ENDBRANCH  23  24
ENDBRANCH   3  18
TORSDOF 2
ENDMDL
MODEL 9
REMARK VINA RESULT:      -8.6      9.419     10.628
REMARK  Name = 101666683
REMARK  2 active torsions:
REMARK  status: ('A' for Active; 'I' for Inactive)
REMARK    1  A    between atoms: O_4  and  C_24
REMARK    2  A    between atoms: C_5  and  C_10
REMARK                            x       y       z     vdW  Elec       q    Type
REMARK                         _______ _______ _______ _____ _____    ______ ____
ROOT
ATOM      1  O   UNL     1     105.915 123.824 139.448  0.00  0.00    +0.000 OA
ATOM      2  O   UNL     1     103.921 123.228 137.422  0.00  0.00    +0.000 OA
ATOM      3  C   UNL     1     105.527 124.537 140.692  0.00  0.00    +0.000 C 
ATOM      4  C   UNL     1     104.716 124.568 140.410  0.00  0.00    +0.000 C 
ATOM      5  C   UNL     1     104.519 124.225 139.647  0.00  0.00    +0.000 A 
ATOM      6  C   UNL     1     106.130 124.162 140.208  0.00  0.00    +0.000 C 
ATOM      7  C   UNL     1     105.099 123.865 139.181  0.00  0.00    +0.000 A 
ATOM      8  C   UNL     1     103.111 123.260 137.140  0.00  0.00    +0.000 C 
ATOM      9  C   UNL     1     103.739 124.258 139.381  0.00  0.00    +0.000 A 
ATOM     10  C   UNL     1     103.538 123.932 138.651  0.00  0.00    +0.000 A 
ATOM     11  C   UNL     1     104.118 123.572 138.185  0.00  0.00    +0.000 A 
ATOM     12  C   UNL     1     104.898 123.539 138.452  0.00  0.00    +0.000 A 
ATOM     13  C   UNL     1     102.507 123.635 137.624  0.00  0.00    +0.000 C 
ATOM     14  C   UNL     1     102.722 123.973 138.384  0.00  0.00    +0.000 C 
ATOM     15  C   UNL     1     102.546 123.090 136.563  0.00  0.00    +0.000 C 
ATOM     16  C   UNL     1     103.332 122.864 136.451  0.00  0.00    +0.000 C 
ENDROOT
BRANCH   3  18
ATOM     17  O   UNL     1     106.068 126.094 140.781  0.00  0.00    +0.000 OA
ATOM     18  C   UNL     1     105.725 124.864 141.423  0.00  0.00    +0.000 A 
ATOM     19  C   UNL     1     105.996 125.643 141.468  0.00  0.00    +0.000 A 
ATOM     20  C   UNL     1     105.652 124.413 142.110  0.00  0.00    +0.000 A 
ATOM     21  C   UNL     1     106.194 125.969 142.198  0.00  0.00    +0.000 A 
ATOM     22  C   UNL     1     105.850 124.740 142.841  0.00  0.00    +0.000 A 
ATOM     23  C   UNL     1     106.121 125.518 142.885  0.00  0.00    +0.000 A 
BRANCH  23  24
ATOM     24  O   UNL     1     106.319 125.844 143.617  0.00  0.00    +0.000 OA
ATOM     25  C   UNL     1     105.910 125.615 144.296  0.00  0.00    +0.000 C 
ENDBRANCH  23  24
ENDBRANCH   3  18
TORSDOF 2
ENDMDL
MODEL 10
REMARK VINA RESULT:      -8.6      2.126      2.775
REMARK  Name = 101666683
REMARK  2 active torsions:
REMARK  status: ('A' for Active; 'I' for Inactive)
REMARK    1  A    between atoms: O_4  and  C_24
REMARK    2  A    between atoms: C_5  and  C_10
REMARK                            x       y       z     vdW  Elec       q    Type
REMARK                         _______ _______ _______ _____ _____    ______ ____
ROOT
ATOM      1  O   UNL     1     113.199 128.739 135.682  0.00  0.00    +0.000 OA
ATOM      2  O   UNL     1     114.161 126.133 136.530  0.00  0.00    +0.000 OA
ATOM      3  C   UNL     1     112.446 129.601 136.629  0.00  0.00    +0.000 C 
ATOM      4  C   UNL     1     112.526 128.994 137.231  0.00  0.00    +0.000 C 
ATOM      5  C   UNL     1     112.944 128.266 137.047  0.00  0.00    +0.000 A 
ATOM      6  C   UNL     1     112.784 129.472 135.849  0.00  0.00    +0.000 C 
ATOM      7  C   UNL     1     113.270 128.142 136.298  0.00  0.00    +0.000 A 
ATOM      8  C   UNL     1     114.241 125.526 137.132  0.00  0.00    +0.000 C 
ATOM      9  C   UNL     1     113.019 127.687 137.629  0.00  0.00    +0.000 A 
ATOM     10  C   UNL     1     113.417 126.985 137.463  0.00  0.00    +0.000 A 
ATOM     11  C   UNL     1     113.743 126.861 136.714  0.00  0.00    +0.000 A 
ATOM     12  C   UNL     1     113.668 127.440 136.132  0.00  0.00    +0.000 A 
ATOM     13  C   UNL     1     113.903 125.655 137.912  0.00  0.00    +0.000 C 
ATOM     14  C   UNL     1     113.488 126.389 138.079  0.00  0.00    +0.000 C 
ATOM     15  C   UNL     1     114.516 124.785 137.370  0.00  0.00    +0.000 C 
ATOM     16  C   UNL     1     114.659 125.051 136.602  0.00  0.00    +0.000 C 
ENDROOT
BRANCH   3  18
ATOM     17  O   UNL     1     113.292 130.948 137.069  0.00  0.00    +0.000 OA
ATOM     18  C   UNL     1     112.046 130.303 136.797  0.00  0.00    +0.000 A 
ATOM     19  C   UNL     1     112.470 130.977 137.017  0.00  0.00    +0.000 A 
ATOM     20  C   UNL     1     111.223 130.332 136.745  0.00  0.00    +0.000 A 
ATOM     21  C   UNL     1     112.070 131.678 137.185  0.00  0.00    +0.000 A 
ATOM     22  C   UNL     1     110.824 131.034 136.914  0.00  0.00    +0.000 A 
ATOM     23  C   UNL     1     111.247 131.707 137.134  0.00  0.00    +0.000 A 
BRANCH  23  24
ATOM     24  O   UNL     1     110.847 132.409 137.302  0.00  0.00    +0.000 OA
ATOM     25  C   UNL     1     110.418 132.791 136.710  0.00  0.00    +0.000 C 
ENDBRANCH  23  24
ENDBRANCH   3  18
TORSDOF 2
ENDMDL
