MODEL 1
REMARK VINA RESULT:      -9.8      0.000      0.000
REMARK  Name = 
REMARK  2 active torsions:
REMARK  status: ('A' for Active; 'I' for Inactive)
REMARK    1  A    between atoms: C_3  and  C_6
REMARK    2  A    between atoms: C_17  and  O_22
REMARK                            x       y       z     vdW  Elec       q    Type
REMARK                         _______ _______ _______ _____ _____    ______ ____
ROOT
ATOM      1  O   UNL     1     113.831 127.077 136.715  0.00  0.00    +0.000 OA
ATOM      2  C   UNL     1     113.645 126.275 136.752  0.00  0.00    +0.000 A 
ATOM      3  C   UNL     1     113.278 127.616 136.426  0.00  0.00    +0.000 C 
ATOM      4  C   UNL     1     112.906 126.011 136.499  0.00  0.00    +0.000 A 
ATOM      5  C   UNL     1     114.198 125.735 137.042  0.00  0.00    +0.000 A 
ATOM      6  C   UNL     1     112.538 127.352 136.173  0.00  0.00    +0.000 C 
ATOM      7  C   UNL     1     112.719 125.207 136.536  0.00  0.00    +0.000 A 
ATOM      8  C   UNL     1     112.352 126.549 136.209  0.00  0.00    +0.000 C 
ATOM      9  C   UNL     1     114.013 124.933 137.079  0.00  0.00    +0.000 A 
ATOM     10  C   UNL     1     113.273 124.669 136.826  0.00  0.00    +0.000 A 
ATOM     11  C   UNL     1     111.981 124.943 136.283  0.00  0.00    +0.000 C 
ATOM     12  O   UNL     1     111.613 126.285 135.957  0.00  0.00    +0.000 OA
ATOM     13  O   UNL     1     114.566 124.393 137.369  0.00  0.00    +0.000 OA
ATOM     14  C   UNL     1     113.087 123.865 136.863  0.00  0.00    +0.000 C 
ATOM     15  C   UNL     1     111.427 125.483 135.993  0.00  0.00    +0.000 C 
ATOM     16  C   UNL     1     111.794 124.141 136.320  0.00  0.00    +0.000 C 
ATOM     17  C   UNL     1     110.687 125.219 135.740  0.00  0.00    +0.000 C 
ENDROOT
BRANCH   3  18
ATOM     18  C   UNL     1     113.464 128.419 136.389  0.00  0.00    +0.000 A 
ATOM     19  C   UNL     1     113.838 128.726 135.721  0.00  0.00    +0.000 A 
ATOM     20  C   UNL     1     113.275 128.916 137.021  0.00  0.00    +0.000 A 
ATOM     21  C   UNL     1     114.024 129.528 135.684  0.00  0.00    +0.000 A 
ATOM     22  C   UNL     1     113.462 129.719 136.984  0.00  0.00    +0.000 A 
ATOM     23  C   UNL     1     113.835 130.025 136.316  0.00  0.00    +0.000 A 
ATOM     24  O   UNL     1     114.021 130.827 136.279  0.00  0.00    +0.000 OA
BRANCH  21  25
ATOM     25  O   UNL     1     114.398 129.835 135.016  0.00  0.00    +0.000 OA
ATOM     26  C   UNL     1     114.959 129.384 134.613  0.00  0.00    +0.000 C 
ENDBRANCH  21  25
ENDBRANCH   3  18
TORSDOF 2
ENDMDL
MODEL 2
REMARK VINA RESULT:      -9.7      0.684      2.131
REMARK  Name = 
REMARK  2 active torsions:
REMARK  status: ('A' for Active; 'I' for Inactive)
REMARK    1  A    between atoms: C_3  and  C_6
REMARK    2  A    between atoms: C_17  and  O_22
REMARK                            x       y       z     vdW  Elec       q    Type
REMARK                         _______ _______ _______ _____ _____    ______ ____
ROOT
ATOM      1  O   UNL     1     112.555 127.407 136.116  0.00  0.00    +0.000 OA
ATOM      2  C   UNL     1     112.369 126.607 136.187  0.00  0.00    +0.000 A 
ATOM      3  C   UNL     1     113.305 127.677 136.330  0.00  0.00    +0.000 C 
ATOM      4  C   UNL     1     112.933 126.076 136.471  0.00  0.00    +0.000 A 
ATOM      5  C   UNL     1     111.619 126.337 135.973  0.00  0.00    +0.000 A 
ATOM      6  C   UNL     1     113.869 127.146 136.614  0.00  0.00    +0.000 C 
ATOM      7  C   UNL     1     112.746 125.275 136.542  0.00  0.00    +0.000 A 
ATOM      8  C   UNL     1     113.683 126.345 136.685  0.00  0.00    +0.000 C 
ATOM      9  C   UNL     1     111.433 125.537 136.044  0.00  0.00    +0.000 A 
ATOM     10  C   UNL     1     111.997 125.006 136.328  0.00  0.00    +0.000 A 
ATOM     11  C   UNL     1     113.309 124.744 136.826  0.00  0.00    +0.000 C 
ATOM     12  O   UNL     1     114.246 125.814 136.969  0.00  0.00    +0.000 OA
ATOM     13  O   UNL     1     110.683 125.266 135.830  0.00  0.00    +0.000 OA
ATOM     14  C   UNL     1     111.810 124.204 136.399  0.00  0.00    +0.000 C 
ATOM     15  C   UNL     1     114.060 125.014 137.040  0.00  0.00    +0.000 C 
ATOM     16  C   UNL     1     113.124 123.944 136.897  0.00  0.00    +0.000 C 
ATOM     17  C   UNL     1     114.624 124.483 137.324  0.00  0.00    +0.000 C 
ENDROOT
BRANCH   3  18
ATOM     18  C   UNL     1     113.491 128.477 136.259  0.00  0.00    +0.000 A 
ATOM     19  C   UNL     1     113.300 129.001 136.867  0.00  0.00    +0.000 A 
ATOM     20  C   UNL     1     113.870 128.754 135.579  0.00  0.00    +0.000 A 
ATOM     21  C   UNL     1     113.486 129.801 136.796  0.00  0.00    +0.000 A 
ATOM     22  C   UNL     1     114.056 129.555 135.509  0.00  0.00    +0.000 A 
ATOM     23  C   UNL     1     113.864 130.079 136.116  0.00  0.00    +0.000 A 
ATOM     24  O   UNL     1     114.051 130.878 136.046  0.00  0.00    +0.000 OA
BRANCH  21  25
ATOM     25  O   UNL     1     113.294 130.325 137.404  0.00  0.00    +0.000 OA
ATOM     26  C   UNL     1     112.580 130.244 137.808  0.00  0.00    +0.000 C 
ENDBRANCH  21  25
ENDBRANCH   3  18
TORSDOF 2
ENDMDL
MODEL 3
REMARK VINA RESULT:      -9.6     13.346     14.457
REMARK  Name = 
REMARK  2 active torsions:
REMARK  status: ('A' for Active; 'I' for Inactive)
REMARK    1  A    between atoms: C_3  and  C_6
REMARK    2  A    between atoms: C_17  and  O_22
REMARK                            x       y       z     vdW  Elec       q    Type
REMARK                         _______ _______ _______ _____ _____    ______ ____
ROOT
ATOM      1  O   UNL     1     105.001 124.190 146.777  0.00  0.00    +0.000 OA
ATOM      2  C   UNL     1     104.197 124.042 146.672  0.00  0.00    +0.000 A 
ATOM      3  C   UNL     1     105.249 124.767 147.312  0.00  0.00    +0.000 C 
ATOM      4  C   UNL     1     103.639 124.471 147.104  0.00  0.00    +0.000 A 
ATOM      5  C   UNL     1     103.949 123.465 146.137  0.00  0.00    +0.000 A 
ATOM      6  C   UNL     1     104.691 125.196 147.743  0.00  0.00    +0.000 C 
ATOM      7  C   UNL     1     102.834 124.322 146.999  0.00  0.00    +0.000 A 
ATOM      8  C   UNL     1     103.886 125.048 147.639  0.00  0.00    +0.000 C 
ATOM      9  C   UNL     1     103.145 123.316 146.033  0.00  0.00    +0.000 A 
ATOM     10  C   UNL     1     102.587 123.745 146.464  0.00  0.00    +0.000 A 
ATOM     11  C   UNL     1     102.277 124.750 147.430  0.00  0.00    +0.000 C 
ATOM     12  O   UNL     1     103.329 125.476 148.070  0.00  0.00    +0.000 OA
ATOM     13  O   UNL     1     102.897 122.739 145.497  0.00  0.00    +0.000 OA
ATOM     14  C   UNL     1     101.782 123.597 146.360  0.00  0.00    +0.000 C 
ATOM     15  C   UNL     1     102.524 125.328 147.966  0.00  0.00    +0.000 C 
ATOM     16  C   UNL     1     101.472 124.602 147.326  0.00  0.00    +0.000 C 
ATOM     17  C   UNL     1     101.966 125.756 148.397  0.00  0.00    +0.000 C 
ENDROOT
BRANCH   3  18
ATOM     18  C   UNL     1     106.053 124.916 147.416  0.00  0.00    +0.000 A 
ATOM     19  C   UNL     1     106.451 124.601 148.067  0.00  0.00    +0.000 A 
ATOM     20  C   UNL     1     106.462 125.380 146.869  0.00  0.00    +0.000 A 
ATOM     21  C   UNL     1     107.255 124.749 148.172  0.00  0.00    +0.000 A 
ATOM     22  C   UNL     1     107.267 125.529 146.974  0.00  0.00    +0.000 A 
ATOM     23  C   UNL     1     107.663 125.214 147.624  0.00  0.00    +0.000 A 
ATOM     24  O   UNL     1     108.467 125.362 147.729  0.00  0.00    +0.000 OA
BRANCH  21  25
ATOM     25  O   UNL     1     107.651 124.434 148.822  0.00  0.00    +0.000 OA
ATOM     26  C   UNL     1     107.230 124.213 149.496  0.00  0.00    +0.000 C 
ENDBRANCH  21  25
ENDBRANCH   3  18
TORSDOF 2
ENDMDL
MODEL 4
REMARK VINA RESULT:      -9.6     13.392     14.510
REMARK  Name = 
REMARK  2 active torsions:
REMARK  status: ('A' for Active; 'I' for Inactive)
REMARK    1  A    between atoms: C_3  and  C_6
REMARK    2  A    between atoms: C_17  and  O_22
REMARK                            x       y       z     vdW  Elec       q    Type
REMARK                         _______ _______ _______ _____ _____    ______ ____
ROOT
ATOM      1  O   UNL     1     104.669 125.177 147.798  0.00  0.00    +0.000 OA
ATOM      2  C   UNL     1     103.865 125.021 147.701  0.00  0.00    +0.000 A 
ATOM      3  C   UNL     1     105.226 124.764 147.352  0.00  0.00    +0.000 C 
ATOM      4  C   UNL     1     103.618 124.451 147.159  0.00  0.00    +0.000 A 
ATOM      5  C   UNL     1     103.307 125.435 148.147  0.00  0.00    +0.000 A 
ATOM      6  C   UNL     1     104.979 124.194 146.809  0.00  0.00    +0.000 C 
ATOM      7  C   UNL     1     102.813 124.295 147.062  0.00  0.00    +0.000 A 
ATOM      8  C   UNL     1     104.175 124.037 146.712  0.00  0.00    +0.000 C 
ATOM      9  C   UNL     1     102.503 125.279 148.051  0.00  0.00    +0.000 A 
ATOM     10  C   UNL     1     102.256 124.709 147.508  0.00  0.00    +0.000 A 
ATOM     11  C   UNL     1     102.566 123.725 146.520  0.00  0.00    +0.000 C 
ATOM     12  O   UNL     1     103.928 123.468 146.170  0.00  0.00    +0.000 OA
ATOM     13  O   UNL     1     101.946 125.692 148.496  0.00  0.00    +0.000 OA
ATOM     14  C   UNL     1     101.451 124.552 147.411  0.00  0.00    +0.000 C 
ATOM     15  C   UNL     1     103.124 123.311 146.073  0.00  0.00    +0.000 C 
ATOM     16  C   UNL     1     101.762 123.568 146.423  0.00  0.00    +0.000 C 
ATOM     17  C   UNL     1     102.877 122.741 145.531  0.00  0.00    +0.000 C 
ENDROOT
BRANCH   3  18
ATOM     18  C   UNL     1     106.030 124.920 147.449  0.00  0.00    +0.000 A 
ATOM     19  C   UNL     1     106.436 124.610 148.097  0.00  0.00    +0.000 A 
ATOM     20  C   UNL     1     106.429 125.387 146.896  0.00  0.00    +0.000 A 
ATOM     21  C   UNL     1     107.240 124.767 148.193  0.00  0.00    +0.000 A 
ATOM     22  C   UNL     1     107.234 125.543 146.993  0.00  0.00    +0.000 A 
ATOM     23  C   UNL     1     107.639 125.233 147.641  0.00  0.00    +0.000 A 
ATOM     24  O   UNL     1     108.443 125.389 147.737  0.00  0.00    +0.000 OA
BRANCH  21  25
ATOM     25  O   UNL     1     107.646 124.457 148.841  0.00  0.00    +0.000 OA
ATOM     26  C   UNL     1     107.266 124.384 149.570  0.00  0.00    +0.000 C 
ENDBRANCH  21  25
ENDBRANCH   3  18
TORSDOF 2
ENDMDL
MODEL 5
REMARK VINA RESULT:      -9.6     13.149     14.447
REMARK  Name = 
REMARK  2 active torsions:
REMARK  status: ('A' for Active; 'I' for Inactive)
REMARK    1  A    between atoms: C_3  and  C_6
REMARK    2  A    between atoms: C_17  and  O_22
REMARK                            x       y       z     vdW  Elec       q    Type
REMARK                         _______ _______ _______ _____ _____    ______ ____
ROOT
ATOM      1  O   UNL     1     104.770 125.071 146.745  0.00  0.00    +0.000 OA
ATOM      2  C   UNL     1     105.574 125.200 146.873  0.00  0.00    +0.000 A 
ATOM      3  C   UNL     1     104.325 124.653 147.300  0.00  0.00    +0.000 C 
ATOM      4  C   UNL     1     105.934 124.912 147.557  0.00  0.00    +0.000 A 
ATOM      5  C   UNL     1     106.018 125.619 146.318  0.00  0.00    +0.000 A 
ATOM      6  C   UNL     1     104.685 124.364 147.984  0.00  0.00    +0.000 C 
ATOM      7  C   UNL     1     106.739 125.042 147.686  0.00  0.00    +0.000 A 
ATOM      8  C   UNL     1     105.490 124.494 148.113  0.00  0.00    +0.000 C 
ATOM      9  C   UNL     1     106.822 125.748 146.446  0.00  0.00    +0.000 A 
ATOM     10  C   UNL     1     107.183 125.460 147.130  0.00  0.00    +0.000 A 
ATOM     11  C   UNL     1     107.099 124.754 148.369  0.00  0.00    +0.000 C 
ATOM     12  O   UNL     1     105.850 124.206 148.796  0.00  0.00    +0.000 OA
ATOM     13  O   UNL     1     107.267 126.166 145.891  0.00  0.00    +0.000 OA
ATOM     14  C   UNL     1     107.988 125.590 147.259  0.00  0.00    +0.000 C 
ATOM     15  C   UNL     1     106.654 124.335 148.925  0.00  0.00    +0.000 C 
ATOM     16  C   UNL     1     107.903 124.883 148.498  0.00  0.00    +0.000 C 
ATOM     17  C   UNL     1     107.015 124.047 149.609  0.00  0.00    +0.000 C 
ENDROOT
BRANCH   3  18
ATOM     18  C   UNL     1     103.521 124.523 147.172  0.00  0.00    +0.000 A 
ATOM     19  C   UNL     1     103.273 124.053 146.540  0.00  0.00    +0.000 A 
ATOM     20  C   UNL     1     102.962 124.863 147.676  0.00  0.00    +0.000 A 
ATOM     21  C   UNL     1     102.470 123.924 146.412  0.00  0.00    +0.000 A 
ATOM     22  C   UNL     1     102.157 124.733 147.548  0.00  0.00    +0.000 A 
ATOM     23  C   UNL     1     101.911 124.264 146.916  0.00  0.00    +0.000 A 
ATOM     24  O   UNL     1     101.107 124.134 146.788  0.00  0.00    +0.000 OA
BRANCH  21  25
ATOM     25  O   UNL     1     102.223 123.455 145.780  0.00  0.00    +0.000 OA
ATOM     26  C   UNL     1     102.654 122.783 145.571  0.00  0.00    +0.000 C 
ENDBRANCH  21  25
ENDBRANCH   3  18
TORSDOF 2
ENDMDL
MODEL 6
REMARK VINA RESULT:      -9.4     10.145     11.578
REMARK  Name = 
REMARK  2 active torsions:
REMARK  status: ('A' for Active; 'I' for Inactive)
REMARK    1  A    between atoms: C_3  and  C_6
REMARK    2  A    between atoms: C_17  and  O_22
REMARK                            x       y       z     vdW  Elec       q    Type
REMARK                         _______ _______ _______ _____ _____    ______ ____
ROOT
ATOM      1  O   UNL     1     104.565 129.044 142.831  0.00  0.00    +0.000 OA
ATOM      2  C   UNL     1     103.948 129.548 142.619  0.00  0.00    +0.000 A 
ATOM      3  C   UNL     1     104.807 128.448 142.315  0.00  0.00    +0.000 C 
ATOM      4  C   UNL     1     103.573 129.457 141.891  0.00  0.00    +0.000 A 
ATOM      5  C   UNL     1     103.706 130.145 143.136  0.00  0.00    +0.000 A 
ATOM      6  C   UNL     1     104.432 128.357 141.586  0.00  0.00    +0.000 C 
ATOM      7  C   UNL     1     102.955 129.962 141.678  0.00  0.00    +0.000 A 
ATOM      8  C   UNL     1     103.814 128.861 141.373  0.00  0.00    +0.000 C 
ATOM      9  C   UNL     1     103.089 130.649 142.924  0.00  0.00    +0.000 A 
ATOM     10  C   UNL     1     102.713 130.557 142.195  0.00  0.00    +0.000 A 
ATOM     11  C   UNL     1     102.580 129.871 140.950  0.00  0.00    +0.000 C 
ATOM     12  O   UNL     1     103.439 128.770 140.645  0.00  0.00    +0.000 OA
ATOM     13  O   UNL     1     102.847 131.245 143.440  0.00  0.00    +0.000 OA
ATOM     14  C   UNL     1     102.096 131.062 141.983  0.00  0.00    +0.000 C 
ATOM     15  C   UNL     1     102.822 129.274 140.433  0.00  0.00    +0.000 C 
ATOM     16  C   UNL     1     101.963 130.375 140.737  0.00  0.00    +0.000 C 
ATOM     17  C   UNL     1     102.446 129.183 139.704  0.00  0.00    +0.000 C 
ENDROOT
BRANCH   3  18
ATOM     18  C   UNL     1     105.424 127.944 142.527  0.00  0.00    +0.000 A 
ATOM     19  C   UNL     1     105.298 127.347 143.083  0.00  0.00    +0.000 A 
ATOM     20  C   UNL     1     106.169 128.035 142.182  0.00  0.00    +0.000 A 
ATOM     21  C   UNL     1     105.915 126.843 143.295  0.00  0.00    +0.000 A 
ATOM     22  C   UNL     1     106.786 127.530 142.394  0.00  0.00    +0.000 A 
ATOM     23  C   UNL     1     106.660 126.935 142.950  0.00  0.00    +0.000 A 
ATOM     24  O   UNL     1     107.277 126.430 143.162  0.00  0.00    +0.000 OA
BRANCH  21  25
ATOM     25  O   UNL     1     105.788 126.247 143.850  0.00  0.00    +0.000 OA
ATOM     26  C   UNL     1     105.544 126.440 144.615  0.00  0.00    +0.000 C 
ENDBRANCH  21  25
ENDBRANCH   3  18
TORSDOF 2
ENDMDL
MODEL 7
REMARK VINA RESULT:      -9.4      1.948      3.408
REMARK  Name = 
REMARK  2 active torsions:
REMARK  status: ('A' for Active; 'I' for Inactive)
REMARK    1  A    between atoms: C_3  and  C_6
REMARK    2  A    between atoms: C_17  and  O_22
REMARK                            x       y       z     vdW  Elec       q    Type
REMARK                         _______ _______ _______ _____ _____    ______ ____
ROOT
ATOM      1  O   UNL     1     111.600 126.890 136.250  0.00  0.00    +0.000 OA
ATOM      2  C   UNL     1     112.270 126.428 136.379  0.00  0.00    +0.000 A 
ATOM      3  C   UNL     1     110.849 126.552 136.297  0.00  0.00    +0.000 C 
ATOM      4  C   UNL     1     112.190 125.626 136.555  0.00  0.00    +0.000 A 
ATOM      5  C   UNL     1     113.021 126.767 136.331  0.00  0.00    +0.000 A 
ATOM      6  C   UNL     1     110.769 125.750 136.474  0.00  0.00    +0.000 C 
ATOM      7  C   UNL     1     112.862 125.163 136.684  0.00  0.00    +0.000 A 
ATOM      8  C   UNL     1     111.440 125.287 136.603  0.00  0.00    +0.000 C 
ATOM      9  C   UNL     1     113.692 126.304 136.460  0.00  0.00    +0.000 A 
ATOM     10  C   UNL     1     113.612 125.503 136.637  0.00  0.00    +0.000 A 
ATOM     11  C   UNL     1     112.782 124.362 136.861  0.00  0.00    +0.000 C 
ATOM     12  O   UNL     1     111.361 124.486 136.779  0.00  0.00    +0.000 OA
ATOM     13  O   UNL     1     114.443 126.643 136.413  0.00  0.00    +0.000 OA
ATOM     14  C   UNL     1     114.283 125.039 136.766  0.00  0.00    +0.000 C 
ATOM     15  C   UNL     1     112.031 124.022 136.908  0.00  0.00    +0.000 C 
ATOM     16  C   UNL     1     113.452 123.899 136.990  0.00  0.00    +0.000 C 
ATOM     17  C   UNL     1     111.951 123.220 137.085  0.00  0.00    +0.000 C 
ENDROOT
BRANCH   3  18
ATOM     18  C   UNL     1     110.179 127.014 136.168  0.00  0.00    +0.000 A 
ATOM     19  C   UNL     1     109.947 127.572 136.730  0.00  0.00    +0.000 A 
ATOM     20  C   UNL     1     109.738 126.918 135.476  0.00  0.00    +0.000 A 
ATOM     21  C   UNL     1     109.277 128.035 136.601  0.00  0.00    +0.000 A 
ATOM     22  C   UNL     1     109.067 127.381 135.348  0.00  0.00    +0.000 A 
ATOM     23  C   UNL     1     108.836 127.939 135.909  0.00  0.00    +0.000 A 
ATOM     24  O   UNL     1     108.166 128.401 135.781  0.00  0.00    +0.000 OA
BRANCH  21  25
ATOM     25  O   UNL     1     109.047 128.592 137.163  0.00  0.00    +0.000 OA
ATOM     26  C   UNL     1     109.615 129.047 137.552  0.00  0.00    +0.000 C 
ENDBRANCH  21  25
ENDBRANCH   3  18
TORSDOF 2
ENDMDL
MODEL 8
REMARK VINA RESULT:      -9.1      0.990      4.636
REMARK  Name = 
REMARK  2 active torsions:
REMARK  status: ('A' for Active; 'I' for Inactive)
REMARK    1  A    between atoms: C_3  and  C_6
REMARK    2  A    between atoms: C_17  and  O_22
REMARK                            x       y       z     vdW  Elec       q    Type
REMARK                         _______ _______ _______ _____ _____    ______ ____
ROOT
ATOM      1  O   UNL     1     113.052 127.340 137.359  0.00  0.00    +0.000 OA
ATOM      2  C   UNL     1     113.135 128.159 137.332  0.00  0.00    +0.000 A 
ATOM      3  C   UNL     1     113.387 126.870 136.768  0.00  0.00    +0.000 C 
ATOM      4  C   UNL     1     113.555 128.511 136.715  0.00  0.00    +0.000 A 
ATOM      5  C   UNL     1     112.800 128.628 137.922  0.00  0.00    +0.000 A 
ATOM      6  C   UNL     1     113.806 127.222 136.151  0.00  0.00    +0.000 C 
ATOM      7  C   UNL     1     113.638 129.332 136.687  0.00  0.00    +0.000 A 
ATOM      8  C   UNL     1     113.890 128.043 136.124  0.00  0.00    +0.000 C 
ATOM      9  C   UNL     1     112.884 129.448 137.895  0.00  0.00    +0.000 A 
ATOM     10  C   UNL     1     113.303 129.800 137.278  0.00  0.00    +0.000 A 
ATOM     11  C   UNL     1     114.057 129.684 136.071  0.00  0.00    +0.000 C 
ATOM     12  O   UNL     1     114.309 128.395 135.507  0.00  0.00    +0.000 OA
ATOM     13  O   UNL     1     112.548 129.917 138.486  0.00  0.00    +0.000 OA
ATOM     14  C   UNL     1     113.386 130.621 137.251  0.00  0.00    +0.000 C 
ATOM     15  C   UNL     1     114.393 129.215 135.480  0.00  0.00    +0.000 C 
ATOM     16  C   UNL     1     114.141 130.504 136.043  0.00  0.00    +0.000 C 
ATOM     17  C   UNL     1     114.812 129.567 134.862  0.00  0.00    +0.000 C 
ENDROOT
BRANCH   3  18
ATOM     18  C   UNL     1     113.304 126.051 136.795  0.00  0.00    +0.000 A 
ATOM     19  C   UNL     1     112.626 125.694 136.489  0.00  0.00    +0.000 A 
ATOM     20  C   UNL     1     113.900 125.586 137.129  0.00  0.00    +0.000 A 
ATOM     21  C   UNL     1     112.542 124.874 136.516  0.00  0.00    +0.000 A 
ATOM     22  C   UNL     1     113.816 124.765 137.156  0.00  0.00    +0.000 A 
ATOM     23  C   UNL     1     113.138 124.409 136.849  0.00  0.00    +0.000 A 
ATOM     24  O   UNL     1     113.055 123.590 136.876  0.00  0.00    +0.000 OA
BRANCH  21  25
ATOM     25  O   UNL     1     111.865 124.518 136.210  0.00  0.00    +0.000 OA
ATOM     26  C   UNL     1     111.182 124.966 136.088  0.00  0.00    +0.000 C 
ENDBRANCH  21  25
ENDBRANCH   3  18
TORSDOF 2
ENDMDL
MODEL 9
REMARK VINA RESULT:      -9.0      2.679      3.650
REMARK  Name = 
REMARK  2 active torsions:
REMARK  status: ('A' for Active; 'I' for Inactive)
REMARK    1  A    between atoms: C_3  and  C_6
REMARK    2  A    between atoms: C_17  and  O_22
REMARK                            x       y       z     vdW  Elec       q    Type
REMARK                         _______ _______ _______ _____ _____    ______ ____
ROOT
ATOM      1  O   UNL     1     112.171 126.529 138.972  0.00  0.00    +0.000 OA
ATOM      2  C   UNL     1     112.154 125.992 138.348  0.00  0.00    +0.000 A 
ATOM      3  C   UNL     1     112.892 126.753 139.306  0.00  0.00    +0.000 C 
ATOM      4  C   UNL     1     112.859 125.677 138.055  0.00  0.00    +0.000 A 
ATOM      5  C   UNL     1     111.433 125.767 138.014  0.00  0.00    +0.000 A 
ATOM      6  C   UNL     1     113.596 126.439 139.013  0.00  0.00    +0.000 C 
ATOM      7  C   UNL     1     112.842 125.138 137.430  0.00  0.00    +0.000 A 
ATOM      8  C   UNL     1     113.580 125.900 138.388  0.00  0.00    +0.000 C 
ATOM      9  C   UNL     1     111.417 125.230 137.390  0.00  0.00    +0.000 A 
ATOM     10  C   UNL     1     112.121 124.915 137.098  0.00  0.00    +0.000 A 
ATOM     11  C   UNL     1     113.546 124.824 137.138  0.00  0.00    +0.000 C 
ATOM     12  O   UNL     1     114.283 125.586 138.096  0.00  0.00    +0.000 OA
ATOM     13  O   UNL     1     110.696 125.005 137.056  0.00  0.00    +0.000 OA
ATOM     14  C   UNL     1     112.105 124.376 136.472  0.00  0.00    +0.000 C 
ATOM     15  C   UNL     1     114.268 125.048 137.471  0.00  0.00    +0.000 C 
ATOM     16  C   UNL     1     113.530 124.286 136.513  0.00  0.00    +0.000 C 
ATOM     17  C   UNL     1     114.972 124.733 137.179  0.00  0.00    +0.000 C 
ENDROOT
BRANCH   3  18
ATOM     18  C   UNL     1     112.908 127.291 139.930  0.00  0.00    +0.000 A 
ATOM     19  C   UNL     1     112.918 128.102 139.777  0.00  0.00    +0.000 A 
ATOM     20  C   UNL     1     112.915 127.018 140.710  0.00  0.00    +0.000 A 
ATOM     21  C   UNL     1     112.935 128.640 140.402  0.00  0.00    +0.000 A 
ATOM     22  C   UNL     1     112.932 127.557 141.335  0.00  0.00    +0.000 A 
ATOM     23  C   UNL     1     112.942 128.367 141.181  0.00  0.00    +0.000 A 
ATOM     24  O   UNL     1     112.958 128.905 141.806  0.00  0.00    +0.000 OA
BRANCH  21  25
ATOM     25  O   UNL     1     112.945 129.450 140.249  0.00  0.00    +0.000 OA
ATOM     26  C   UNL     1     112.501 129.758 139.625  0.00  0.00    +0.000 C 
ENDBRANCH  21  25
ENDBRANCH   3  18
TORSDOF 2
ENDMDL
