MODEL 1
REMARK VINA RESULT:      -7.9      0.000      0.000
REMARK  Name = 6728945
REMARK  3 active torsions:
REMARK  status: ('A' for Active; 'I' for Inactive)
REMARK    1  A    between atoms: O_2  and  C_10
REMARK    2  A    between atoms: O_5  and  C_20
REMARK    3  A    between atoms: C_8  and  C_9
REMARK                            x       y       z     vdW  Elec       q    Type
REMARK                         _______ _______ _______ _____ _____    ______ ____
ROOT
ATOM      1  O   UNL     1     104.681 123.392 138.834  0.00  0.00    +0.000 OA
ATOM      2  O   UNL     1     104.475 125.773 139.476  0.00  0.00    +0.000 OA
ATOM      3  O   UNL     1     106.518 122.934 141.047  0.00  0.00    +0.000 OA
ATOM      4  C   UNL     1     105.028 124.474 139.699  0.00  0.00    +0.000 A 
ATOM      5  C   UNL     1     105.096 123.681 139.485  0.00  0.00    +0.000 A 
ATOM      6  C   UNL     1     104.196 123.896 138.396  0.00  0.00    +0.000 A 
ATOM      7  C   UNL     1     105.456 124.788 140.375  0.00  0.00    +0.000 A 
ATOM      8  C   UNL     1     104.543 124.979 139.262  0.00  0.00    +0.000 A 
ATOM      9  C   UNL     1     104.127 124.690 138.610  0.00  0.00    +0.000 A 
ATOM     10  C   UNL     1     105.598 123.145 139.933  0.00  0.00    +0.000 A 
ATOM     11  C   UNL     1     105.962 124.267 140.834  0.00  0.00    +0.000 A 
ATOM     12  C   UNL     1     106.034 123.441 140.612  0.00  0.00    +0.000 A 
ENDROOT
BRANCH   6  13
ATOM     13  C   UNL     1     103.781 123.607 137.746  0.00  0.00    +0.000 A 
ATOM     14  C   UNL     1     102.957 123.556 137.770  0.00  0.00    +0.000 A 
ATOM     15  C   UNL     1     104.188 123.368 137.069  0.00  0.00    +0.000 A 
ATOM     16  C   UNL     1     102.542 123.267 137.119  0.00  0.00    +0.000 A 
ATOM     17  C   UNL     1     103.772 123.079 136.417  0.00  0.00    +0.000 A 
ATOM     18  C   UNL     1     102.949 123.029 136.443  0.00  0.00    +0.000 A 
BRANCH  18  19
ATOM     19  O   UNL     1     102.533 122.739 135.791  0.00  0.00    +0.000 OA
ATOM     20  C   UNL     1     102.548 123.152 135.077  0.00  0.00    +0.000 C 
ENDBRANCH  18  19
ENDBRANCH   6  13
BRANCH   7  21
ATOM     21  O   UNL     1     105.381 125.583 140.581  0.00  0.00    +0.000 OA
ATOM     22  C   UNL     1     105.567 125.830 141.347  0.00  0.00    +0.000 C 
ENDBRANCH   7  21
TORSDOF 3
ENDMDL
MODEL 2
REMARK VINA RESULT:      -7.7      7.188      8.170
REMARK  Name = 6728945
REMARK  3 active torsions:
REMARK  status: ('A' for Active; 'I' for Inactive)
REMARK    1  A    between atoms: O_2  and  C_10
REMARK    2  A    between atoms: O_5  and  C_20
REMARK    3  A    between atoms: C_8  and  C_9
REMARK                            x       y       z     vdW  Elec       q    Type
REMARK                         _______ _______ _______ _____ _____    ______ ____
ROOT
ATOM      1  O   UNL     1     104.332 124.360 146.127  0.00  0.00    +0.000 OA
ATOM      2  O   UNL     1     104.855 124.539 148.540  0.00  0.00    +0.000 OA
ATOM      3  O   UNL     1     106.930 125.493 145.460  0.00  0.00    +0.000 OA
ATOM      4  C   UNL     1     105.231 124.728 147.174  0.00  0.00    +0.000 A 
ATOM      5  C   UNL     1     105.057 124.668 146.370  0.00  0.00    +0.000 A 
ATOM      6  C   UNL     1     103.780 124.111 146.688  0.00  0.00    +0.000 A 
ATOM      7  C   UNL     1     105.984 125.047 147.440  0.00  0.00    +0.000 A 
ATOM      8  C   UNL     1     104.680 124.479 147.736  0.00  0.00    +0.000 A 
ATOM      9  C   UNL     1     103.954 124.171 147.492  0.00  0.00    +0.000 A 
ATOM     10  C   UNL     1     105.623 124.924 145.776  0.00  0.00    +0.000 A 
ATOM     11  C   UNL     1     106.562 125.308 146.860  0.00  0.00    +0.000 A 
ATOM     12  C   UNL     1     106.381 125.246 146.023  0.00  0.00    +0.000 A 
ENDROOT
BRANCH   6  13
ATOM     13  C   UNL     1     103.055 123.803 146.445  0.00  0.00    +0.000 A 
ATOM     14  C   UNL     1     102.360 124.227 146.580  0.00  0.00    +0.000 A 
ATOM     15  C   UNL     1     103.024 123.071 146.067  0.00  0.00    +0.000 A 
ATOM     16  C   UNL     1     101.635 123.919 146.337  0.00  0.00    +0.000 A 
ATOM     17  C   UNL     1     102.298 122.762 145.824  0.00  0.00    +0.000 A 
ATOM     18  C   UNL     1     101.604 123.186 145.959  0.00  0.00    +0.000 A 
BRANCH  18  19
ATOM     19  O   UNL     1     100.878 122.878 145.716  0.00  0.00    +0.000 OA
ATOM     20  C   UNL     1     100.732 122.751 144.914  0.00  0.00    +0.000 C 
ENDBRANCH  18  19
ENDBRANCH   6  13
BRANCH   7  21
ATOM     21  O   UNL     1     106.149 125.103 148.246  0.00  0.00    +0.000 OA
ATOM     22  C   UNL     1     106.917 124.970 148.520  0.00  0.00    +0.000 C 
ENDBRANCH   7  21
TORSDOF 3
ENDMDL
MODEL 3
REMARK VINA RESULT:      -7.7      9.082     10.220
REMARK  Name = 6728945
REMARK  3 active torsions:
REMARK  status: ('A' for Active; 'I' for Inactive)
REMARK    1  A    between atoms: O_2  and  C_10
REMARK    2  A    between atoms: O_5  and  C_20
REMARK    3  A    between atoms: C_8  and  C_9
REMARK                            x       y       z     vdW  Elec       q    Type
REMARK                         _______ _______ _______ _____ _____    ______ ____
ROOT
ATOM      1  O   UNL     1     113.840 126.831 136.780  0.00  0.00    +0.000 OA
ATOM      2  O   UNL     1     111.732 125.771 136.035  0.00  0.00    +0.000 OA
ATOM      3  O   UNL     1     114.916 124.226 137.512  0.00  0.00    +0.000 OA
ATOM      4  C   UNL     1     113.046 125.660 136.586  0.00  0.00    +0.000 A 
ATOM      5  C   UNL     1     113.749 126.014 136.834  0.00  0.00    +0.000 A 
ATOM      6  C   UNL     1     113.229 127.297 136.478  0.00  0.00    +0.000 A 
ATOM      7  C   UNL     1     112.939 124.809 136.637  0.00  0.00    +0.000 A 
ATOM      8  C   UNL     1     112.435 126.124 136.283  0.00  0.00    +0.000 A 
ATOM      9  C   UNL     1     112.527 126.943 136.230  0.00  0.00    +0.000 A 
ATOM     10  C   UNL     1     114.393 125.541 137.151  0.00  0.00    +0.000 A 
ATOM     11  C   UNL     1     113.572 124.320 136.951  0.00  0.00    +0.000 A 
ATOM     12  C   UNL     1     114.303 124.688 137.209  0.00  0.00    +0.000 A 
ENDROOT
BRANCH   6  13
ATOM     13  C   UNL     1     113.321 128.114 136.424  0.00  0.00    +0.000 A 
ATOM     14  C   UNL     1     113.705 128.445 135.774  0.00  0.00    +0.000 A 
ATOM     15  C   UNL     1     113.028 128.602 137.022  0.00  0.00    +0.000 A 
ATOM     16  C   UNL     1     113.796 129.263 135.720  0.00  0.00    +0.000 A 
ATOM     17  C   UNL     1     113.119 129.421 136.968  0.00  0.00    +0.000 A 
ATOM     18  C   UNL     1     113.503 129.751 136.317  0.00  0.00    +0.000 A 
BRANCH  18  19
ATOM     19  O   UNL     1     113.594 130.569 136.264  0.00  0.00    +0.000 OA
ATOM     20  C   UNL     1     113.888 130.994 136.907  0.00  0.00    +0.000 C 
ENDBRANCH  18  19
ENDBRANCH   6  13
BRANCH   7  21
ATOM     21  O   UNL     1     112.233 124.464 136.386  0.00  0.00    +0.000 OA
ATOM     22  C   UNL     1     111.945 123.790 136.765  0.00  0.00    +0.000 C 
ENDBRANCH   7  21
TORSDOF 3
ENDMDL
MODEL 4
REMARK VINA RESULT:      -7.7      6.499      8.705
REMARK  Name = 6728945
REMARK  3 active torsions:
REMARK  status: ('A' for Active; 'I' for Inactive)
REMARK    1  A    between atoms: O_2  and  C_10
REMARK    2  A    between atoms: O_5  and  C_20
REMARK    3  A    between atoms: C_8  and  C_9
REMARK                            x       y       z     vdW  Elec       q    Type
REMARK                         _______ _______ _______ _____ _____    ______ ____
ROOT
ATOM      1  O   UNL     1     102.075 130.965 140.959  0.00  0.00    +0.000 OA
ATOM      2  O   UNL     1     103.525 129.939 142.682  0.00  0.00    +0.000 OA
ATOM      3  O   UNL     1     102.585 128.726 139.168  0.00  0.00    +0.000 OA
ATOM      4  C   UNL     1     102.928 129.901 141.385  0.00  0.00    +0.000 A 
ATOM      5  C   UNL     1     102.444 130.243 140.810  0.00  0.00    +0.000 A 
ATOM      6  C   UNL     1     102.189 131.346 141.682  0.00  0.00    +0.000 A 
ATOM      7  C   UNL     1     103.318 129.148 141.242  0.00  0.00    +0.000 A 
ATOM      8  C   UNL     1     103.042 130.281 142.108  0.00  0.00    +0.000 A 
ATOM      9  C   UNL     1     102.672 131.004 142.257  0.00  0.00    +0.000 A 
ATOM     10  C   UNL     1     102.318 129.856 140.053  0.00  0.00    +0.000 A 
ATOM     11  C   UNL     1     103.203 128.748 140.490  0.00  0.00    +0.000 A 
ATOM     12  C   UNL     1     102.700 129.104 139.892  0.00  0.00    +0.000 A 
ENDROOT
BRANCH   6  13
ATOM     13  C   UNL     1     101.819 132.068 141.831  0.00  0.00    +0.000 A 
ATOM     14  C   UNL     1     102.188 132.773 141.613  0.00  0.00    +0.000 A 
ATOM     15  C   UNL     1     101.081 132.085 142.198  0.00  0.00    +0.000 A 
ATOM     16  C   UNL     1     101.819 133.495 141.762  0.00  0.00    +0.000 A 
ATOM     17  C   UNL     1     100.711 132.808 142.347  0.00  0.00    +0.000 A 
ATOM     18  C   UNL     1     101.080 133.513 142.129  0.00  0.00    +0.000 A 
BRANCH  18  19
ATOM     19  O   UNL     1     100.710 134.235 142.278  0.00  0.00    +0.000 OA
ATOM     20  C   UNL     1     100.961 134.704 142.909  0.00  0.00    +0.000 C 
ENDBRANCH  18  19
ENDBRANCH   6  13
BRANCH   7  21
ATOM     21  O   UNL     1     103.800 128.814 141.822  0.00  0.00    +0.000 OA
ATOM     22  C   UNL     1     104.453 128.359 141.604  0.00  0.00    +0.000 C 
ENDBRANCH   7  21
TORSDOF 3
ENDMDL
MODEL 5
REMARK VINA RESULT:      -7.6      7.502      8.312
REMARK  Name = 6728945
REMARK  3 active torsions:
REMARK  status: ('A' for Active; 'I' for Inactive)
REMARK    1  A    between atoms: O_2  and  C_10
REMARK    2  A    between atoms: O_5  and  C_20
REMARK    3  A    between atoms: C_8  and  C_9
REMARK                            x       y       z     vdW  Elec       q    Type
REMARK                         _______ _______ _______ _____ _____    ______ ____
ROOT
ATOM      1  O   UNL     1     105.192 124.270 147.284  0.00  0.00    +0.000 OA
ATOM      2  O   UNL     1     106.033 125.964 145.687  0.00  0.00    +0.000 OA
ATOM      3  O   UNL     1     107.553 124.638 148.948  0.00  0.00    +0.000 OA
ATOM      4  C   UNL     1     106.193 125.210 146.891  0.00  0.00    +0.000 A 
ATOM      5  C   UNL     1     105.913 124.646 147.423  0.00  0.00    +0.000 A 
ATOM      6  C   UNL     1     104.751 124.459 146.613  0.00  0.00    +0.000 A 
ATOM      7  C   UNL     1     106.943 125.608 147.024  0.00  0.00    +0.000 A 
ATOM      8  C   UNL     1     105.753 125.399 146.219  0.00  0.00    +0.000 A 
ATOM      9  C   UNL     1     105.031 125.023 146.080  0.00  0.00    +0.000 A 
ATOM     10  C   UNL     1     106.363 124.441 148.126  0.00  0.00    +0.000 A 
ATOM     11  C   UNL     1     107.406 125.416 147.722  0.00  0.00    +0.000 A 
ATOM     12  C   UNL     1     107.114 124.829 148.276  0.00  0.00    +0.000 A 
ENDROOT
BRANCH   6  13
ATOM     13  C   UNL     1     104.030 124.083 146.474  0.00  0.00    +0.000 A 
ATOM     14  C   UNL     1     103.993 123.435 145.964  0.00  0.00    +0.000 A 
ATOM     15  C   UNL     1     103.345 124.356 146.844  0.00  0.00    +0.000 A 
ATOM     16  C   UNL     1     103.272 123.060 145.825  0.00  0.00    +0.000 A 
ATOM     17  C   UNL     1     102.623 123.980 146.705  0.00  0.00    +0.000 A 
ATOM     18  C   UNL     1     102.587 123.332 146.196  0.00  0.00    +0.000 A 
BRANCH  18  19
ATOM     19  O   UNL     1     101.865 122.957 146.057  0.00  0.00    +0.000 OA
ATOM     20  C   UNL     1     101.199 123.403 145.865  0.00  0.00    +0.000 C 
ENDBRANCH  18  19
ENDBRANCH   6  13
BRANCH   7  21
ATOM     21  O   UNL     1     107.215 126.171 146.486  0.00  0.00    +0.000 OA
ATOM     22  C   UNL     1     107.376 126.941 146.740  0.00  0.00    +0.000 C 
ENDBRANCH   7  21
TORSDOF 3
ENDMDL
MODEL 6
REMARK VINA RESULT:      -7.5      1.143      4.572
REMARK  Name = 6728945
REMARK  3 active torsions:
REMARK  status: ('A' for Active; 'I' for Inactive)
REMARK    1  A    between atoms: O_2  and  C_10
REMARK    2  A    between atoms: O_5  and  C_20
REMARK    3  A    between atoms: C_8  and  C_9
REMARK                            x       y       z     vdW  Elec       q    Type
REMARK                         _______ _______ _______ _____ _____    ______ ____
ROOT
ATOM      1  O   UNL     1     103.712 123.878 139.450  0.00  0.00    +0.000 OA
ATOM      2  O   UNL     1     104.779 123.531 137.243  0.00  0.00    +0.000 OA
ATOM      3  O   UNL     1     101.110 123.230 138.316  0.00  0.00    +0.000 OA
ATOM      4  C   UNL     1     103.609 123.545 138.064  0.00  0.00    +0.000 A 
ATOM      5  C   UNL     1     103.254 123.661 138.800  0.00  0.00    +0.000 A 
ATOM      6  C   UNL     1     104.527 123.980 139.365  0.00  0.00    +0.000 A 
ATOM      7  C   UNL     1     103.142 123.318 137.380  0.00  0.00    +0.000 A 
ATOM      8  C   UNL     1     104.423 123.647 137.979  0.00  0.00    +0.000 A 
ATOM      9  C   UNL     1     104.882 123.865 138.629  0.00  0.00    +0.000 A 
ATOM     10  C   UNL     1     102.406 123.558 138.901  0.00  0.00    +0.000 A 
ATOM     11  C   UNL     1     102.294 123.210 137.462  0.00  0.00    +0.000 A 
ATOM     12  C   UNL     1     101.924 123.331 138.228  0.00  0.00    +0.000 A 
ENDROOT
BRANCH   6  13
ATOM     13  C   UNL     1     104.986 124.198 140.014  0.00  0.00    +0.000 A 
ATOM     14  C   UNL     1     105.173 124.992 140.141  0.00  0.00    +0.000 A 
ATOM     15  C   UNL     1     105.257 123.622 140.539  0.00  0.00    +0.000 A 
ATOM     16  C   UNL     1     105.632 125.209 140.790  0.00  0.00    +0.000 A 
ATOM     17  C   UNL     1     105.717 123.839 141.189  0.00  0.00    +0.000 A 
ATOM     18  C   UNL     1     105.903 124.633 141.315  0.00  0.00    +0.000 A 
BRANCH  18  19
ATOM     19  O   UNL     1     106.363 124.851 141.965  0.00  0.00    +0.000 OA
ATOM     20  C   UNL     1     105.998 125.075 142.670  0.00  0.00    +0.000 C 
ENDBRANCH  18  19
ENDBRANCH   6  13
BRANCH   7  21
ATOM     21  O   UNL     1     103.506 123.205 136.648  0.00  0.00    +0.000 OA
ATOM     22  C   UNL     1     103.051 123.019 135.985  0.00  0.00    +0.000 C 
ENDBRANCH   7  21
TORSDOF 3
ENDMDL
MODEL 7
REMARK VINA RESULT:      -7.5      8.842     10.014
REMARK  Name = 6728945
REMARK  3 active torsions:
REMARK  status: ('A' for Active; 'I' for Inactive)
REMARK    1  A    between atoms: O_2  and  C_10
REMARK    2  A    between atoms: O_5  and  C_20
REMARK    3  A    between atoms: C_8  and  C_9
REMARK                            x       y       z     vdW  Elec       q    Type
REMARK                         _______ _______ _______ _____ _____    ______ ____
ROOT
ATOM      1  O   UNL     1     112.264 127.231 135.972  0.00  0.00    +0.000 OA
ATOM      2  O   UNL     1     113.387 125.426 137.240  0.00  0.00    +0.000 OA
ATOM      3  O   UNL     1     110.130 125.399 135.216  0.00  0.00    +0.000 OA
ATOM      4  C   UNL     1     112.304 125.876 136.423  0.00  0.00    +0.000 A 
ATOM      5  C   UNL     1     111.930 126.478 136.000  0.00  0.00    +0.000 A 
ATOM      6  C   UNL     1     112.973 127.384 136.366  0.00  0.00    +0.000 A 
ATOM      7  C   UNL     1     111.966 125.087 136.460  0.00  0.00    +0.000 A 
ATOM      8  C   UNL     1     113.013 126.028 136.817  0.00  0.00    +0.000 A 
ATOM      9  C   UNL     1     113.347 126.782 136.788  0.00  0.00    +0.000 A 
ATOM     10  C   UNL     1     111.191 126.331 135.585  0.00  0.00    +0.000 A 
ATOM     11  C   UNL     1     111.228 124.922 136.051  0.00  0.00    +0.000 A 
ATOM     12  C   UNL     1     110.839 125.549 135.611  0.00  0.00    +0.000 A 
ENDROOT
BRANCH   6  13
ATOM     13  C   UNL     1     113.307 128.137 136.337  0.00  0.00    +0.000 A 
ATOM     14  C   UNL     1     113.109 128.698 136.909  0.00  0.00    +0.000 A 
ATOM     15  C   UNL     1     113.839 128.330 135.737  0.00  0.00    +0.000 A 
ATOM     16  C   UNL     1     113.443 129.451 136.881  0.00  0.00    +0.000 A 
ATOM     17  C   UNL     1     114.174 129.084 135.708  0.00  0.00    +0.000 A 
ATOM     18  C   UNL     1     113.976 129.644 136.280  0.00  0.00    +0.000 A 
BRANCH  18  19
ATOM     19  O   UNL     1     114.310 130.398 136.252  0.00  0.00    +0.000 OA
ATOM     20  C   UNL     1     115.022 130.518 135.852  0.00  0.00    +0.000 C 
ENDBRANCH  18  19
ENDBRANCH   6  13
BRANCH   7  21
ATOM     21  O   UNL     1     112.348 124.492 136.885  0.00  0.00    +0.000 OA
ATOM     22  C   UNL     1     112.080 123.712 136.834  0.00  0.00    +0.000 C 
ENDBRANCH   7  21
TORSDOF 3
ENDMDL
MODEL 8
REMARK VINA RESULT:      -7.5      7.611      9.279
REMARK  Name = 6728945
REMARK  3 active torsions:
REMARK  status: ('A' for Active; 'I' for Inactive)
REMARK    1  A    between atoms: O_2  and  C_10
REMARK    2  A    between atoms: O_5  and  C_20
REMARK    3  A    between atoms: C_8  and  C_9
REMARK                            x       y       z     vdW  Elec       q    Type
REMARK                         _______ _______ _______ _____ _____    ______ ____
ROOT
ATOM      1  O   UNL     1     104.086 124.922 147.427  0.00  0.00    +0.000 OA
ATOM      2  O   UNL     1     103.390 123.584 145.465  0.00  0.00    +0.000 OA
ATOM      3  O   UNL     1     101.318 125.098 148.314  0.00  0.00    +0.000 OA
ATOM      4  C   UNL     1     103.058 124.294 146.660  0.00  0.00    +0.000 A 
ATOM      5  C   UNL     1     103.290 124.740 147.314  0.00  0.00    +0.000 A 
ATOM      6  C   UNL     1     104.651 124.658 146.887  0.00  0.00    +0.000 A 
ATOM      7  C   UNL     1     102.231 124.098 146.531  0.00  0.00    +0.000 A 
ATOM      8  C   UNL     1     103.622 124.030 146.119  0.00  0.00    +0.000 A 
ATOM      9  C   UNL     1     104.419 124.213 146.233  0.00  0.00    +0.000 A 
ATOM     10  C   UNL     1     102.711 125.020 147.884  0.00  0.00    +0.000 A 
ATOM     11  C   UNL     1     101.638 124.369 147.090  0.00  0.00    +0.000 A 
ATOM     12  C   UNL     1     101.880 124.833 147.771  0.00  0.00    +0.000 A 
ENDROOT
BRANCH   6  13
ATOM     13  C   UNL     1     105.447 124.840 147.000  0.00  0.00    +0.000 A 
ATOM     14  C   UNL     1     105.865 125.247 146.417  0.00  0.00    +0.000 A 
ATOM     15  C   UNL     1     105.826 124.615 147.698  0.00  0.00    +0.000 A 
ATOM     16  C   UNL     1     106.661 125.429 146.530  0.00  0.00    +0.000 A 
ATOM     17  C   UNL     1     106.624 124.797 147.811  0.00  0.00    +0.000 A 
ATOM     18  C   UNL     1     107.040 125.204 147.227  0.00  0.00    +0.000 A 
BRANCH  18  19
ATOM     19  O   UNL     1     107.838 125.386 147.341  0.00  0.00    +0.000 OA
ATOM     20  C   UNL     1     108.261 125.019 147.946  0.00  0.00    +0.000 C 
ENDBRANCH  18  19
ENDBRANCH   6  13
BRANCH   7  21
ATOM     21  O   UNL     1     102.008 123.651 145.873  0.00  0.00    +0.000 OA
ATOM     22  C   UNL     1     101.287 123.250 145.872  0.00  0.00    +0.000 C 
ENDBRANCH   7  21
TORSDOF 3
ENDMDL
MODEL 9
REMARK VINA RESULT:      -7.4      8.224     10.131
REMARK  Name = 6728945
REMARK  3 active torsions:
REMARK  status: ('A' for Active; 'I' for Inactive)
REMARK    1  A    between atoms: O_2  and  C_10
REMARK    2  A    between atoms: O_5  and  C_20
REMARK    3  A    between atoms: C_8  and  C_9
REMARK                            x       y       z     vdW  Elec       q    Type
REMARK                         _______ _______ _______ _____ _____    ______ ____
ROOT
ATOM      1  O   UNL     1     113.843 126.294 138.281  0.00  0.00    +0.000 OA
ATOM      2  O   UNL     1     111.638 125.170 138.334  0.00  0.00    +0.000 OA
ATOM      3  O   UNL     1     114.645 124.658 136.009  0.00  0.00    +0.000 OA
ATOM      4  C   UNL     1     112.933 125.329 137.751  0.00  0.00    +0.000 A 
ATOM      5  C   UNL     1     113.668 125.703 137.733  0.00  0.00    +0.000 A 
ATOM      6  C   UNL     1     113.284 126.510 138.848  0.00  0.00    +0.000 A 
ATOM      7  C   UNL     1     112.739 124.712 137.185  0.00  0.00    +0.000 A 
ATOM      8  C   UNL     1     112.373 125.545 138.317  0.00  0.00    +0.000 A 
ATOM      9  C   UNL     1     112.549 126.136 138.866  0.00  0.00    +0.000 A 
ATOM     10  C   UNL     1     114.260 125.487 137.148  0.00  0.00    +0.000 A 
ATOM     11  C   UNL     1     113.318 124.482 136.593  0.00  0.00    +0.000 A 
ATOM     12  C   UNL     1     114.083 124.872 136.574  0.00  0.00    +0.000 A 
ENDROOT
BRANCH   6  13
ATOM     13  C   UNL     1     113.459 127.101 139.396  0.00  0.00    +0.000 A 
ATOM     14  C   UNL     1     113.869 126.914 140.087  0.00  0.00    +0.000 A 
ATOM     15  C   UNL     1     113.223 127.878 139.254  0.00  0.00    +0.000 A 
ATOM     16  C   UNL     1     114.044 127.505 140.636  0.00  0.00    +0.000 A 
ATOM     17  C   UNL     1     113.398 128.470 139.803  0.00  0.00    +0.000 A 
ATOM     18  C   UNL     1     113.809 128.283 140.493  0.00  0.00    +0.000 A 
BRANCH  18  19
ATOM     19  O   UNL     1     113.984 128.874 141.042  0.00  0.00    +0.000 OA
ATOM     20  C   UNL     1     114.271 129.603 140.784  0.00  0.00    +0.000 C 
ENDBRANCH  18  19
ENDBRANCH   6  13
BRANCH   7  21
ATOM     21  O   UNL     1     112.001 124.343 137.210  0.00  0.00    +0.000 OA
ATOM     22  C   UNL     1     111.926 123.555 136.978  0.00  0.00    +0.000 C 
ENDBRANCH   7  21
TORSDOF 3
ENDMDL
MODEL 10
REMARK VINA RESULT:      -7.3      9.501     10.416
REMARK  Name = 6728945
REMARK  3 active torsions:
REMARK  status: ('A' for Active; 'I' for Inactive)
REMARK    1  A    between atoms: O_2  and  C_10
REMARK    2  A    between atoms: O_5  and  C_20
REMARK    3  A    between atoms: C_8  and  C_9
REMARK                            x       y       z     vdW  Elec       q    Type
REMARK                         _______ _______ _______ _____ _____    ______ ____
ROOT
ATOM      1  O   UNL     1     113.839 127.557 136.001  0.00  0.00    +0.000 OA
ATOM      2  O   UNL     1     112.938 128.923 137.858  0.00  0.00    +0.000 OA
ATOM      3  O   UNL     1     114.804 129.963 134.673  0.00  0.00    +0.000 OA
ATOM      4  C   UNL     1     113.624 128.832 136.607  0.00  0.00    +0.000 A 
ATOM      5  C   UNL     1     113.924 128.377 135.988  0.00  0.00    +0.000 A 
ATOM      6  C   UNL     1     113.454 127.191 136.632  0.00  0.00    +0.000 A 
ATOM      7  C   UNL     1     113.706 129.688 136.605  0.00  0.00    +0.000 A 
ATOM      8  C   UNL     1     113.238 128.468 137.239  0.00  0.00    +0.000 A 
ATOM      9  C   UNL     1     113.154 127.646 137.251  0.00  0.00    +0.000 A 
ATOM     10  C   UNL     1     114.327 128.746 135.325  0.00  0.00    +0.000 A 
ATOM     11  C   UNL     1     114.106 130.074 135.951  0.00  0.00    +0.000 A 
ATOM     12  C   UNL     1     114.419 129.600 135.306  0.00  0.00    +0.000 A 
ENDROOT
BRANCH   6  13
ATOM     13  C   UNL     1     113.369 126.371 136.645  0.00  0.00    +0.000 A 
ATOM     14  C   UNL     1     112.658 126.025 136.409  0.00  0.00    +0.000 A 
ATOM     15  C   UNL     1     113.996 125.896 136.894  0.00  0.00    +0.000 A 
ATOM     16  C   UNL     1     112.573 125.206 136.422  0.00  0.00    +0.000 A 
ATOM     17  C   UNL     1     113.911 125.074 136.906  0.00  0.00    +0.000 A 
ATOM     18  C   UNL     1     113.200 124.730 136.670  0.00  0.00    +0.000 A 
BRANCH  18  19
ATOM     19  O   UNL     1     113.115 123.909 136.683  0.00  0.00    +0.000 OA
ATOM     20  C   UNL     1     112.379 123.573 136.842  0.00  0.00    +0.000 C 
ENDBRANCH  18  19
ENDBRANCH   6  13
BRANCH   7  21
ATOM     21  O   UNL     1     113.402 130.135 137.229  0.00  0.00    +0.000 OA
ATOM     22  C   UNL     1     113.432 130.959 137.198  0.00  0.00    +0.000 C 
ENDBRANCH   7  21
TORSDOF 3
ENDMDL
