MODEL 1
REMARK VINA RESULT:      -9.6      0.000      0.000
REMARK  Name = 44260019
REMARK  6 active torsions:
REMARK  status: ('A' for Active; 'I' for Inactive)
REMARK    1  A    between atoms: S_1  and  O_11
REMARK    2  A    between atoms: O_3  and  C_22
REMARK    3  A    between atoms: O_3  and  C_24
REMARK    4  A    between atoms: O_11  and  C_32
REMARK    5  A    between atoms: C_21  and  C_23
REMARK    6  A    between atoms: C_31  and  C_33
REMARK                            x       y       z     vdW  Elec       q    Type
REMARK                         _______ _______ _______ _____ _____    ______ ____
ROOT
ATOM      1  O   UNL     1     110.154 130.656 136.079  0.00  0.00    +0.000 OA
ATOM      2  O   UNL     1     112.317 128.748 136.483  0.00  0.00    +0.000 OA
ATOM      3  O   UNL     1     112.266 131.271 137.952  0.00  0.00    +0.000 OA
ATOM      4  O   UNL     1     111.179 132.192 137.727  0.00  0.00    +0.000 OA
ATOM      5  C   UNL     1     111.225 129.693 136.268  0.00  0.00    +0.000 A 
ATOM      6  C   UNL     1     110.857 130.447 136.456  0.00  0.00    +0.000 A 
ATOM      7  C   UNL     1     111.958 129.470 136.657  0.00  0.00    +0.000 A 
ATOM      8  C   UNL     1     111.199 130.958 137.005  0.00  0.00    +0.000 A 
ATOM      9  C   UNL     1     111.931 130.753 137.404  0.00  0.00    +0.000 A 
ATOM     10  C   UNL     1     112.313 130.004 137.229  0.00  0.00    +0.000 A 
ATOM     11  C   UNL     1     110.837 131.680 137.178  0.00  0.00    +0.000 A 
ATOM     12  C   UNL     1     109.792 131.377 136.251  0.00  0.00    +0.000 A 
ATOM     13  C   UNL     1     110.134 131.889 136.801  0.00  0.00    +0.000 A 
ENDROOT
BRANCH  12  16
ATOM     14  O   UNL     1     106.940 131.268 136.095  0.00  0.00    +0.000 OA
ATOM     15  O   UNL     1     106.979 132.211 134.742  0.00  0.00    +0.000 OA
ATOM     16  C   UNL     1     109.088 131.585 135.874  0.00  0.00    +0.000 A 
ATOM     17  C   UNL     1     108.366 131.322 136.173  0.00  0.00    +0.000 A 
ATOM     18  C   UNL     1     109.108 132.058 135.197  0.00  0.00    +0.000 A 
ATOM     19  C   UNL     1     107.663 131.531 135.796  0.00  0.00    +0.000 A 
ATOM     20  C   UNL     1     108.405 132.266 134.820  0.00  0.00    +0.000 A 
ATOM     21  C   UNL     1     107.682 132.003 135.119  0.00  0.00    +0.000 A 
ENDBRANCH  12  16
BRANCH   5  22
ATOM     22  O   UNL     1     110.876 129.187 135.717  0.00  0.00    +0.000 OA
BRANCH  22  31
ATOM     23  O   UNL     1     110.276 128.444 136.780  0.00  0.00    +0.000 OA
ATOM     24  O   UNL     1     109.198 126.951 135.127  0.00  0.00    +0.000 OA
ATOM     25  O   UNL     1     108.957 126.706 136.740  0.00  0.00    +0.000 OA
ATOM     26  O   UNL     1     110.157 128.192 134.615  0.00  0.00    +0.000 OA
ATOM     27  C   UNL     1     109.557 127.448 135.678  0.00  0.00    +0.000 C 
ATOM     28  C   UNL     1     109.437 127.325 136.484  0.00  0.00    +0.000 C 
ATOM     29  C   UNL     1     110.037 128.069 135.421  0.00  0.00    +0.000 C 
ATOM     30  C   UNL     1     109.797 127.824 137.036  0.00  0.00    +0.000 C 
ATOM     31  C   UNL     1     110.397 128.567 135.973  0.00  0.00    +0.000 C 
BRANCH  30  33
ATOM     32  O   UNL     1     109.257 128.255 138.287  0.00  0.00    +0.000 OA
ATOM     33  C   UNL     1     109.677 127.701 137.842  0.00  0.00    +0.000 C 
ENDBRANCH  30  33
ENDBRANCH  22  31
ENDBRANCH   5  22
BRANCH  13  34
ATOM     34  O   UNL     1     109.771 132.610 136.973  0.00  0.00    +0.000 OA
BRANCH  34  35
ATOM     35  S   UNL     1     109.993 133.032 137.646  0.00  0.00    +0.000 S 
ATOM     36  O   UNL     1     110.214 133.453 138.321  0.00  0.00    +0.000 OA
ATOM     37  O   UNL     1     109.492 132.563 138.105  0.00  0.00    +0.000 OA
ATOM     38  O   UNL     1     110.494 133.501 137.189  0.00  0.00    +0.000 OA
ENDBRANCH  34  35
ENDBRANCH  13  34
TORSDOF 6
ENDMDL
MODEL 2
REMARK VINA RESULT:      -9.5      1.433      3.425
REMARK  Name = 44260019
REMARK  6 active torsions:
REMARK  status: ('A' for Active; 'I' for Inactive)
REMARK    1  A    between atoms: S_1  and  O_11
REMARK    2  A    between atoms: O_3  and  C_22
REMARK    3  A    between atoms: O_3  and  C_24
REMARK    4  A    between atoms: O_11  and  C_32
REMARK    5  A    between atoms: C_21  and  C_23
REMARK    6  A    between atoms: C_31  and  C_33
REMARK                            x       y       z     vdW  Elec       q    Type
REMARK                         _______ _______ _______ _____ _____    ______ ____
ROOT
ATOM      1  O   UNL     1     109.979 130.288 137.046  0.00  0.00    +0.000 OA
ATOM      2  O   UNL     1     110.379 127.404 137.112  0.00  0.00    +0.000 OA
ATOM      3  O   UNL     1     108.096 128.557 135.702  0.00  0.00    +0.000 OA
ATOM      4  O   UNL     1     107.930 129.990 135.690  0.00  0.00    +0.000 OA
ATOM      5  C   UNL     1     110.194 128.852 137.089  0.00  0.00    +0.000 A 
ATOM      6  C   UNL     1     109.732 129.530 136.833  0.00  0.00    +0.000 A 
ATOM      7  C   UNL     1     109.941 128.061 136.871  0.00  0.00    +0.000 A 
ATOM      8  C   UNL     1     109.049 129.431 136.382  0.00  0.00    +0.000 A 
ATOM      9  C   UNL     1     108.781 128.647 136.154  0.00  0.00    +0.000 A 
ATOM     10  C   UNL     1     109.230 127.957 136.401  0.00  0.00    +0.000 A 
ATOM     11  C   UNL     1     108.613 130.090 136.142  0.00  0.00    +0.000 A 
ATOM     12  C   UNL     1     109.544 130.947 136.806  0.00  0.00    +0.000 A 
ATOM     13  C   UNL     1     108.861 130.847 136.355  0.00  0.00    +0.000 A 
ENDROOT
BRANCH  12  16
ATOM     14  O   UNL     1     109.795 133.010 138.767  0.00  0.00    +0.000 OA
ATOM     15  O   UNL     1     110.536 133.977 137.655  0.00  0.00    +0.000 OA
ATOM     16  C   UNL     1     109.792 131.704 137.019  0.00  0.00    +0.000 A 
ATOM     17  C   UNL     1     109.669 131.979 137.787  0.00  0.00    +0.000 A 
ATOM     18  C   UNL     1     110.163 132.188 136.462  0.00  0.00    +0.000 A 
ATOM     19  C   UNL     1     109.917 132.736 137.999  0.00  0.00    +0.000 A 
ATOM     20  C   UNL     1     110.411 132.945 136.674  0.00  0.00    +0.000 A 
ATOM     21  C   UNL     1     110.288 133.220 137.442  0.00  0.00    +0.000 A 
ENDBRANCH  12  16
BRANCH   5  22
ATOM     22  O   UNL     1     110.876 128.961 137.541  0.00  0.00    +0.000 OA
BRANCH  22  31
ATOM     23  O   UNL     1     111.673 128.886 136.357  0.00  0.00    +0.000 OA
ATOM     24  O   UNL     1     113.716 129.240 137.708  0.00  0.00    +0.000 OA
ATOM     25  O   UNL     1     113.830 129.047 136.074  0.00  0.00    +0.000 OA
ATOM     26  O   UNL     1     112.238 129.197 138.442  0.00  0.00    +0.000 OA
ATOM     27  C   UNL     1     113.035 129.122 137.257  0.00  0.00    +0.000 C 
ATOM     28  C   UNL     1     113.092 129.025 136.441  0.00  0.00    +0.000 C 
ATOM     29  C   UNL     1     112.296 129.101 137.625  0.00  0.00    +0.000 C 
ATOM     30  C   UNL     1     112.411 128.907 135.990  0.00  0.00    +0.000 C 
ATOM     31  C   UNL     1     111.614 128.982 137.174  0.00  0.00    +0.000 C 
BRANCH  30  33
ATOM     32  O   UNL     1     112.203 129.406 134.667  0.00  0.00    +0.000 OA
ATOM     33  C   UNL     1     112.468 128.811 135.173  0.00  0.00    +0.000 C 
ENDBRANCH  30  33
ENDBRANCH  22  31
ENDBRANCH   5  22
BRANCH  13  34
ATOM     34  O   UNL     1     108.425 131.506 136.115  0.00  0.00    +0.000 OA
BRANCH  34  35
ATOM     35  S   UNL     1     107.619 131.431 135.955  0.00  0.00    +0.000 S 
ATOM     36  O   UNL     1     106.813 131.356 135.797  0.00  0.00    +0.000 OA
ATOM     37  O   UNL     1     107.462 131.394 136.765  0.00  0.00    +0.000 OA
ATOM     38  O   UNL     1     107.775 131.468 135.146  0.00  0.00    +0.000 OA
ENDBRANCH  34  35
ENDBRANCH  13  34
TORSDOF 6
ENDMDL
MODEL 3
REMARK VINA RESULT:      -9.4      2.845      4.851
REMARK  Name = 44260019
REMARK  6 active torsions:
REMARK  status: ('A' for Active; 'I' for Inactive)
REMARK    1  A    between atoms: S_1  and  O_11
REMARK    2  A    between atoms: O_3  and  C_22
REMARK    3  A    between atoms: O_3  and  C_24
REMARK    4  A    between atoms: O_11  and  C_32
REMARK    5  A    between atoms: C_21  and  C_23
REMARK    6  A    between atoms: C_31  and  C_33
REMARK                            x       y       z     vdW  Elec       q    Type
REMARK                         _______ _______ _______ _____ _____    ______ ____
ROOT
ATOM      1  O   UNL     1     111.326 127.334 137.209  0.00  0.00    +0.000 OA
ATOM      2  O   UNL     1     111.120 125.414 139.388  0.00  0.00    +0.000 OA
ATOM      3  O   UNL     1     108.719 126.501 138.132  0.00  0.00    +0.000 OA
ATOM      4  O   UNL     1     108.859 127.451 137.055  0.00  0.00    +0.000 OA
ATOM      5  C   UNL     1     111.242 126.376 138.297  0.00  0.00    +0.000 A 
ATOM      6  C   UNL     1     110.860 126.883 137.717  0.00  0.00    +0.000 A 
ATOM      7  C   UNL     1     110.761 125.903 138.829  0.00  0.00    +0.000 A 
ATOM      8  C   UNL     1     110.038 126.921 137.667  0.00  0.00    +0.000 A 
ATOM      9  C   UNL     1     109.541 126.456 138.191  0.00  0.00    +0.000 A 
ATOM     10  C   UNL     1     109.905 125.944 138.776  0.00  0.00    +0.000 A 
ATOM     11  C   UNL     1     109.681 127.412 137.106  0.00  0.00    +0.000 A 
ATOM     12  C   UNL     1     110.971 127.825 136.648  0.00  0.00    +0.000 A 
ATOM     13  C   UNL     1     110.148 127.863 136.598  0.00  0.00    +0.000 A 
ENDROOT
BRANCH  12  16
ATOM     14  O   UNL     1     112.421 130.224 136.093  0.00  0.00    +0.000 OA
ATOM     15  O   UNL     1     112.839 129.629 134.613  0.00  0.00    +0.000 OA
ATOM     16  C   UNL     1     111.438 128.276 136.140  0.00  0.00    +0.000 A 
ATOM     17  C   UNL     1     111.696 129.025 136.371  0.00  0.00    +0.000 A 
ATOM     18  C   UNL     1     111.647 127.978 135.399  0.00  0.00    +0.000 A 
ATOM     19  C   UNL     1     112.163 129.475 135.862  0.00  0.00    +0.000 A 
ATOM     20  C   UNL     1     112.114 128.429 134.890  0.00  0.00    +0.000 A 
ATOM     21  C   UNL     1     112.372 129.177 135.121  0.00  0.00    +0.000 A 
ENDBRANCH  12  16
BRANCH   5  22
ATOM     22  O   UNL     1     112.066 126.343 138.341  0.00  0.00    +0.000 OA
BRANCH  22  31
ATOM     23  O   UNL     1     112.064 125.177 137.515  0.00  0.00    +0.000 OA
ATOM     24  O   UNL     1     114.534 125.082 137.643  0.00  0.00    +0.000 OA
ATOM     25  O   UNL     1     113.708 123.948 136.775  0.00  0.00    +0.000 OA
ATOM     26  O   UNL     1     113.712 126.280 138.426  0.00  0.00    +0.000 OA
ATOM     27  C   UNL     1     113.710 125.114 137.600  0.00  0.00    +0.000 C 
ATOM     28  C   UNL     1     113.298 124.547 137.166  0.00  0.00    +0.000 C 
ATOM     29  C   UNL     1     113.300 125.713 137.992  0.00  0.00    +0.000 C 
ATOM     30  C   UNL     1     112.474 124.578 137.123  0.00  0.00    +0.000 C 
ATOM     31  C   UNL     1     112.476 125.745 137.949  0.00  0.00    +0.000 C 
BRANCH  30  33
ATOM     32  O   UNL     1     111.617 124.237 136.032  0.00  0.00    +0.000 OA
ATOM     33  C   UNL     1     112.062 124.012 136.690  0.00  0.00    +0.000 C 
ENDBRANCH  30  33
ENDBRANCH  22  31
ENDBRANCH   5  22
BRANCH  13  34
ATOM     34  O   UNL     1     109.793 128.354 136.037  0.00  0.00    +0.000 OA
BRANCH  34  35
ATOM     35  S   UNL     1     108.972 128.355 135.952  0.00  0.00    +0.000 S 
ATOM     36  O   UNL     1     108.151 128.356 135.867  0.00  0.00    +0.000 OA
ATOM     37  O   UNL     1     109.028 127.746 135.399  0.00  0.00    +0.000 OA
ATOM     38  O   UNL     1     108.915 128.965 136.505  0.00  0.00    +0.000 OA
ENDBRANCH  34  35
ENDBRANCH  13  34
TORSDOF 6
ENDMDL
MODEL 4
REMARK VINA RESULT:      -9.4      4.286      6.899
REMARK  Name = 44260019
REMARK  6 active torsions:
REMARK  status: ('A' for Active; 'I' for Inactive)
REMARK    1  A    between atoms: S_1  and  O_11
REMARK    2  A    between atoms: O_3  and  C_22
REMARK    3  A    between atoms: O_3  and  C_24
REMARK    4  A    between atoms: O_11  and  C_32
REMARK    5  A    between atoms: C_21  and  C_23
REMARK    6  A    between atoms: C_31  and  C_33
REMARK                            x       y       z     vdW  Elec       q    Type
REMARK                         _______ _______ _______ _____ _____    ______ ____
ROOT
ATOM      1  O   UNL     1     112.744 125.984 138.419  0.00  0.00    +0.000 OA
ATOM      2  O   UNL     1     111.357 126.844 140.830  0.00  0.00    +0.000 OA
ATOM      3  O   UNL     1     109.858 125.880 138.517  0.00  0.00    +0.000 OA
ATOM      4  O   UNL     1     110.579 125.462 137.339  0.00  0.00    +0.000 OA
ATOM      5  C   UNL     1     112.069 126.417 139.629  0.00  0.00    +0.000 A 
ATOM      6  C   UNL     1     112.038 126.107 138.828  0.00  0.00    +0.000 A 
ATOM      7  C   UNL     1     111.337 126.547 140.060  0.00  0.00    +0.000 A 
ATOM      8  C   UNL     1     111.317 125.933 138.469  0.00  0.00    +0.000 A 
ATOM      9  C   UNL     1     110.575 126.057 138.884  0.00  0.00    +0.000 A 
ATOM     10  C   UNL     1     110.586 126.366 139.686  0.00  0.00    +0.000 A 
ATOM     11  C   UNL     1     111.301 125.636 137.698  0.00  0.00    +0.000 A 
ATOM     12  C   UNL     1     112.728 125.687 137.649  0.00  0.00    +0.000 A 
ATOM     13  C   UNL     1     112.006 125.513 137.289  0.00  0.00    +0.000 A 
ENDROOT
BRANCH  12  16
ATOM     14  O   UNL     1     114.809 126.665 135.953  0.00  0.00    +0.000 OA
ATOM     15  O   UNL     1     115.551 125.193 136.013  0.00  0.00    +0.000 OA
ATOM     16  C   UNL     1     113.433 125.564 137.240  0.00  0.00    +0.000 A 
ATOM     17  C   UNL     1     113.769 126.176 136.800  0.00  0.00    +0.000 A 
ATOM     18  C   UNL     1     113.804 124.826 137.270  0.00  0.00    +0.000 A 
ATOM     19  C   UNL     1     114.474 126.052 136.392  0.00  0.00    +0.000 A 
ATOM     20  C   UNL     1     114.510 124.703 136.861  0.00  0.00    +0.000 A 
ATOM     21  C   UNL     1     114.845 125.316 136.422  0.00  0.00    +0.000 A 
ENDBRANCH  12  16
BRANCH   5  22
ATOM     22  O   UNL     1     112.795 126.588 139.981  0.00  0.00    +0.000 OA
BRANCH  22  31
ATOM     23  O   UNL     1     112.669 127.956 139.589  0.00  0.00    +0.000 OA
ATOM     24  O   UNL     1     114.701 128.515 140.888  0.00  0.00    +0.000 OA
ATOM     25  O   UNL     1     113.897 129.696 140.063  0.00  0.00    +0.000 OA
ATOM     26  O   UNL     1     114.149 126.961 140.847  0.00  0.00    +0.000 OA
ATOM     27  C   UNL     1     114.023 128.329 140.455  0.00  0.00    +0.000 C 
ATOM     28  C   UNL     1     113.622 128.920 140.043  0.00  0.00    +0.000 C 
ATOM     29  C   UNL     1     113.748 127.551 140.435  0.00  0.00    +0.000 C 
ATOM     30  C   UNL     1     112.944 128.733 139.609  0.00  0.00    +0.000 C 
ATOM     31  C   UNL     1     113.070 127.365 140.001  0.00  0.00    +0.000 C 
BRANCH  30  33
ATOM     32  O   UNL     1     112.528 129.315 138.372  0.00  0.00    +0.000 OA
ATOM     33  C   UNL     1     112.543 129.324 139.197  0.00  0.00    +0.000 C 
ENDBRANCH  30  33
ENDBRANCH  22  31
ENDBRANCH   5  22
BRANCH  13  34
ATOM     34  O   UNL     1     111.990 125.216 136.519  0.00  0.00    +0.000 OA
BRANCH  34  35
ATOM     35  S   UNL     1     111.278 125.186 136.104  0.00  0.00    +0.000 S 
ATOM     36  O   UNL     1     110.566 125.157 135.688  0.00  0.00    +0.000 OA
ATOM     37  O   UNL     1     111.363 125.981 135.901  0.00  0.00    +0.000 OA
ATOM     38  O   UNL     1     111.192 124.390 136.306  0.00  0.00    +0.000 OA
ENDBRANCH  34  35
ENDBRANCH  13  34
TORSDOF 6
ENDMDL
MODEL 5
REMARK VINA RESULT:      -9.3      2.709      6.009
REMARK  Name = 44260019
REMARK  6 active torsions:
REMARK  status: ('A' for Active; 'I' for Inactive)
REMARK    1  A    between atoms: S_1  and  O_11
REMARK    2  A    between atoms: O_3  and  C_22
REMARK    3  A    between atoms: O_3  and  C_24
REMARK    4  A    between atoms: O_11  and  C_32
REMARK    5  A    between atoms: C_21  and  C_23
REMARK    6  A    between atoms: C_31  and  C_33
REMARK                            x       y       z     vdW  Elec       q    Type
REMARK                         _______ _______ _______ _____ _____    ______ ____
ROOT
ATOM      1  O   UNL     1     110.681 126.945 137.428  0.00  0.00    +0.000 OA
ATOM      2  O   UNL     1     108.367 127.864 135.917  0.00  0.00    +0.000 OA
ATOM      3  O   UNL     1     109.826 125.472 135.094  0.00  0.00    +0.000 OA
ATOM      4  O   UNL     1     110.968 125.046 135.866  0.00  0.00    +0.000 OA
ATOM      5  C   UNL     1     109.525 127.417 136.687  0.00  0.00    +0.000 A 
ATOM      6  C   UNL     1     110.162 126.850 136.794  0.00  0.00    +0.000 A 
ATOM      7  C   UNL     1     108.982 127.324 136.028  0.00  0.00    +0.000 A 
ATOM      8  C   UNL     1     110.257 126.218 136.274  0.00  0.00    +0.000 A 
ATOM      9  C   UNL     1     109.723 126.108 135.610  0.00  0.00    +0.000 A 
ATOM     10  C   UNL     1     109.081 126.665 135.486  0.00  0.00    +0.000 A 
ATOM     11  C   UNL     1     110.873 125.679 136.387  0.00  0.00    +0.000 A 
ATOM     12  C   UNL     1     111.297 126.407 137.542  0.00  0.00    +0.000 A 
ATOM     13  C   UNL     1     111.392 125.774 137.021  0.00  0.00    +0.000 A 
ENDROOT
BRANCH  12  16
ATOM     14  O   UNL     1     111.892 126.107 140.320  0.00  0.00    +0.000 OA
ATOM     15  O   UNL     1     113.375 126.788 140.076  0.00  0.00    +0.000 OA
ATOM     16  C   UNL     1     111.816 126.502 138.175  0.00  0.00    +0.000 A 
ATOM     17  C   UNL     1     111.594 126.257 138.932  0.00  0.00    +0.000 A 
ATOM     18  C   UNL     1     112.558 126.843 138.053  0.00  0.00    +0.000 A 
ATOM     19  C   UNL     1     112.114 126.352 139.564  0.00  0.00    +0.000 A 
ATOM     20  C   UNL     1     113.077 126.938 138.687  0.00  0.00    +0.000 A 
ATOM     21  C   UNL     1     112.856 126.693 139.443  0.00  0.00    +0.000 A 
ENDBRANCH  12  16
BRANCH   5  22
ATOM     22  O   UNL     1     109.438 128.047 137.212  0.00  0.00    +0.000 OA
BRANCH  22  31
ATOM     23  O   UNL     1     110.182 128.897 136.337  0.00  0.00    +0.000 OA
ATOM     24  O   UNL     1     109.562 130.859 137.712  0.00  0.00    +0.000 OA
ATOM     25  O   UNL     1     110.513 131.053 136.379  0.00  0.00    +0.000 OA
ATOM     26  O   UNL     1     109.024 129.355 138.129  0.00  0.00    +0.000 OA
ATOM     27  C   UNL     1     109.769 130.205 137.254  0.00  0.00    +0.000 C 
ATOM     28  C   UNL     1     110.244 130.302 136.587  0.00  0.00    +0.000 C 
ATOM     29  C   UNL     1     109.499 129.453 137.463  0.00  0.00    +0.000 C 
ATOM     30  C   UNL     1     110.451 129.648 136.128  0.00  0.00    +0.000 C 
ATOM     31  C   UNL     1     109.706 128.798 137.004  0.00  0.00    +0.000 C 
BRANCH  30  33
ATOM     32  O   UNL     1     111.679 129.408 135.438  0.00  0.00    +0.000 OA
ATOM     33  C   UNL     1     110.927 129.745 135.462  0.00  0.00    +0.000 C 
ENDBRANCH  30  33
ENDBRANCH  22  31
ENDBRANCH   5  22
BRANCH  13  34
ATOM     34  O   UNL     1     112.007 125.236 137.135  0.00  0.00    +0.000 OA
BRANCH  34  35
ATOM     35  S   UNL     1     111.964 124.483 136.799  0.00  0.00    +0.000 S 
ATOM     36  O   UNL     1     111.921 123.731 136.462  0.00  0.00    +0.000 OA
ATOM     37  O   UNL     1     112.487 124.718 136.206  0.00  0.00    +0.000 OA
ATOM     38  O   UNL     1     111.441 124.248 137.392  0.00  0.00    +0.000 OA
ENDBRANCH  34  35
ENDBRANCH  13  34
TORSDOF 6
ENDMDL
MODEL 6
REMARK VINA RESULT:      -9.3      7.097      8.890
REMARK  Name = 44260019
REMARK  6 active torsions:
REMARK  status: ('A' for Active; 'I' for Inactive)
REMARK    1  A    between atoms: S_1  and  O_11
REMARK    2  A    between atoms: O_3  and  C_22
REMARK    3  A    between atoms: O_3  and  C_24
REMARK    4  A    between atoms: O_11  and  C_32
REMARK    5  A    between atoms: C_21  and  C_23
REMARK    6  A    between atoms: C_31  and  C_33
REMARK                            x       y       z     vdW  Elec       q    Type
REMARK                         _______ _______ _______ _____ _____    ______ ____
ROOT
ATOM      1  O   UNL     1     103.552 130.225 142.177  0.00  0.00    +0.000 OA
ATOM      2  O   UNL     1     105.637 128.530 143.299  0.00  0.00    +0.000 OA
ATOM      3  O   UNL     1     104.220 127.735 140.873  0.00  0.00    +0.000 OA
ATOM      4  O   UNL     1     103.193 128.600 140.345  0.00  0.00    +0.000 OA
ATOM      5  C   UNL     1     104.594 129.392 142.751  0.00  0.00    +0.000 A 
ATOM      6  C   UNL     1     104.002 129.535 142.143  0.00  0.00    +0.000 A 
ATOM      7  C   UNL     1     105.066 128.675 142.721  0.00  0.00    +0.000 A 
ATOM      8  C   UNL     1     103.883 128.994 141.533  0.00  0.00    +0.000 A 
ATOM      9  C   UNL     1     104.346 128.271 141.487  0.00  0.00    +0.000 A 
ATOM     10  C   UNL     1     104.942 128.111 142.085  0.00  0.00    +0.000 A 
ATOM     11  C   UNL     1     103.312 129.142 140.955  0.00  0.00    +0.000 A 
ATOM     12  C   UNL     1     102.980 130.374 141.600  0.00  0.00    +0.000 A 
ATOM     13  C   UNL     1     102.861 129.832 140.990  0.00  0.00    +0.000 A 
ENDROOT
BRANCH  12  16
ATOM     14  O   UNL     1     102.686 133.167 141.075  0.00  0.00    +0.000 OA
ATOM     15  O   UNL     1     101.176 133.133 141.737  0.00  0.00    +0.000 OA
ATOM     16  C   UNL     1     102.530 131.063 141.634  0.00  0.00    +0.000 A 
ATOM     17  C   UNL     1     102.834 131.771 141.337  0.00  0.00    +0.000 A 
ATOM     18  C   UNL     1     101.774 131.046 141.966  0.00  0.00    +0.000 A 
ATOM     19  C   UNL     1     102.383 132.460 141.372  0.00  0.00    +0.000 A 
ATOM     20  C   UNL     1     101.323 131.736 142.000  0.00  0.00    +0.000 A 
ATOM     21  C   UNL     1     101.627 132.443 141.703  0.00  0.00    +0.000 A 
ENDBRANCH  12  16
BRANCH   5  22
ATOM     22  O   UNL     1     104.707 129.939 143.358  0.00  0.00    +0.000 OA
BRANCH  22  31
ATOM     23  O   UNL     1     105.789 130.523 142.631  0.00  0.00    +0.000 OA
ATOM     24  O   UNL     1     106.182 132.110 144.490  0.00  0.00    +0.000 OA
ATOM     25  O   UNL     1     107.133 132.165 143.144  0.00  0.00    +0.000 OA
ATOM     26  O   UNL     1     104.968 130.997 144.597  0.00  0.00    +0.000 OA
ATOM     27  C   UNL     1     106.051 131.581 143.870  0.00  0.00    +0.000 C 
ATOM     28  C   UNL     1     106.527 131.609 143.198  0.00  0.00    +0.000 C 
ATOM     29  C   UNL     1     105.444 131.025 143.924  0.00  0.00    +0.000 C 
ATOM     30  C   UNL     1     106.396 131.079 142.577  0.00  0.00    +0.000 C 
ATOM     31  C   UNL     1     105.313 130.495 143.304  0.00  0.00    +0.000 C 
BRANCH  30  33
ATOM     32  O   UNL     1     106.549 131.333 141.179  0.00  0.00    +0.000 OA
ATOM     33  C   UNL     1     106.871 131.107 141.904  0.00  0.00    +0.000 C 
ENDBRANCH  30  33
ENDBRANCH  22  31
ENDBRANCH   5  22
BRANCH  13  34
ATOM     34  O   UNL     1     102.290 129.981 140.412  0.00  0.00    +0.000 OA
BRANCH  34  35
ATOM     35  S   UNL     1     102.355 129.628 139.669  0.00  0.00    +0.000 S 
ATOM     36  O   UNL     1     102.420 129.277 138.925  0.00  0.00    +0.000 OA
ATOM     37  O   UNL     1     102.935 130.176 139.460  0.00  0.00    +0.000 OA
ATOM     38  O   UNL     1     101.774 129.080 139.877  0.00  0.00    +0.000 OA
ENDBRANCH  34  35
ENDBRANCH  13  34
TORSDOF 6
ENDMDL
MODEL 7
REMARK VINA RESULT:      -9.3      2.867      6.109
REMARK  Name = 44260019
REMARK  6 active torsions:
REMARK  status: ('A' for Active; 'I' for Inactive)
REMARK    1  A    between atoms: S_1  and  O_11
REMARK    2  A    between atoms: O_3  and  C_22
REMARK    3  A    between atoms: O_3  and  C_24
REMARK    4  A    between atoms: O_11  and  C_32
REMARK    5  A    between atoms: C_21  and  C_23
REMARK    6  A    between atoms: C_31  and  C_33
REMARK                            x       y       z     vdW  Elec       q    Type
REMARK                         _______ _______ _______ _____ _____    ______ ____
ROOT
ATOM      1  O   UNL     1     112.752 127.722 136.754  0.00  0.00    +0.000 OA
ATOM      2  O   UNL     1     111.803 130.442 136.327  0.00  0.00    +0.000 OA
ATOM      3  O   UNL     1     110.126 128.154 135.631  0.00  0.00    +0.000 OA
ATOM      4  O   UNL     1     110.629 126.821 135.857  0.00  0.00    +0.000 OA
ATOM      5  C   UNL     1     112.295 129.085 136.548  0.00  0.00    +0.000 A 
ATOM      6  C   UNL     1     112.161 128.237 136.498  0.00  0.00    +0.000 A 
ATOM      7  C   UNL     1     111.683 129.626 136.283  0.00  0.00    +0.000 A 
ATOM      8  C   UNL     1     111.454 127.937 136.199  0.00  0.00    +0.000 A 
ATOM      9  C   UNL     1     110.830 128.463 135.929  0.00  0.00    +0.000 A 
ATOM     10  C   UNL     1     110.946 129.313 135.971  0.00  0.00    +0.000 A 
ATOM     11  C   UNL     1     111.337 127.121 136.156  0.00  0.00    +0.000 A 
ATOM     12  C   UNL     1     112.636 126.906 136.711  0.00  0.00    +0.000 A 
ATOM     13  C   UNL     1     111.928 126.606 136.412  0.00  0.00    +0.000 A 
ENDROOT
BRANCH  12  16
ATOM     14  O   UNL     1     114.990 125.376 136.176  0.00  0.00    +0.000 OA
ATOM     15  O   UNL     1     115.001 124.846 137.738  0.00  0.00    +0.000 OA
ATOM     16  C   UNL     1     113.227 126.391 136.967  0.00  0.00    +0.000 A 
ATOM     17  C   UNL     1     113.813 126.141 136.443  0.00  0.00    +0.000 A 
ATOM     18  C   UNL     1     113.232 126.126 137.750  0.00  0.00    +0.000 A 
ATOM     19  C   UNL     1     114.403 125.627 136.700  0.00  0.00    +0.000 A 
ATOM     20  C   UNL     1     113.823 125.611 138.006  0.00  0.00    +0.000 A 
ATOM     21  C   UNL     1     114.409 125.361 137.482  0.00  0.00    +0.000 A 
ENDBRANCH  12  16
BRANCH   5  22
ATOM     22  O   UNL     1     113.006 129.376 136.848  0.00  0.00    +0.000 OA
BRANCH  22  31
ATOM     23  O   UNL     1     112.439 129.499 138.154  0.00  0.00    +0.000 OA
ATOM     24  O   UNL     1     114.323 130.952 138.836  0.00  0.00    +0.000 OA
ATOM     25  O   UNL     1     113.128 130.591 139.913  0.00  0.00    +0.000 OA
ATOM     26  O   UNL     1     114.262 130.344 137.303  0.00  0.00    +0.000 OA
ATOM     27  C   UNL     1     113.695 130.468 138.609  0.00  0.00    +0.000 C 
ATOM     28  C   UNL     1     113.098 130.287 139.147  0.00  0.00    +0.000 C 
ATOM     29  C   UNL     1     113.665 130.164 137.842  0.00  0.00    +0.000 C 
ATOM     30  C   UNL     1     112.469 129.803 138.920  0.00  0.00    +0.000 C 
ATOM     31  C   UNL     1     113.036 129.679 137.614  0.00  0.00    +0.000 C 
BRANCH  30  33
ATOM     32  O   UNL     1     111.758 128.843 139.704  0.00  0.00    +0.000 OA
ATOM     33  C   UNL     1     111.872 129.622 139.459  0.00  0.00    +0.000 C 
ENDBRANCH  30  33
ENDBRANCH  22  31
ENDBRANCH   5  22
BRANCH  13  34
ATOM     34  O   UNL     1     111.811 125.790 136.369  0.00  0.00    +0.000 OA
BRANCH  34  35
ATOM     35  S   UNL     1     111.121 125.490 136.033  0.00  0.00    +0.000 S 
ATOM     36  O   UNL     1     110.430 125.190 135.695  0.00  0.00    +0.000 OA
ATOM     37  O   UNL     1     111.472 125.516 135.287  0.00  0.00    +0.000 OA
ATOM     38  O   UNL     1     110.768 125.463 136.778  0.00  0.00    +0.000 OA
ENDBRANCH  34  35
ENDBRANCH  13  34
TORSDOF 6
ENDMDL
MODEL 8
REMARK VINA RESULT:      -9.2      3.064      6.100
REMARK  Name = 44260019
REMARK  6 active torsions:
REMARK  status: ('A' for Active; 'I' for Inactive)
REMARK    1  A    between atoms: S_1  and  O_11
REMARK    2  A    between atoms: O_3  and  C_22
REMARK    3  A    between atoms: O_3  and  C_24
REMARK    4  A    between atoms: O_11  and  C_32
REMARK    5  A    between atoms: C_21  and  C_23
REMARK    6  A    between atoms: C_31  and  C_33
REMARK                            x       y       z     vdW  Elec       q    Type
REMARK                         _______ _______ _______ _____ _____    ______ ____
ROOT
ATOM      1  O   UNL     1     112.498 127.250 136.855  0.00  0.00    +0.000 OA
ATOM      2  O   UNL     1     111.275 129.677 135.808  0.00  0.00    +0.000 OA
ATOM      3  O   UNL     1     109.953 128.130 137.902  0.00  0.00    +0.000 OA
ATOM      4  O   UNL     1     110.588 126.933 138.397  0.00  0.00    +0.000 OA
ATOM      5  C   UNL     1     111.903 128.463 136.321  0.00  0.00    +0.000 A 
ATOM      6  C   UNL     1     111.876 127.792 136.858  0.00  0.00    +0.000 A 
ATOM      7  C   UNL     1     111.258 129.030 136.320  0.00  0.00    +0.000 A 
ATOM      8  C   UNL     1     111.240 127.687 137.372  0.00  0.00    +0.000 A 
ATOM      9  C   UNL     1     110.586 128.244 137.385  0.00  0.00    +0.000 A 
ATOM     10  C   UNL     1     110.595 128.920 136.855  0.00  0.00    +0.000 A 
ATOM     11  C   UNL     1     111.225 127.038 137.883  0.00  0.00    +0.000 A 
ATOM     12  C   UNL     1     112.484 126.602 137.366  0.00  0.00    +0.000 A 
ATOM     13  C   UNL     1     111.847 126.497 137.879  0.00  0.00    +0.000 A 
ENDROOT
BRANCH  12  16
ATOM     14  O   UNL     1     113.756 124.301 136.247  0.00  0.00    +0.000 OA
ATOM     15  O   UNL     1     114.973 124.437 137.352  0.00  0.00    +0.000 OA
ATOM     16  C   UNL     1     113.106 126.061 137.362  0.00  0.00    +0.000 A 
ATOM     17  C   UNL     1     113.120 125.451 136.806  0.00  0.00    +0.000 A 
ATOM     18  C   UNL     1     113.715 126.129 137.916  0.00  0.00    +0.000 A 
ATOM     19  C   UNL     1     113.742 124.910 136.803  0.00  0.00    +0.000 A 
ATOM     20  C   UNL     1     114.337 125.588 137.912  0.00  0.00    +0.000 A 
ATOM     21  C   UNL     1     114.351 124.978 137.356  0.00  0.00    +0.000 A 
ENDBRANCH  12  16
BRANCH   5  22
ATOM     22  O   UNL     1     112.544 128.561 135.811  0.00  0.00    +0.000 OA
BRANCH  22  31
ATOM     23  O   UNL     1     113.156 129.456 136.741  0.00  0.00    +0.000 OA
ATOM     24  O   UNL     1     114.917 129.975 135.081  0.00  0.00    +0.000 OA
ATOM     25  O   UNL     1     114.943 130.697 136.564  0.00  0.00    +0.000 OA
ATOM     26  O   UNL     1     113.718 128.907 134.704  0.00  0.00    +0.000 OA
ATOM     27  C   UNL     1     114.330 129.802 135.634  0.00  0.00    +0.000 C 
ATOM     28  C   UNL     1     114.343 130.163 136.375  0.00  0.00    +0.000 C 
ATOM     29  C   UNL     1     113.731 129.268 135.445  0.00  0.00    +0.000 C 
ATOM     30  C   UNL     1     113.756 129.990 136.929  0.00  0.00    +0.000 C 
ATOM     31  C   UNL     1     113.143 129.094 135.999  0.00  0.00    +0.000 C 
BRANCH  30  33
ATOM     32  O   UNL     1     113.857 129.893 138.351  0.00  0.00    +0.000 OA
ATOM     33  C   UNL     1     113.769 130.350 137.670  0.00  0.00    +0.000 C 
ENDBRANCH  30  33
ENDBRANCH  22  31
ENDBRANCH   5  22
BRANCH  13  34
ATOM     34  O   UNL     1     111.833 125.848 138.390  0.00  0.00    +0.000 OA
BRANCH  34  35
ATOM     35  S   UNL     1     111.125 125.622 138.749  0.00  0.00    +0.000 S 
ATOM     36  O   UNL     1     110.417 125.396 139.108  0.00  0.00    +0.000 OA
ATOM     37  O   UNL     1     111.363 125.987 139.449  0.00  0.00    +0.000 OA
ATOM     38  O   UNL     1     110.886 125.257 138.048  0.00  0.00    +0.000 OA
ENDBRANCH  34  35
ENDBRANCH  13  34
TORSDOF 6
ENDMDL
MODEL 9
REMARK VINA RESULT:      -9.1      3.260      5.815
REMARK  Name = 44260019
REMARK  6 active torsions:
REMARK  status: ('A' for Active; 'I' for Inactive)
REMARK    1  A    between atoms: S_1  and  O_11
REMARK    2  A    between atoms: O_3  and  C_22
REMARK    3  A    between atoms: O_3  and  C_24
REMARK    4  A    between atoms: O_11  and  C_32
REMARK    5  A    between atoms: C_21  and  C_23
REMARK    6  A    between atoms: C_31  and  C_33
REMARK                            x       y       z     vdW  Elec       q    Type
REMARK                         _______ _______ _______ _____ _____    ______ ____
ROOT
ATOM      1  O   UNL     1     112.892 127.298 138.681  0.00  0.00    +0.000 OA
ATOM      2  O   UNL     1     112.422 125.808 136.224  0.00  0.00    +0.000 OA
ATOM      3  O   UNL     1     111.042 125.079 138.692  0.00  0.00    +0.000 OA
ATOM      4  O   UNL     1     111.299 125.840 139.890  0.00  0.00    +0.000 OA
ATOM      5  C   UNL     1     112.670 126.567 137.447  0.00  0.00    +0.000 A 
ATOM      6  C   UNL     1     112.508 126.687 138.283  0.00  0.00    +0.000 A 
ATOM      7  C   UNL     1     112.273 125.931 137.026  0.00  0.00    +0.000 A 
ATOM      8  C   UNL     1     111.978 126.201 138.685  0.00  0.00    +0.000 A 
ATOM      9  C   UNL     1     111.571 125.561 138.281  0.00  0.00    +0.000 A 
ATOM     10  C   UNL     1     111.720 125.425 137.446  0.00  0.00    +0.000 A 
ATOM     11  C   UNL     1     111.830 126.326 139.488  0.00  0.00    +0.000 A 
ATOM     12  C   UNL     1     112.745 127.424 139.484  0.00  0.00    +0.000 A 
ATOM     13  C   UNL     1     112.214 126.937 139.886  0.00  0.00    +0.000 A 
ENDROOT
BRANCH  12  16
ATOM     14  O   UNL     1     112.886 130.172 140.256  0.00  0.00    +0.000 OA
ATOM     15  O   UNL     1     114.283 129.869 141.079  0.00  0.00    +0.000 OA
ATOM     16  C   UNL     1     113.129 128.035 139.882  0.00  0.00    +0.000 A 
ATOM     17  C   UNL     1     112.816 128.798 139.870  0.00  0.00    +0.000 A 
ATOM     18  C   UNL     1     113.829 127.883 140.294  0.00  0.00    +0.000 A 
ATOM     19  C   UNL     1     113.200 129.409 140.268  0.00  0.00    +0.000 A 
ATOM     20  C   UNL     1     114.213 128.494 140.693  0.00  0.00    +0.000 A 
ATOM     21  C   UNL     1     113.899 129.257 140.680  0.00  0.00    +0.000 A 
ENDBRANCH  12  16
BRANCH   5  22
ATOM     22  O   UNL     1     113.202 127.058 137.052  0.00  0.00    +0.000 OA
BRANCH  22  31
ATOM     23  O   UNL     1     112.129 127.890 136.607  0.00  0.00    +0.000 OA
ATOM     24  O   UNL     1     113.671 129.046 135.053  0.00  0.00    +0.000 OA
ATOM     25  O   UNL     1     112.085 129.493 135.126  0.00  0.00    +0.000 OA
ATOM     26  O   UNL     1     114.230 127.828 136.016  0.00  0.00    +0.000 OA
ATOM     27  C   UNL     1     113.157 128.661 135.571  0.00  0.00    +0.000 C 
ATOM     28  C   UNL     1     112.364 128.884 135.607  0.00  0.00    +0.000 C 
ATOM     29  C   UNL     1     113.437 128.052 136.052  0.00  0.00    +0.000 C 
ATOM     30  C   UNL     1     111.850 128.499 136.126  0.00  0.00    +0.000 C 
ATOM     31  C   UNL     1     112.923 127.666 136.571  0.00  0.00    +0.000 C 
BRANCH  30  33
ATOM     32  O   UNL     1     110.757 129.071 136.847  0.00  0.00    +0.000 OA
ATOM     33  C   UNL     1     111.057 128.722 136.162  0.00  0.00    +0.000 C 
ENDBRANCH  30  33
ENDBRANCH  22  31
ENDBRANCH   5  22
BRANCH  13  34
ATOM     34  O   UNL     1     112.068 127.063 140.689  0.00  0.00    +0.000 OA
BRANCH  34  35
ATOM     35  S   UNL     1     111.447 126.667 141.061  0.00  0.00    +0.000 S 
ATOM     36  O   UNL     1     110.827 126.269 141.434  0.00  0.00    +0.000 OA
ATOM     37  O   UNL     1     111.975 126.092 141.328  0.00  0.00    +0.000 OA
ATOM     38  O   UNL     1     110.919 127.241 140.794  0.00  0.00    +0.000 OA
ENDBRANCH  34  35
ENDBRANCH  13  34
TORSDOF 6
ENDMDL
MODEL 10
REMARK VINA RESULT:      -9.1      2.909      4.718
REMARK  Name = 44260019
REMARK  6 active torsions:
REMARK  status: ('A' for Active; 'I' for Inactive)
REMARK    1  A    between atoms: S_1  and  O_11
REMARK    2  A    between atoms: O_3  and  C_22
REMARK    3  A    between atoms: O_3  and  C_24
REMARK    4  A    between atoms: O_11  and  C_32
REMARK    5  A    between atoms: C_21  and  C_23
REMARK    6  A    between atoms: C_31  and  C_33
REMARK                            x       y       z     vdW  Elec       q    Type
REMARK                         _______ _______ _______ _____ _____    ______ ____
ROOT
ATOM      1  O   UNL     1     112.860 128.036 137.366  0.00  0.00    +0.000 OA
ATOM      2  O   UNL     1     112.168 126.114 139.441  0.00  0.00    +0.000 OA
ATOM      3  O   UNL     1     110.371 128.325 138.803  0.00  0.00    +0.000 OA
ATOM      4  O   UNL     1     110.746 129.258 137.769  0.00  0.00    +0.000 OA
ATOM      5  C   UNL     1     112.531 127.068 138.397  0.00  0.00    +0.000 A 
ATOM      6  C   UNL     1     112.334 127.771 137.942  0.00  0.00    +0.000 A 
ATOM      7  C   UNL     1     111.987 126.788 139.000  0.00  0.00    +0.000 A 
ATOM      8  C   UNL     1     111.630 128.178 138.077  0.00  0.00    +0.000 A 
ATOM      9  C   UNL     1     111.073 127.911 138.676  0.00  0.00    +0.000 A 
ATOM     10  C   UNL     1     111.253 127.212 139.140  0.00  0.00    +0.000 A 
ATOM     11  C   UNL     1     111.451 128.851 137.634  0.00  0.00    +0.000 A 
ATOM     12  C   UNL     1     112.682 128.709 136.922  0.00  0.00    +0.000 A 
ATOM     13  C   UNL     1     111.977 129.116 137.057  0.00  0.00    +0.000 A 
ENDROOT
BRANCH  12  16
ATOM     14  O   UNL     1     114.978 130.240 136.181  0.00  0.00    +0.000 OA
ATOM     15  O   UNL     1     114.786 129.768 134.612  0.00  0.00    +0.000 OA
ATOM     16  C   UNL     1     113.208 128.974 136.345  0.00  0.00    +0.000 A 
ATOM     17  C   UNL     1     113.830 129.475 136.552  0.00  0.00    +0.000 A 
ATOM     18  C   UNL     1     113.112 128.738 135.560  0.00  0.00    +0.000 A 
ATOM     19  C   UNL     1     114.356 129.739 135.975  0.00  0.00    +0.000 A 
ATOM     20  C   UNL     1     113.638 129.002 134.983  0.00  0.00    +0.000 A 
ATOM     21  C   UNL     1     114.260 129.503 135.189  0.00  0.00    +0.000 A 
ENDBRANCH  12  16
BRANCH   5  22
ATOM     22  O   UNL     1     113.238 126.667 138.256  0.00  0.00    +0.000 OA
BRANCH  22  31
ATOM     23  O   UNL     1     112.561 125.753 137.391  0.00  0.00    +0.000 OA
ATOM     24  O   UNL     1     114.581 124.325 137.320  0.00  0.00    +0.000 OA
ATOM     25  O   UNL     1     113.232 123.888 136.479  0.00  0.00    +0.000 OA
ATOM     26  O   UNL     1     114.585 125.715 138.209  0.00  0.00    +0.000 OA
ATOM     27  C   UNL     1     113.908 124.801 137.344  0.00  0.00    +0.000 C 
ATOM     28  C   UNL     1     113.234 124.582 136.923  0.00  0.00    +0.000 C 
ATOM     29  C   UNL     1     113.910 125.496 137.788  0.00  0.00    +0.000 C 
ATOM     30  C   UNL     1     112.559 125.059 136.947  0.00  0.00    +0.000 C 
ATOM     31  C   UNL     1     113.236 125.973 137.812  0.00  0.00    +0.000 C 
BRANCH  30  33
ATOM     32  O   UNL     1     111.621 125.304 135.897  0.00  0.00    +0.000 OA
ATOM     33  C   UNL     1     111.885 124.840 136.527  0.00  0.00    +0.000 C 
ENDBRANCH  30  33
ENDBRANCH  22  31
ENDBRANCH   5  22
BRANCH  13  34
ATOM     34  O   UNL     1     111.798 129.789 136.614  0.00  0.00    +0.000 OA
BRANCH  34  35
ATOM     35  S   UNL     1     111.200 130.300 136.863  0.00  0.00    +0.000 S 
ATOM     36  O   UNL     1     110.601 130.810 137.111  0.00  0.00    +0.000 OA
ATOM     37  O   UNL     1     110.678 129.947 136.331  0.00  0.00    +0.000 OA
ATOM     38  O   UNL     1     111.722 130.653 137.395  0.00  0.00    +0.000 OA
ENDBRANCH  34  35
ENDBRANCH  13  34
TORSDOF 6
ENDMDL
