MODEL 1
REMARK VINA RESULT:      -7.6      0.000      0.000
REMARK  Name = 13942676
REMARK  7 active torsions:
REMARK  status: ('A' for Active; 'I' for Inactive)
REMARK    1  A    between atoms: O_2  and  C_15
REMARK    2  A    between atoms: O_3  and  C_17
REMARK    3  A    between atoms: O_4  and  C_19
REMARK    4  A    between atoms: O_5  and  C_21
REMARK    5  A    between atoms: O_9  and  C_23
REMARK    6  A    between atoms: O_10  and  C_25
REMARK    7  A    between atoms: C_13  and  C_14
REMARK                            x       y       z     vdW  Elec       q    Type
REMARK                         _______ _______ _______ _____ _____    ______ ____
ROOT
ATOM      1  O   UNL     1     113.389 126.777 136.690  0.00  0.00    +0.000 OA
ATOM      2  O   UNL     1     111.265 124.956 135.946  0.00  0.00    +0.000 OA
ATOM      3  O   UNL     1     111.087 126.370 135.718  0.00  0.00    +0.000 OA
ATOM      4  O   UNL     1     113.668 123.941 137.114  0.00  0.00    +0.000 OA
ATOM      5  C   UNL     1     112.315 125.854 136.314  0.00  0.00    +0.000 A 
ATOM      6  C   UNL     1     113.066 125.984 136.631  0.00  0.00    +0.000 A 
ATOM      7  C   UNL     1     112.924 127.446 136.414  0.00  0.00    +0.000 A 
ATOM      8  C   UNL     1     112.141 127.310 136.083  0.00  0.00    +0.000 A 
ATOM      9  C   UNL     1     111.835 126.509 136.033  0.00  0.00    +0.000 A 
ATOM     10  C   UNL     1     113.517 125.346 136.898  0.00  0.00    +0.000 A 
ATOM     11  C   UNL     1     112.016 125.086 136.263  0.00  0.00    +0.000 A 
ATOM     12  C   UNL     1     112.467 124.449 136.530  0.00  0.00    +0.000 A 
ATOM     13  C   UNL     1     113.218 124.579 136.847  0.00  0.00    +0.000 A 
ENDROOT
BRANCH   7  14
ATOM     14  C   UNL     1     113.226 128.212 136.466  0.00  0.00    +0.000 A 
ATOM     15  C   UNL     1     113.177 128.627 137.177  0.00  0.00    +0.000 A 
ATOM     16  C   UNL     1     113.575 128.563 135.806  0.00  0.00    +0.000 A 
ATOM     17  C   UNL     1     113.877 129.329 135.858  0.00  0.00    +0.000 A 
ATOM     18  C   UNL     1     113.479 129.392 137.229  0.00  0.00    +0.000 A 
ATOM     19  C   UNL     1     113.829 129.744 136.570  0.00  0.00    +0.000 A 
BRANCH  15  20
ATOM     20  O   UNL     1     112.828 128.275 137.837  0.00  0.00    +0.000 OA
ATOM     21  C   UNL     1     112.880 128.639 138.575  0.00  0.00    +0.000 C 
ENDBRANCH  15  20
BRANCH  17  22
ATOM     22  O   UNL     1     114.227 129.681 135.199  0.00  0.00    +0.000 OA
ATOM     23  C   UNL     1     114.676 129.226 134.678  0.00  0.00    +0.000 C 
ENDBRANCH  17  22
BRANCH  19  24
ATOM     24  O   UNL     1     114.130 130.510 136.623  0.00  0.00    +0.000 OA
ATOM     25  C   UNL     1     113.723 131.085 137.051  0.00  0.00    +0.000 C 
ENDBRANCH  19  24
ENDBRANCH   7  14
BRANCH   8  26
ATOM     26  O   UNL     1     111.688 127.946 135.816  0.00  0.00    +0.000 OA
ATOM     27  C   UNL     1     111.081 127.819 135.272  0.00  0.00    +0.000 C 
ENDBRANCH   8  26
BRANCH  10  28
ATOM     28  O   UNL     1     114.267 125.475 137.215  0.00  0.00    +0.000 OA
ATOM     29  C   UNL     1     114.928 125.124 136.869  0.00  0.00    +0.000 C 
ENDBRANCH  10  28
BRANCH  12  30
ATOM     30  O   UNL     1     112.167 123.682 136.479  0.00  0.00    +0.000 OA
ATOM     31  C   UNL     1     111.840 123.323 137.146  0.00  0.00    +0.000 C 
ENDBRANCH  12  30
TORSDOF 7
ENDMDL
MODEL 2
REMARK VINA RESULT:      -7.5      8.174     10.499
REMARK  Name = 13942676
REMARK  7 active torsions:
REMARK  status: ('A' for Active; 'I' for Inactive)
REMARK    1  A    between atoms: O_2  and  C_15
REMARK    2  A    between atoms: O_3  and  C_17
REMARK    3  A    between atoms: O_4  and  C_19
REMARK    4  A    between atoms: O_5  and  C_21
REMARK    5  A    between atoms: O_9  and  C_23
REMARK    6  A    between atoms: O_10  and  C_25
REMARK    7  A    between atoms: C_13  and  C_14
REMARK                            x       y       z     vdW  Elec       q    Type
REMARK                         _______ _______ _______ _____ _____    ______ ____
ROOT
ATOM      1  O   UNL     1     111.610 131.587 145.213  0.00  0.00    +0.000 OA
ATOM      2  O   UNL     1     112.121 132.089 142.408  0.00  0.00    +0.000 OA
ATOM      3  O   UNL     1     112.058 133.207 143.319  0.00  0.00    +0.000 OA
ATOM      4  O   UNL     1     111.750 129.410 143.330  0.00  0.00    +0.000 OA
ATOM      5  C   UNL     1     111.868 131.839 143.793  0.00  0.00    +0.000 A 
ATOM      6  C   UNL     1     111.722 131.308 144.408  0.00  0.00    +0.000 A 
ATOM      7  C   UNL     1     111.650 132.429 145.380  0.00  0.00    +0.000 A 
ATOM      8  C   UNL     1     111.802 132.982 144.739  0.00  0.00    +0.000 A 
ATOM      9  C   UNL     1     111.912 132.684 143.940  0.00  0.00    +0.000 A 
ATOM     10  C   UNL     1     111.683 130.499 144.253  0.00  0.00    +0.000 A 
ATOM     11  C   UNL     1     111.975 131.559 143.023  0.00  0.00    +0.000 A 
ATOM     12  C   UNL     1     111.935 130.750 142.870  0.00  0.00    +0.000 A 
ATOM     13  C   UNL     1     111.789 130.220 143.485  0.00  0.00    +0.000 A 
ENDROOT
BRANCH   7  14
ATOM     14  C   UNL     1     111.543 132.706 146.150  0.00  0.00    +0.000 A 
ATOM     15  C   UNL     1     112.159 132.654 146.696  0.00  0.00    +0.000 A 
ATOM     16  C   UNL     1     110.820 133.035 146.373  0.00  0.00    +0.000 A 
ATOM     17  C   UNL     1     110.713 133.311 147.143  0.00  0.00    +0.000 A 
ATOM     18  C   UNL     1     112.053 132.930 147.465  0.00  0.00    +0.000 A 
ATOM     19  C   UNL     1     111.330 133.259 147.690  0.00  0.00    +0.000 A 
BRANCH  15  20
ATOM     20  O   UNL     1     112.882 132.325 146.472  0.00  0.00    +0.000 OA
ATOM     21  C   UNL     1     113.473 132.204 147.035  0.00  0.00    +0.000 C 
ENDBRANCH  15  20
BRANCH  17  22
ATOM     22  O   UNL     1     109.991 133.640 147.368  0.00  0.00    +0.000 OA
ATOM     23  C   UNL     1     109.290 133.370 147.026  0.00  0.00    +0.000 C 
ENDBRANCH  17  22
BRANCH  19  24
ATOM     24  O   UNL     1     111.224 133.535 148.459  0.00  0.00    +0.000 OA
ATOM     25  C   UNL     1     111.768 133.339 149.047  0.00  0.00    +0.000 C 
ENDBRANCH  19  24
ENDBRANCH   7  14
BRANCH   8  26
ATOM     26  O   UNL     1     111.842 133.792 144.890  0.00  0.00    +0.000 OA
ATOM     27  C   UNL     1     111.849 134.328 144.263  0.00  0.00    +0.000 C 
ENDBRANCH   8  26
BRANCH  10  28
ATOM     28  O   UNL     1     111.537 129.969 144.868  0.00  0.00    +0.000 OA
ATOM     29  C   UNL     1     110.853 129.508 144.863  0.00  0.00    +0.000 C 
ENDBRANCH  10  28
BRANCH  12  30
ATOM     30  O   UNL     1     112.042 130.470 142.100  0.00  0.00    +0.000 OA
ATOM     31  C   UNL     1     112.788 130.224 141.852  0.00  0.00    +0.000 C 
ENDBRANCH  12  30
TORSDOF 7
ENDMDL
MODEL 3
REMARK VINA RESULT:      -7.2      0.942      4.623
REMARK  Name = 13942676
REMARK  7 active torsions:
REMARK  status: ('A' for Active; 'I' for Inactive)
REMARK    1  A    between atoms: O_2  and  C_15
REMARK    2  A    between atoms: O_3  and  C_17
REMARK    3  A    between atoms: O_4  and  C_19
REMARK    4  A    between atoms: O_5  and  C_21
REMARK    5  A    between atoms: O_9  and  C_23
REMARK    6  A    between atoms: O_10  and  C_25
REMARK    7  A    between atoms: C_13  and  C_14
REMARK                            x       y       z     vdW  Elec       q    Type
REMARK                         _______ _______ _______ _____ _____    ______ ____
ROOT
ATOM      1  O   UNL     1     113.004 127.548 136.474  0.00  0.00    +0.000 OA
ATOM      2  O   UNL     1     112.725 129.804 138.265  0.00  0.00    +0.000 OA
ATOM      3  O   UNL     1     112.141 128.538 138.638  0.00  0.00    +0.000 OA
ATOM      4  O   UNL     1     114.140 130.109 135.800  0.00  0.00    +0.000 OA
ATOM      5  C   UNL     1     112.864 128.691 137.378  0.00  0.00    +0.000 A 
ATOM      6  C   UNL     1     113.146 128.371 136.672  0.00  0.00    +0.000 A 
ATOM      7  C   UNL     1     112.562 127.050 137.018  0.00  0.00    +0.000 A 
ATOM      8  C   UNL     1     112.268 127.384 137.754  0.00  0.00    +0.000 A 
ATOM      9  C   UNL     1     112.420 128.210 137.935  0.00  0.00    +0.000 A 
ATOM     10  C   UNL     1     113.572 128.844 136.147  0.00  0.00    +0.000 A 
ATOM     11  C   UNL     1     113.007 129.484 137.559  0.00  0.00    +0.000 A 
ATOM     12  C   UNL     1     113.432 129.956 137.032  0.00  0.00    +0.000 A 
ATOM     13  C   UNL     1     113.715 129.636 136.326  0.00  0.00    +0.000 A 
ENDROOT
BRANCH   7  14
ATOM     14  C   UNL     1     112.420 126.258 136.835  0.00  0.00    +0.000 A 
ATOM     15  C   UNL     1     112.992 125.688 137.005  0.00  0.00    +0.000 A 
ATOM     16  C   UNL     1     111.708 126.037 136.484  0.00  0.00    +0.000 A 
ATOM     17  C   UNL     1     111.566 125.245 136.301  0.00  0.00    +0.000 A 
ATOM     18  C   UNL     1     112.851 124.896 136.823  0.00  0.00    +0.000 A 
ATOM     19  C   UNL     1     112.138 124.673 136.471  0.00  0.00    +0.000 A 
BRANCH  15  20
ATOM     20  O   UNL     1     113.704 125.909 137.356  0.00  0.00    +0.000 OA
ATOM     21  C   UNL     1     114.320 125.364 137.422  0.00  0.00    +0.000 C 
ENDBRANCH  15  20
BRANCH  17  22
ATOM     22  O   UNL     1     110.854 125.023 135.950  0.00  0.00    +0.000 OA
ATOM     23  C   UNL     1     110.489 125.522 135.404  0.00  0.00    +0.000 C 
ENDBRANCH  17  22
BRANCH  19  24
ATOM     24  O   UNL     1     111.997 123.882 136.289  0.00  0.00    +0.000 OA
ATOM     25  C   UNL     1     112.151 123.296 136.849  0.00  0.00    +0.000 C 
ENDBRANCH  19  24
ENDBRANCH   7  14
BRANCH   8  26
ATOM     26  O   UNL     1     111.842 126.914 138.282  0.00  0.00    +0.000 OA
ATOM     27  C   UNL     1     111.322 127.264 138.819  0.00  0.00    +0.000 C 
ENDBRANCH   8  26
BRANCH  10  28
ATOM     28  O   UNL     1     113.854 128.524 135.441  0.00  0.00    +0.000 OA
ATOM     29  C   UNL     1     114.653 128.591 135.247  0.00  0.00    +0.000 C 
ENDBRANCH  10  28
BRANCH  12  30
ATOM     30  O   UNL     1     113.575 130.749 137.212  0.00  0.00    +0.000 OA
ATOM     31  C   UNL     1     113.045 131.330 136.964  0.00  0.00    +0.000 C 
ENDBRANCH  12  30
TORSDOF 7
ENDMDL
MODEL 4
REMARK VINA RESULT:      -7.1     12.054     13.382
REMARK  Name = 13942676
REMARK  7 active torsions:
REMARK  status: ('A' for Active; 'I' for Inactive)
REMARK    1  A    between atoms: O_2  and  C_15
REMARK    2  A    between atoms: O_3  and  C_17
REMARK    3  A    between atoms: O_4  and  C_19
REMARK    4  A    between atoms: O_5  and  C_21
REMARK    5  A    between atoms: O_9  and  C_23
REMARK    6  A    between atoms: O_10  and  C_25
REMARK    7  A    between atoms: C_13  and  C_14
REMARK                            x       y       z     vdW  Elec       q    Type
REMARK                         _______ _______ _______ _____ _____    ______ ____
ROOT
ATOM      1  O   UNL     1     104.606 125.015 147.130  0.00  0.00    +0.000 OA
ATOM      2  O   UNL     1     103.230 122.990 145.586  0.00  0.00    +0.000 OA
ATOM      3  O   UNL     1     104.438 123.576 145.054  0.00  0.00    +0.000 OA
ATOM      4  O   UNL     1     102.190 123.798 148.122  0.00  0.00    +0.000 OA
ATOM      5  C   UNL     1     103.908 123.990 146.350  0.00  0.00    +0.000 A 
ATOM      6  C   UNL     1     103.961 124.458 147.028  0.00  0.00    +0.000 A 
ATOM      7  C   UNL     1     105.206 125.086 146.518  0.00  0.00    +0.000 A 
ATOM      8  C   UNL     1     105.151 124.599 145.812  0.00  0.00    +0.000 A 
ATOM      9  C   UNL     1     104.498 124.047 145.728  0.00  0.00    +0.000 A 
ATOM     10  C   UNL     1     103.388 124.394 147.618  0.00  0.00    +0.000 A 
ATOM     11  C   UNL     1     103.283 123.458 146.263  0.00  0.00    +0.000 A 
ATOM     12  C   UNL     1     102.711 123.395 146.854  0.00  0.00    +0.000 A 
ATOM     13  C   UNL     1     102.763 123.863 147.532  0.00  0.00    +0.000 A 
ENDROOT
BRANCH   7  14
ATOM     14  C   UNL     1     105.830 125.619 146.608  0.00  0.00    +0.000 A 
ATOM     15  C   UNL     1     105.716 126.419 146.443  0.00  0.00    +0.000 A 
ATOM     16  C   UNL     1     106.568 125.351 146.863  0.00  0.00    +0.000 A 
ATOM     17  C   UNL     1     107.191 125.883 146.952  0.00  0.00    +0.000 A 
ATOM     18  C   UNL     1     106.339 126.951 146.532  0.00  0.00    +0.000 A 
ATOM     19  C   UNL     1     107.078 126.684 146.787  0.00  0.00    +0.000 A 
BRANCH  15  20
ATOM     20  O   UNL     1     104.979 126.687 146.188  0.00  0.00    +0.000 OA
ATOM     21  C   UNL     1     104.831 127.496 146.128  0.00  0.00    +0.000 C 
ENDBRANCH  15  20
BRANCH  17  22
ATOM     22  O   UNL     1     107.929 125.616 147.207  0.00  0.00    +0.000 OA
ATOM     23  C   UNL     1     107.981 125.083 147.834  0.00  0.00    +0.000 C 
ENDBRANCH  17  22
BRANCH  19  24
ATOM     24  O   UNL     1     107.700 127.216 146.876  0.00  0.00    +0.000 OA
ATOM     25  C   UNL     1     107.719 127.910 146.429  0.00  0.00    +0.000 C 
ENDBRANCH  19  24
ENDBRANCH   7  14
BRANCH   8  26
ATOM     26  O   UNL     1     105.722 124.660 145.220  0.00  0.00    +0.000 OA
ATOM     27  C   UNL     1     105.601 124.295 144.490  0.00  0.00    +0.000 C 
ENDBRANCH   8  26
BRANCH  10  28
ATOM     28  O   UNL     1     103.440 124.861 148.296  0.00  0.00    +0.000 OA
ATOM     29  C   UNL     1     103.520 124.508 149.037  0.00  0.00    +0.000 C 
ENDBRANCH  10  28
BRANCH  12  30
ATOM     30  O   UNL     1     102.085 122.863 146.767  0.00  0.00    +0.000 OA
ATOM     31  C   UNL     1     101.371 123.117 146.443  0.00  0.00    +0.000 C 
ENDBRANCH  12  30
TORSDOF 7
ENDMDL
MODEL 5
REMARK VINA RESULT:      -7.0      1.749      4.749
REMARK  Name = 13942676
REMARK  7 active torsions:
REMARK  status: ('A' for Active; 'I' for Inactive)
REMARK    1  A    between atoms: O_2  and  C_15
REMARK    2  A    between atoms: O_3  and  C_17
REMARK    3  A    between atoms: O_4  and  C_19
REMARK    4  A    between atoms: O_5  and  C_21
REMARK    5  A    between atoms: O_9  and  C_23
REMARK    6  A    between atoms: O_10  and  C_25
REMARK    7  A    between atoms: C_13  and  C_14
REMARK                            x       y       z     vdW  Elec       q    Type
REMARK                         _______ _______ _______ _____ _____    ______ ____
ROOT
ATOM      1  O   UNL     1     113.121 126.999 139.016  0.00  0.00    +0.000 OA
ATOM      2  O   UNL     1     113.327 129.860 138.622  0.00  0.00    +0.000 OA
ATOM      3  O   UNL     1     113.110 129.009 137.476  0.00  0.00    +0.000 OA
ATOM      4  O   UNL     1     113.554 128.764 141.252  0.00  0.00    +0.000 OA
ATOM      5  C   UNL     1     113.226 128.447 138.819  0.00  0.00    +0.000 A 
ATOM      6  C   UNL     1     113.230 127.794 139.323  0.00  0.00    +0.000 A 
ATOM      7  C   UNL     1     113.007 126.883 138.172  0.00  0.00    +0.000 A 
ATOM      8  C   UNL     1     113.003 127.564 137.646  0.00  0.00    +0.000 A 
ATOM      9  C   UNL     1     113.113 128.351 137.972  0.00  0.00    +0.000 A 
ATOM     10  C   UNL     1     113.339 127.900 140.134  0.00  0.00    +0.000 A 
ATOM     11  C   UNL     1     113.331 129.206 139.126  0.00  0.00    +0.000 A 
ATOM     12  C   UNL     1     113.440 129.311 139.937  0.00  0.00    +0.000 A 
ATOM     13  C   UNL     1     113.444 128.658 140.441  0.00  0.00    +0.000 A 
ENDROOT
BRANCH   7  14
ATOM     14  C   UNL     1     112.901 126.123 137.868  0.00  0.00    +0.000 A 
ATOM     15  C   UNL     1     112.155 125.772 137.884  0.00  0.00    +0.000 A 
ATOM     16  C   UNL     1     113.543 125.715 137.547  0.00  0.00    +0.000 A 
ATOM     17  C   UNL     1     113.437 124.955 137.243  0.00  0.00    +0.000 A 
ATOM     18  C   UNL     1     112.049 125.013 137.580  0.00  0.00    +0.000 A 
ATOM     19  C   UNL     1     112.690 124.603 137.259  0.00  0.00    +0.000 A 
BRANCH  15  20
ATOM     20  O   UNL     1     111.514 126.181 138.204  0.00  0.00    +0.000 OA
ATOM     21  C   UNL     1     110.797 125.792 138.330  0.00  0.00    +0.000 C 
ENDBRANCH  15  20
BRANCH  17  22
ATOM     22  O   UNL     1     114.078 124.546 136.923  0.00  0.00    +0.000 OA
ATOM     23  C   UNL     1     114.837 124.668 137.221  0.00  0.00    +0.000 C 
ENDBRANCH  17  22
BRANCH  19  24
ATOM     24  O   UNL     1     112.584 123.845 136.956  0.00  0.00    +0.000 OA
ATOM     25  C   UNL     1     111.888 123.652 136.558  0.00  0.00    +0.000 C 
ENDBRANCH  19  24
ENDBRANCH   7  14
BRANCH   8  26
ATOM     26  O   UNL     1     112.893 127.461 136.835  0.00  0.00    +0.000 OA
ATOM     27  C   UNL     1     113.145 128.044 136.308  0.00  0.00    +0.000 C 
ENDBRANCH   8  26
BRANCH  10  28
ATOM     28  O   UNL     1     113.343 127.247 140.638  0.00  0.00    +0.000 OA
ATOM     29  C   UNL     1     112.796 127.198 141.254  0.00  0.00    +0.000 C 
ENDBRANCH  10  28
BRANCH  12  30
ATOM     30  O   UNL     1     113.546 130.070 140.243  0.00  0.00    +0.000 OA
ATOM     31  C   UNL     1     114.307 130.364 140.364  0.00  0.00    +0.000 C 
ENDBRANCH  12  30
TORSDOF 7
ENDMDL
MODEL 6
REMARK VINA RESULT:      -6.9      2.821      5.038
REMARK  Name = 13942676
REMARK  7 active torsions:
REMARK  status: ('A' for Active; 'I' for Inactive)
REMARK    1  A    between atoms: O_2  and  C_15
REMARK    2  A    between atoms: O_3  and  C_17
REMARK    3  A    between atoms: O_4  and  C_19
REMARK    4  A    between atoms: O_5  and  C_21
REMARK    5  A    between atoms: O_9  and  C_23
REMARK    6  A    between atoms: O_10  and  C_25
REMARK    7  A    between atoms: C_13  and  C_14
REMARK                            x       y       z     vdW  Elec       q    Type
REMARK                         _______ _______ _______ _____ _____    ______ ____
ROOT
ATOM      1  O   UNL     1     110.949 126.162 139.099  0.00  0.00    +0.000 OA
ATOM      2  O   UNL     1     112.806 127.051 141.134  0.00  0.00    +0.000 OA
ATOM      3  O   UNL     1     113.312 126.708 139.826  0.00  0.00    +0.000 OA
ATOM      4  O   UNL     1     110.018 126.865 141.733  0.00  0.00    +0.000 OA
ATOM      5  C   UNL     1     111.887 126.612 140.130  0.00  0.00    +0.000 A 
ATOM      6  C   UNL     1     111.116 126.435 139.896  0.00  0.00    +0.000 A 
ATOM      7  C   UNL     1     111.594 126.072 138.538  0.00  0.00    +0.000 A 
ATOM      8  C   UNL     1     112.398 126.257 138.782  0.00  0.00    +0.000 A 
ATOM      9  C   UNL     1     112.545 126.529 139.584  0.00  0.00    +0.000 A 
ATOM     10  C   UNL     1     110.493 126.520 140.431  0.00  0.00    +0.000 A 
ATOM     11  C   UNL     1     112.035 126.874 140.899  0.00  0.00    +0.000 A 
ATOM     12  C   UNL     1     111.412 126.958 141.433  0.00  0.00    +0.000 A 
ATOM     13  C   UNL     1     110.641 126.781 141.199  0.00  0.00    +0.000 A 
ENDROOT
BRANCH   7  14
ATOM     14  C   UNL     1     111.444 125.811 137.770  0.00  0.00    +0.000 A 
ATOM     15  C   UNL     1     111.166 126.340 137.201  0.00  0.00    +0.000 A 
ATOM     16  C   UNL     1     111.570 125.020 137.571  0.00  0.00    +0.000 A 
ATOM     17  C   UNL     1     111.420 124.759 136.803  0.00  0.00    +0.000 A 
ATOM     18  C   UNL     1     111.016 126.079 136.434  0.00  0.00    +0.000 A 
ATOM     19  C   UNL     1     111.142 125.289 136.233  0.00  0.00    +0.000 A 
BRANCH  15  20
ATOM     20  O   UNL     1     111.040 127.131 137.400  0.00  0.00    +0.000 OA
ATOM     21  C   UNL     1     110.730 127.653 136.841  0.00  0.00    +0.000 C 
ENDBRANCH  15  20
BRANCH  17  22
ATOM     22  O   UNL     1     111.546 123.969 136.603  0.00  0.00    +0.000 OA
ATOM     23  C   UNL     1     111.843 123.443 137.165  0.00  0.00    +0.000 C 
ENDBRANCH  17  22
BRANCH  19  24
ATOM     24  O   UNL     1     110.991 125.028 135.466  0.00  0.00    +0.000 OA
ATOM     25  C   UNL     1     110.445 125.427 134.994  0.00  0.00    +0.000 C 
ENDBRANCH  19  24
ENDBRANCH   7  14
BRANCH   8  26
ATOM     26  O   UNL     1     113.023 126.173 138.250  0.00  0.00    +0.000 OA
ATOM     27  C   UNL     1     113.798 126.126 138.528  0.00  0.00    +0.000 C 
ENDBRANCH   8  26
BRANCH  10  28
ATOM     28  O   UNL     1     109.722 126.343 140.196  0.00  0.00    +0.000 OA
ATOM     29  C   UNL     1     109.294 125.759 140.592  0.00  0.00    +0.000 C 
ENDBRANCH  10  28
BRANCH  12  30
ATOM     30  O   UNL     1     111.560 127.219 142.202  0.00  0.00    +0.000 OA
ATOM     31  C   UNL     1     111.507 128.023 142.381  0.00  0.00    +0.000 C 
ENDBRANCH  12  30
TORSDOF 7
ENDMDL
MODEL 7
REMARK VINA RESULT:      -6.9      1.258      2.418
REMARK  Name = 13942676
REMARK  7 active torsions:
REMARK  status: ('A' for Active; 'I' for Inactive)
REMARK    1  A    between atoms: O_2  and  C_15
REMARK    2  A    between atoms: O_3  and  C_17
REMARK    3  A    between atoms: O_4  and  C_19
REMARK    4  A    between atoms: O_5  and  C_21
REMARK    5  A    between atoms: O_9  and  C_23
REMARK    6  A    between atoms: O_10  and  C_25
REMARK    7  A    between atoms: C_13  and  C_14
REMARK                            x       y       z     vdW  Elec       q    Type
REMARK                         _______ _______ _______ _____ _____    ______ ____
ROOT
ATOM      1  O   UNL     1     112.117 127.248 136.554  0.00  0.00    +0.000 OA
ATOM      2  O   UNL     1     112.307 124.947 138.299  0.00  0.00    +0.000 OA
ATOM      3  O   UNL     1     112.856 126.207 138.740  0.00  0.00    +0.000 OA
ATOM      4  O   UNL     1     111.045 124.699 135.747  0.00  0.00    +0.000 OA
ATOM      5  C   UNL     1     112.212 126.083 137.435  0.00  0.00    +0.000 A 
ATOM      6  C   UNL     1     111.970 126.419 136.722  0.00  0.00    +0.000 A 
ATOM      7  C   UNL     1     112.522 127.734 137.136  0.00  0.00    +0.000 A 
ATOM      8  C   UNL     1     112.774 127.383 137.880  0.00  0.00    +0.000 A 
ATOM      9  C   UNL     1     112.618 126.551 138.030  0.00  0.00    +0.000 A 
ATOM     10  C   UNL     1     111.581 125.958 136.160  0.00  0.00    +0.000 A 
ATOM     11  C   UNL     1     112.065 125.284 137.586  0.00  0.00    +0.000 A 
ATOM     12  C   UNL     1     111.676 124.824 137.023  0.00  0.00    +0.000 A 
ATOM     13  C   UNL     1     111.434 125.160 136.310  0.00  0.00    +0.000 A 
ENDROOT
BRANCH   7  14
ATOM     14  C   UNL     1     112.668 128.532 136.983  0.00  0.00    +0.000 A 
ATOM     15  C   UNL     1     113.309 128.751 136.513  0.00  0.00    +0.000 A 
ATOM     16  C   UNL     1     112.172 129.110 137.300  0.00  0.00    +0.000 A 
ATOM     17  C   UNL     1     112.318 129.908 137.147  0.00  0.00    +0.000 A 
ATOM     18  C   UNL     1     113.455 129.548 136.360  0.00  0.00    +0.000 A 
ATOM     19  C   UNL     1     112.960 130.127 136.677  0.00  0.00    +0.000 A 
BRANCH  15  20
ATOM     20  O   UNL     1     113.805 128.173 136.196  0.00  0.00    +0.000 OA
ATOM     21  C   UNL     1     114.367 128.376 135.627  0.00  0.00    +0.000 C 
ENDBRANCH  15  20
BRANCH  17  22
ATOM     22  O   UNL     1     111.823 130.486 137.464  0.00  0.00    +0.000 OA
ATOM     23  C   UNL     1     111.012 130.346 137.529  0.00  0.00    +0.000 C 
ENDBRANCH  17  22
BRANCH  19  24
ATOM     24  O   UNL     1     113.106 130.923 136.524  0.00  0.00    +0.000 OA
ATOM     25  C   UNL     1     113.879 131.211 136.535  0.00  0.00    +0.000 C 
ENDBRANCH  19  24
ENDBRANCH   7  14
BRANCH   8  26
ATOM     26  O   UNL     1     113.163 127.842 138.444  0.00  0.00    +0.000 OA
ATOM     27  C   UNL     1     113.151 127.617 139.238  0.00  0.00    +0.000 C 
ENDBRANCH   8  26
BRANCH  10  28
ATOM     28  O   UNL     1     111.339 126.294 135.446  0.00  0.00    +0.000 OA
ATOM     29  C   UNL     1     110.543 126.279 135.232  0.00  0.00    +0.000 C 
ENDBRANCH  10  28
BRANCH  12  30
ATOM     30  O   UNL     1     111.529 124.025 137.174  0.00  0.00    +0.000 OA
ATOM     31  C   UNL     1     112.052 123.451 136.896  0.00  0.00    +0.000 C 
ENDBRANCH  12  30
TORSDOF 7
ENDMDL
MODEL 8
REMARK VINA RESULT:      -6.8      3.102      5.545
REMARK  Name = 13942676
REMARK  7 active torsions:
REMARK  status: ('A' for Active; 'I' for Inactive)
REMARK    1  A    between atoms: O_2  and  C_15
REMARK    2  A    between atoms: O_3  and  C_17
REMARK    3  A    between atoms: O_4  and  C_19
REMARK    4  A    between atoms: O_5  and  C_21
REMARK    5  A    between atoms: O_9  and  C_23
REMARK    6  A    between atoms: O_10  and  C_25
REMARK    7  A    between atoms: C_13  and  C_14
REMARK                            x       y       z     vdW  Elec       q    Type
REMARK                         _______ _______ _______ _____ _____    ______ ____
ROOT
ATOM      1  O   UNL     1     110.431 130.107 136.437  0.00  0.00    +0.000 OA
ATOM      2  O   UNL     1     107.624 130.204 135.737  0.00  0.00    +0.000 OA
ATOM      3  O   UNL     1     108.268 128.919 135.869  0.00  0.00    +0.000 OA
ATOM      4  O   UNL     1     109.073 132.632 136.155  0.00  0.00    +0.000 OA
ATOM      5  C   UNL     1     109.010 130.158 136.083  0.00  0.00    +0.000 A 
ATOM      6  C   UNL     1     109.714 130.548 136.268  0.00  0.00    +0.000 A 
ATOM      7  C   UNL     1     110.416 129.247 136.414  0.00  0.00    +0.000 A 
ATOM      8  C   UNL     1     109.682 128.841 136.221  0.00  0.00    +0.000 A 
ATOM      9  C   UNL     1     108.975 129.300 136.055  0.00  0.00    +0.000 A 
ATOM     10  C   UNL     1     109.734 131.372 136.292  0.00  0.00    +0.000 A 
ATOM     11  C   UNL     1     108.327 130.593 135.922  0.00  0.00    +0.000 A 
ATOM     12  C   UNL     1     108.349 131.418 135.946  0.00  0.00    +0.000 A 
ATOM     13  C   UNL     1     109.052 131.807 136.131  0.00  0.00    +0.000 A 
ENDROOT
BRANCH   7  14
ATOM     14  C   UNL     1     111.099 128.815 136.575  0.00  0.00    +0.000 A 
ATOM     15  C   UNL     1     111.675 128.720 135.992  0.00  0.00    +0.000 A 
ATOM     16  C   UNL     1     111.208 128.477 137.320  0.00  0.00    +0.000 A 
ATOM     17  C   UNL     1     111.892 128.045 137.482  0.00  0.00    +0.000 A 
ATOM     18  C   UNL     1     112.358 128.288 136.152  0.00  0.00    +0.000 A 
ATOM     19  C   UNL     1     112.468 127.950 136.897  0.00  0.00    +0.000 A 
BRANCH  15  20
ATOM     20  O   UNL     1     111.566 129.057 135.246  0.00  0.00    +0.000 OA
ATOM     21  C   UNL     1     112.190 129.077 134.707  0.00  0.00    +0.000 C 
ENDBRANCH  15  20
BRANCH  17  22
ATOM     22  O   UNL     1     112.001 127.707 138.226  0.00  0.00    +0.000 OA
ATOM     23  C   UNL     1     111.734 128.099 138.901  0.00  0.00    +0.000 C 
ENDBRANCH  17  22
BRANCH  19  24
ATOM     24  O   UNL     1     113.151 127.518 137.058  0.00  0.00    +0.000 OA
ATOM     25  C   UNL     1     113.460 127.007 136.488  0.00  0.00    +0.000 C 
ENDBRANCH  19  24
ENDBRANCH   7  14
BRANCH   8  26
ATOM     26  O   UNL     1     109.659 128.017 136.196  0.00  0.00    +0.000 OA
ATOM     27  C   UNL     1     108.936 127.628 136.111  0.00  0.00    +0.000 C 
ENDBRANCH   8  26
BRANCH  10  28
ATOM     28  O   UNL     1     110.438 131.762 136.477  0.00  0.00    +0.000 OA
ATOM     29  C   UNL     1     110.478 132.247 137.143  0.00  0.00    +0.000 C 
ENDBRANCH  10  28
BRANCH  12  30
ATOM     30  O   UNL     1     107.666 131.853 135.785  0.00  0.00    +0.000 OA
ATOM     31  C   UNL     1     107.513 132.110 135.016  0.00  0.00    +0.000 C 
ENDBRANCH  12  30
TORSDOF 7
ENDMDL
MODEL 9
REMARK VINA RESULT:      -6.8      1.920      2.498
REMARK  Name = 13942676
REMARK  7 active torsions:
REMARK  status: ('A' for Active; 'I' for Inactive)
REMARK    1  A    between atoms: O_2  and  C_15
REMARK    2  A    between atoms: O_3  and  C_17
REMARK    3  A    between atoms: O_4  and  C_19
REMARK    4  A    between atoms: O_5  and  C_21
REMARK    5  A    between atoms: O_9  and  C_23
REMARK    6  A    between atoms: O_10  and  C_25
REMARK    7  A    between atoms: C_13  and  C_14
REMARK                            x       y       z     vdW  Elec       q    Type
REMARK                         _______ _______ _______ _____ _____    ______ ____
ROOT
ATOM      1  O   UNL     1     113.278 126.569 138.252  0.00  0.00    +0.000 OA
ATOM      2  O   UNL     1     111.041 124.817 137.701  0.00  0.00    +0.000 OA
ATOM      3  O   UNL     1     110.824 125.999 138.501  0.00  0.00    +0.000 OA
ATOM      4  O   UNL     1     113.630 124.191 136.664  0.00  0.00    +0.000 OA
ATOM      5  C   UNL     1     112.148 125.681 137.972  0.00  0.00    +0.000 A 
ATOM      6  C   UNL     1     112.948 125.865 137.889  0.00  0.00    +0.000 A 
ATOM      7  C   UNL     1     112.769 127.091 138.708  0.00  0.00    +0.000 A 
ATOM      8  C   UNL     1     111.935 126.900 138.794  0.00  0.00    +0.000 A 
ATOM      9  C   UNL     1     111.622 126.190 138.423  0.00  0.00    +0.000 A 
ATOM     10  C   UNL     1     113.441 125.368 137.453  0.00  0.00    +0.000 A 
ATOM     11  C   UNL     1     111.841 125.001 137.618  0.00  0.00    +0.000 A 
ATOM     12  C   UNL     1     112.336 124.505 137.183  0.00  0.00    +0.000 A 
ATOM     13  C   UNL     1     113.136 124.688 137.100  0.00  0.00    +0.000 A 
ENDROOT
BRANCH   7  14
ATOM     14  C   UNL     1     113.077 127.770 139.060  0.00  0.00    +0.000 A 
ATOM     15  C   UNL     1     113.468 127.718 139.784  0.00  0.00    +0.000 A 
ATOM     16  C   UNL     1     112.995 128.502 138.687  0.00  0.00    +0.000 A 
ATOM     17  C   UNL     1     113.304 129.181 139.040  0.00  0.00    +0.000 A 
ATOM     18  C   UNL     1     113.777 128.396 140.137  0.00  0.00    +0.000 A 
ATOM     19  C   UNL     1     113.695 129.128 139.765  0.00  0.00    +0.000 A 
BRANCH  15  20
ATOM     20  O   UNL     1     113.551 126.986 140.157  0.00  0.00    +0.000 OA
ATOM     21  C   UNL     1     114.022 126.915 140.830  0.00  0.00    +0.000 C 
ENDBRANCH  15  20
BRANCH  17  22
ATOM     22  O   UNL     1     113.222 129.912 138.668  0.00  0.00    +0.000 OA
ATOM     23  C   UNL     1     113.254 129.964 137.845  0.00  0.00    +0.000 C 
ENDBRANCH  17  22
BRANCH  19  24
ATOM     24  O   UNL     1     114.004 129.806 140.117  0.00  0.00    +0.000 OA
ATOM     25  C   UNL     1     113.920 129.924 140.930  0.00  0.00    +0.000 C 
ENDBRANCH  19  24
ENDBRANCH   7  14
BRANCH   8  26
ATOM     26  O   UNL     1     111.439 127.394 139.229  0.00  0.00    +0.000 OA
ATOM     27  C   UNL     1     110.623 127.371 139.107  0.00  0.00    +0.000 C 
ENDBRANCH   8  26
BRANCH  10  28
ATOM     28  O   UNL     1     114.242 125.551 137.370  0.00  0.00    +0.000 OA
ATOM     29  C   UNL     1     114.565 125.658 136.619  0.00  0.00    +0.000 C 
ENDBRANCH  10  28
BRANCH  12  30
ATOM     30  O   UNL     1     112.029 123.824 136.829  0.00  0.00    +0.000 OA
ATOM     31  C   UNL     1     112.056 123.104 137.230  0.00  0.00    +0.000 C 
ENDBRANCH  12  30
TORSDOF 7
ENDMDL
MODEL 10
REMARK VINA RESULT:      -6.8      2.120      5.323
REMARK  Name = 13942676
REMARK  7 active torsions:
REMARK  status: ('A' for Active; 'I' for Inactive)
REMARK    1  A    between atoms: O_2  and  C_15
REMARK    2  A    between atoms: O_3  and  C_17
REMARK    3  A    between atoms: O_4  and  C_19
REMARK    4  A    between atoms: O_5  and  C_21
REMARK    5  A    between atoms: O_9  and  C_23
REMARK    6  A    between atoms: O_10  and  C_25
REMARK    7  A    between atoms: C_13  and  C_14
REMARK                            x       y       z     vdW  Elec       q    Type
REMARK                         _______ _______ _______ _____ _____    ______ ____
ROOT
ATOM      1  O   UNL     1     112.814 127.904 138.624  0.00  0.00    +0.000 OA
ATOM      2  O   UNL     1     113.469 129.167 141.145  0.00  0.00    +0.000 OA
ATOM      3  O   UNL     1     112.929 127.829 141.152  0.00  0.00    +0.000 OA
ATOM      4  O   UNL     1     113.895 130.574 138.694  0.00  0.00    +0.000 OA
ATOM      5  C   UNL     1     113.146 128.545 139.898  0.00  0.00    +0.000 A 
ATOM      6  C   UNL     1     113.110 128.573 139.075  0.00  0.00    +0.000 A 
ATOM      7  C   UNL     1     112.552 127.197 139.037  0.00  0.00    +0.000 A 
ATOM      8  C   UNL     1     112.590 127.168 139.895  0.00  0.00    +0.000 A 
ATOM      9  C   UNL     1     112.889 127.848 140.329  0.00  0.00    +0.000 A 
ATOM     10  C   UNL     1     113.359 129.249 138.673  0.00  0.00    +0.000 A 
ATOM     11  C   UNL     1     113.432 129.195 140.321  0.00  0.00    +0.000 A 
ATOM     12  C   UNL     1     113.681 129.870 139.919  0.00  0.00    +0.000 A 
ATOM     13  C   UNL     1     113.645 129.897 139.095  0.00  0.00    +0.000 A 
ENDROOT
BRANCH   7  14
ATOM     14  C   UNL     1     112.267 126.549 138.612  0.00  0.00    +0.000 A 
ATOM     15  C   UNL     1     112.794 126.011 138.277  0.00  0.00    +0.000 A 
ATOM     16  C   UNL     1     111.454 126.441 138.522  0.00  0.00    +0.000 A 
ATOM     17  C   UNL     1     111.168 125.794 138.098  0.00  0.00    +0.000 A 
ATOM     18  C   UNL     1     112.510 125.364 137.853  0.00  0.00    +0.000 A 
ATOM     19  C   UNL     1     111.696 125.254 137.763  0.00  0.00    +0.000 A 
BRANCH  15  20
ATOM     20  O   UNL     1     113.607 126.119 138.367  0.00  0.00    +0.000 OA
ATOM     21  C   UNL     1     114.136 125.635 137.960  0.00  0.00    +0.000 C 
ENDBRANCH  15  20
BRANCH  17  22
ATOM     22  O   UNL     1     110.356 125.685 138.008  0.00  0.00    +0.000 OA
ATOM     23  C   UNL     1     109.856 126.338 137.939  0.00  0.00    +0.000 C 
ENDBRANCH  17  22
BRANCH  19  24
ATOM     24  O   UNL     1     111.412 124.608 137.339  0.00  0.00    +0.000 OA
ATOM     25  C   UNL     1     111.859 123.916 137.291  0.00  0.00    +0.000 C 
ENDBRANCH  19  24
ENDBRANCH   7  14
BRANCH   8  26
ATOM     26  O   UNL     1     112.341 126.493 140.299  0.00  0.00    +0.000 OA
ATOM     27  C   UNL     1     112.056 126.557 141.071  0.00  0.00    +0.000 C 
ENDBRANCH   8  26
BRANCH  10  28
ATOM     28  O   UNL     1     113.323 129.277 137.850  0.00  0.00    +0.000 OA
ATOM     29  C   UNL     1     112.838 129.829 137.476  0.00  0.00    +0.000 C 
ENDBRANCH  10  28
BRANCH  12  30
ATOM     30  O   UNL     1     113.968 130.519 140.341  0.00  0.00    +0.000 OA
ATOM     31  C   UNL     1     114.778 130.602 140.470  0.00  0.00    +0.000 C 
ENDBRANCH  12  30
TORSDOF 7
ENDMDL
