MODEL 1
REMARK VINA RESULT:     -10.8      0.000      0.000
REMARK  Name = 131751646
REMARK  9 active torsions:
REMARK  status: ('A' for Active; 'I' for Inactive)
REMARK    1  A    between atoms: O_3  and  C_30
REMARK    2  A    between atoms: O_3  and  C_32
REMARK    3  A    between atoms: O_12  and  C_39
REMARK    4  A    between atoms: O_12  and  C_48
REMARK    5  A    between atoms: C_21  and  C_26
REMARK    6  A    between atoms: C_25  and  C_33
REMARK    7  A    between atoms: C_31  and  C_40
REMARK    8  A    between atoms: C_38  and  C_44
REMARK    9  A    between atoms: C_46  and  C_49
REMARK                            x       y       z     vdW  Elec       q    Type
REMARK                         _______ _______ _______ _____ _____    ______ ____
ROOT
ATOM      1  O   UNL     1     112.549 125.649 139.272  0.00  0.00    +0.000 OA
ATOM      2  O   UNL     1     112.752 128.526 139.509  0.00  0.00    +0.000 OA
ATOM      3  O   UNL     1     112.322 126.262 140.558  0.00  0.00    +0.000 OA
ATOM      4  C   UNL     1     112.871 126.436 138.124  0.00  0.00    +0.000 A 
ATOM      5  C   UNL     1     113.012 127.173 137.780  0.00  0.00    +0.000 A 
ATOM      6  C   UNL     1     112.690 126.385 138.927  0.00  0.00    +0.000 A 
ATOM      7  C   UNL     1     112.650 127.070 139.386  0.00  0.00    +0.000 A 
ATOM      8  C   UNL     1     112.972 127.857 138.238  0.00  0.00    +0.000 A 
ATOM      9  C   UNL     1     112.791 127.806 139.041  0.00  0.00    +0.000 A 
ATOM     10  C   UNL     1     112.461 127.002 140.222  0.00  0.00    +0.000 A 
ATOM     11  C   UNL     1     112.564 128.479 140.346  0.00  0.00    +0.000 A 
ATOM     12  C   UNL     1     112.418 127.712 140.705  0.00  0.00    +0.000 A 
ENDROOT
BRANCH   4  17
ATOM     13  O   UNL     1     112.242 125.484 137.264  0.00  0.00    +0.000 OA
ATOM     14  O   UNL     1     114.290 125.602 138.011  0.00  0.00    +0.000 OA
ATOM     15  O   UNL     1     114.370 124.232 137.094  0.00  0.00    +0.000 OA
ATOM     16  O   UNL     1     113.032 123.697 136.290  0.00  0.00    +0.000 OA
ATOM     17  C   UNL     1     112.911 125.752 137.666  0.00  0.00    +0.000 C 
ATOM     18  C   UNL     1     113.620 125.335 137.609  0.00  0.00    +0.000 C 
ATOM     19  C   UNL     1     113.661 124.649 137.151  0.00  0.00    +0.000 C 
ATOM     20  C   UNL     1     112.991 124.383 136.749  0.00  0.00    +0.000 C 
ATOM     21  C   UNL     1     112.282 124.800 136.806  0.00  0.00    +0.000 C 
BRANCH  21  23
ATOM     22  O   UNL     1     110.899 124.939 136.472  0.00  0.00    +0.000 OA
ATOM     23  C   UNL     1     111.613 124.532 136.403  0.00  0.00    +0.000 C 
ENDBRANCH  21  23
ENDBRANCH   4  17
BRANCH  11  25
ATOM     24  C   UNL     1     112.443 130.537 141.715  0.00  0.00    +0.000 A 
ATOM     25  C   UNL     1     112.525 129.165 140.802  0.00  0.00    +0.000 A 
ATOM     26  C   UNL     1     111.790 130.296 141.274  0.00  0.00    +0.000 A 
ATOM     27  C   UNL     1     113.138 130.092 141.699  0.00  0.00    +0.000 A 
ATOM     28  C   UNL     1     111.830 129.609 140.818  0.00  0.00    +0.000 A 
ATOM     29  C   UNL     1     113.179 129.407 141.243  0.00  0.00    +0.000 A 
BRANCH  24  30
ATOM     30  O   UNL     1     112.403 131.223 142.172  0.00  0.00    +0.000 OA
BRANCH  30  39
ATOM     31  O   UNL     1     112.050 130.535 143.372  0.00  0.00    +0.000 OA
ATOM     32  O   UNL     1     110.802 132.528 144.147  0.00  0.00    +0.000 OA
ATOM     33  O   UNL     1     110.864 131.176 145.090  0.00  0.00    +0.000 OA
ATOM     34  O   UNL     1     111.572 132.552 142.687  0.00  0.00    +0.000 OA
ATOM     35  C   UNL     1     111.218 131.864 143.889  0.00  0.00    +0.000 C 
ATOM     36  C   UNL     1     111.249 131.188 144.361  0.00  0.00    +0.000 C 
ATOM     37  C   UNL     1     111.603 131.876 143.159  0.00  0.00    +0.000 C 
ATOM     38  C   UNL     1     111.665 130.524 144.103  0.00  0.00    +0.000 C 
ATOM     39  C   UNL     1     112.019 131.212 142.901  0.00  0.00    +0.000 C 
BRANCH  38  41
ATOM     40  O   UNL     1     111.289 129.167 144.347  0.00  0.00    +0.000 OA
ATOM     41  C   UNL     1     111.696 129.847 144.574  0.00  0.00    +0.000 C 
ENDBRANCH  38  41
ENDBRANCH  30  39
ENDBRANCH  24  30
ENDBRANCH  11  25
BRANCH   5  42
ATOM     42  O   UNL     1     113.192 127.225 136.977  0.00  0.00    +0.000 OA
BRANCH  42  50
ATOM     43  O   UNL     1     112.115 128.050 136.529  0.00  0.00    +0.000 OA
ATOM     44  O   UNL     1     113.705 129.407 135.204  0.00  0.00    +0.000 OA
ATOM     45  O   UNL     1     114.252 128.130 136.093  0.00  0.00    +0.000 OA
ATOM     46  O   UNL     1     112.097 129.780 135.199  0.00  0.00    +0.000 OA
ATOM     47  C   UNL     1     113.175 128.955 135.646  0.00  0.00    +0.000 C 
ATOM     48  C   UNL     1     113.449 128.316 136.090  0.00  0.00    +0.000 C 
ATOM     49  C   UNL     1     112.372 129.141 135.643  0.00  0.00    +0.000 C 
ATOM     50  C   UNL     1     112.919 127.864 136.532  0.00  0.00    +0.000 C 
ATOM     51  C   UNL     1     111.842 128.689 136.085  0.00  0.00    +0.000 C 
BRANCH  51  53
ATOM     52  O   UNL     1     110.475 128.273 136.041  0.00  0.00    +0.000 OA
ATOM     53  C   UNL     1     111.038 128.875 136.082  0.00  0.00    +0.000 C 
ENDBRANCH  51  53
ENDBRANCH  42  50
ENDBRANCH   5  42
TORSDOF 9
ENDMDL
MODEL 2
REMARK VINA RESULT:     -10.5      4.820      6.426
REMARK  Name = 131751646
REMARK  9 active torsions:
REMARK  status: ('A' for Active; 'I' for Inactive)
REMARK    1  A    between atoms: O_3  and  C_30
REMARK    2  A    between atoms: O_3  and  C_32
REMARK    3  A    between atoms: O_12  and  C_39
REMARK    4  A    between atoms: O_12  and  C_48
REMARK    5  A    between atoms: C_21  and  C_26
REMARK    6  A    between atoms: C_25  and  C_33
REMARK    7  A    between atoms: C_31  and  C_40
REMARK    8  A    between atoms: C_38  and  C_44
REMARK    9  A    between atoms: C_46  and  C_49
REMARK                            x       y       z     vdW  Elec       q    Type
REMARK                         _______ _______ _______ _____ _____    ______ ____
ROOT
ATOM      1  O   UNL     1     108.171 125.237 139.805  0.00  0.00    +0.000 OA
ATOM      2  O   UNL     1     109.013 127.149 141.807  0.00  0.00    +0.000 OA
ATOM      3  O   UNL     1     109.435 125.911 139.639  0.00  0.00    +0.000 OA
ATOM      4  C   UNL     1     107.336 125.497 140.935  0.00  0.00    +0.000 A 
ATOM      5  C   UNL     1     107.197 125.899 141.642  0.00  0.00    +0.000 A 
ATOM      6  C   UNL     1     108.030 125.638 140.512  0.00  0.00    +0.000 A 
ATOM      7  C   UNL     1     108.584 126.180 140.795  0.00  0.00    +0.000 A 
ATOM      8  C   UNL     1     107.750 126.441 141.926  0.00  0.00    +0.000 A 
ATOM      9  C   UNL     1     108.444 126.582 141.502  0.00  0.00    +0.000 A 
ATOM     10  C   UNL     1     109.303 126.318 140.344  0.00  0.00    +0.000 A 
ATOM     11  C   UNL     1     109.738 127.300 141.371  0.00  0.00    +0.000 A 
ATOM     12  C   UNL     1     109.884 126.881 140.634  0.00  0.00    +0.000 A 
ENDROOT
BRANCH   4  17
ATOM     13  O   UNL     1     106.176 125.207 140.154  0.00  0.00    +0.000 OA
ATOM     14  O   UNL     1     107.445 123.908 141.365  0.00  0.00    +0.000 OA
ATOM     15  O   UNL     1     106.338 122.823 140.798  0.00  0.00    +0.000 OA
ATOM     16  O   UNL     1     105.123 123.328 139.802  0.00  0.00    +0.000 OA
ATOM     17  C   UNL     1     106.783 124.955 140.652  0.00  0.00    +0.000 C 
ATOM     18  C   UNL     1     106.838 124.161 140.867  0.00  0.00    +0.000 C 
ATOM     19  C   UNL     1     106.284 123.618 140.583  0.00  0.00    +0.000 C 
ATOM     20  C   UNL     1     105.677 123.871 140.086  0.00  0.00    +0.000 C 
ATOM     21  C   UNL     1     105.623 124.665 139.871  0.00  0.00    +0.000 C 
BRANCH  21  23
ATOM     22  O   UNL     1     104.755 125.699 139.401  0.00  0.00    +0.000 OA
ATOM     23  C   UNL     1     105.015 124.917 139.373  0.00  0.00    +0.000 C 
ENDBRANCH  21  23
ENDBRANCH   4  17
BRANCH  11  25
ATOM     24  C   UNL     1     111.395 128.926 142.227  0.00  0.00    +0.000 A 
ATOM     25  C   UNL     1     110.289 127.842 141.656  0.00  0.00    +0.000 A 
ATOM     26  C   UNL     1     111.566 128.119 142.235  0.00  0.00    +0.000 A 
ATOM     27  C   UNL     1     110.671 129.191 141.933  0.00  0.00    +0.000 A 
ATOM     28  C   UNL     1     111.014 127.577 141.949  0.00  0.00    +0.000 A 
ATOM     29  C   UNL     1     110.119 128.649 141.648  0.00  0.00    +0.000 A 
BRANCH  24  30
ATOM     30  O   UNL     1     111.948 129.468 142.512  0.00  0.00    +0.000 OA
BRANCH  30  39
ATOM     31  O   UNL     1     111.686 129.345 143.910  0.00  0.00    +0.000 OA
ATOM     32  O   UNL     1     111.827 131.804 144.154  0.00  0.00    +0.000 OA
ATOM     33  O   UNL     1     111.517 130.861 145.473  0.00  0.00    +0.000 OA
ATOM     34  O   UNL     1     112.042 131.108 142.674  0.00  0.00    +0.000 OA
ATOM     35  C   UNL     1     111.780 130.984 144.073  0.00  0.00    +0.000 C 
ATOM     36  C   UNL     1     111.625 130.513 144.733  0.00  0.00    +0.000 C 
ATOM     37  C   UNL     1     111.887 130.636 143.333  0.00  0.00    +0.000 C 
ATOM     38  C   UNL     1     111.578 129.693 144.651  0.00  0.00    +0.000 C 
ATOM     39  C   UNL     1     111.840 129.816 143.252  0.00  0.00    +0.000 C 
BRANCH  38  41
ATOM     40  O   UNL     1     111.905 128.573 145.476  0.00  0.00    +0.000 OA
ATOM     41  C   UNL     1     111.423 129.221 145.310  0.00  0.00    +0.000 C 
ENDBRANCH  38  41
ENDBRANCH  30  39
ENDBRANCH  24  30
ENDBRANCH  11  25
BRANCH   5  42
ATOM     42  O   UNL     1     106.503 125.759 142.066  0.00  0.00    +0.000 OA
BRANCH  42  50
ATOM     43  O   UNL     1     105.930 127.068 142.091  0.00  0.00    +0.000 OA
ATOM     44  O   UNL     1     105.483 126.826 144.513  0.00  0.00    +0.000 OA
ATOM     45  O   UNL     1     106.205 125.597 143.681  0.00  0.00    +0.000 OA
ATOM     46  O   UNL     1     105.059 128.215 143.731  0.00  0.00    +0.000 OA
ATOM     47  C   UNL     1     105.632 126.906 143.706  0.00  0.00    +0.000 C 
ATOM     48  C   UNL     1     105.993 126.292 143.290  0.00  0.00    +0.000 C 
ATOM     49  C   UNL     1     105.420 127.601 143.315  0.00  0.00    +0.000 C 
ATOM     50  C   UNL     1     106.142 126.372 142.483  0.00  0.00    +0.000 C 
ATOM     51  C   UNL     1     105.569 127.681 142.508  0.00  0.00    +0.000 C 
BRANCH  51  53
ATOM     52  O   UNL     1     105.099 128.346 141.333  0.00  0.00    +0.000 OA
ATOM     53  C   UNL     1     105.357 128.377 142.116  0.00  0.00    +0.000 C 
ENDBRANCH  51  53
ENDBRANCH  42  50
ENDBRANCH   5  42
TORSDOF 9
ENDMDL
MODEL 3
REMARK VINA RESULT:     -10.5      1.823      7.214
REMARK  Name = 131751646
REMARK  9 active torsions:
REMARK  status: ('A' for Active; 'I' for Inactive)
REMARK    1  A    between atoms: O_3  and  C_30
REMARK    2  A    between atoms: O_3  and  C_32
REMARK    3  A    between atoms: O_12  and  C_39
REMARK    4  A    between atoms: O_12  and  C_48
REMARK    5  A    between atoms: C_21  and  C_26
REMARK    6  A    between atoms: C_25  and  C_33
REMARK    7  A    between atoms: C_31  and  C_40
REMARK    8  A    between atoms: C_38  and  C_44
REMARK    9  A    between atoms: C_46  and  C_49
REMARK                            x       y       z     vdW  Elec       q    Type
REMARK                         _______ _______ _______ _____ _____    ______ ____
ROOT
ATOM      1  O   UNL     1     113.377 129.691 142.013  0.00  0.00    +0.000 OA
ATOM      2  O   UNL     1     112.098 128.366 139.780  0.00  0.00    +0.000 OA
ATOM      3  O   UNL     1     114.191 128.954 141.079  0.00  0.00    +0.000 OA
ATOM      4  C   UNL     1     111.959 129.775 141.852  0.00  0.00    +0.000 A 
ATOM      5  C   UNL     1     111.275 129.585 141.431  0.00  0.00    +0.000 A 
ATOM      6  C   UNL     1     112.693 129.502 141.593  0.00  0.00    +0.000 A 
ATOM      7  C   UNL     1     112.743 129.038 140.911  0.00  0.00    +0.000 A 
ATOM      8  C   UNL     1     111.325 129.122 140.751  0.00  0.00    +0.000 A 
ATOM      9  C   UNL     1     112.059 128.849 140.491  0.00  0.00    +0.000 A 
ATOM     10  C   UNL     1     113.513 128.759 140.652  0.00  0.00    +0.000 A 
ATOM     11  C   UNL     1     112.859 128.078 139.504  0.00  0.00    +0.000 A 
ATOM     12  C   UNL     1     113.572 128.276 139.943  0.00  0.00    +0.000 A 
ENDROOT
BRANCH   4  17
ATOM     13  O   UNL     1     111.975 131.059 142.479  0.00  0.00    +0.000 OA
ATOM     14  O   UNL     1     111.728 129.061 143.321  0.00  0.00    +0.000 OA
ATOM     15  O   UNL     1     111.629 129.987 144.683  0.00  0.00    +0.000 OA
ATOM     16  O   UNL     1     111.760 131.629 144.576  0.00  0.00    +0.000 OA
ATOM     17  C   UNL     1     111.909 130.239 142.533  0.00  0.00    +0.000 C 
ATOM     18  C   UNL     1     111.794 129.881 143.267  0.00  0.00    +0.000 C 
ATOM     19  C   UNL     1     111.744 130.345 143.949  0.00  0.00    +0.000 C 
ATOM     20  C   UNL     1     111.810 131.165 143.894  0.00  0.00    +0.000 C 
ATOM     21  C   UNL     1     111.926 131.522 143.160  0.00  0.00    +0.000 C 
BRANCH  21  23
ATOM     22  O   UNL     1     111.622 132.748 142.491  0.00  0.00    +0.000 OA
ATOM     23  C   UNL     1     111.991 132.343 143.107  0.00  0.00    +0.000 C 
ENDBRANCH  21  23
ENDBRANCH   4  17
BRANCH  11  25
ATOM     24  C   UNL     1     113.001 126.686 137.463  0.00  0.00    +0.000 A 
ATOM     25  C   UNL     1     112.906 127.615 138.824  0.00  0.00    +0.000 A 
ATOM     26  C   UNL     1     112.864 126.332 138.195  0.00  0.00    +0.000 A 
ATOM     27  C   UNL     1     113.090 127.505 137.411  0.00  0.00    +0.000 A 
ATOM     28  C   UNL     1     112.816 126.796 138.876  0.00  0.00    +0.000 A 
ATOM     29  C   UNL     1     113.043 127.969 138.091  0.00  0.00    +0.000 A 
BRANCH  24  30
ATOM     30  O   UNL     1     113.048 126.222 136.782  0.00  0.00    +0.000 OA
BRANCH  30  39
ATOM     31  O   UNL     1     111.791 126.500 136.163  0.00  0.00    +0.000 OA
ATOM     32  O   UNL     1     111.426 124.077 135.815  0.00  0.00    +0.000 OA
ATOM     33  O   UNL     1     110.290 125.162 135.312  0.00  0.00    +0.000 OA
ATOM     34  O   UNL     1     112.805 124.607 136.550  0.00  0.00    +0.000 OA
ATOM     35  C   UNL     1     111.548 124.885 135.931  0.00  0.00    +0.000 C 
ATOM     36  C   UNL     1     110.979 125.427 135.680  0.00  0.00    +0.000 C 
ATOM     37  C   UNL     1     112.237 125.150 136.299  0.00  0.00    +0.000 C 
ATOM     38  C   UNL     1     111.101 126.235 135.795  0.00  0.00    +0.000 C 
ATOM     39  C   UNL     1     112.358 125.957 136.414  0.00  0.00    +0.000 C 
BRANCH  38  41
ATOM     40  O   UNL     1     110.745 127.391 135.034  0.00  0.00    +0.000 OA
ATOM     41  C   UNL     1     110.533 126.778 135.544  0.00  0.00    +0.000 C 
ENDBRANCH  38  41
ENDBRANCH  30  39
ENDBRANCH  24  30
ENDBRANCH  11  25
BRANCH   5  42
ATOM     42  O   UNL     1     110.542 129.859 141.691  0.00  0.00    +0.000 OA
BRANCH  42  50
ATOM     43  O   UNL     1     110.102 130.623 140.566  0.00  0.00    +0.000 OA
ATOM     44  O   UNL     1     107.905 129.488 140.654  0.00  0.00    +0.000 OA
ATOM     45  O   UNL     1     109.077 129.102 141.750  0.00  0.00    +0.000 OA
ATOM     46  O   UNL     1     108.197 130.630 139.500  0.00  0.00    +0.000 OA
ATOM     47  C   UNL     1     108.637 129.866 140.625  0.00  0.00    +0.000 C 
ATOM     48  C   UNL     1     109.223 129.673 141.173  0.00  0.00    +0.000 C 
ATOM     49  C   UNL     1     108.783 130.437 140.048  0.00  0.00    +0.000 C 
ATOM     50  C   UNL     1     109.955 130.051 141.144  0.00  0.00    +0.000 C 
ATOM     51  C   UNL     1     109.515 130.815 140.019  0.00  0.00    +0.000 C 
BRANCH  51  53
ATOM     52  O   UNL     1     110.044 132.089 139.645  0.00  0.00    +0.000 OA
ATOM     53  C   UNL     1     109.662 131.387 139.441  0.00  0.00    +0.000 C 
ENDBRANCH  51  53
ENDBRANCH  42  50
ENDBRANCH   5  42
TORSDOF 9
ENDMDL
MODEL 4
REMARK VINA RESULT:     -10.4      1.993      7.350
REMARK  Name = 131751646
REMARK  9 active torsions:
REMARK  status: ('A' for Active; 'I' for Inactive)
REMARK    1  A    between atoms: O_3  and  C_30
REMARK    2  A    between atoms: O_3  and  C_32
REMARK    3  A    between atoms: O_12  and  C_39
REMARK    4  A    between atoms: O_12  and  C_48
REMARK    5  A    between atoms: C_21  and  C_26
REMARK    6  A    between atoms: C_25  and  C_33
REMARK    7  A    between atoms: C_31  and  C_40
REMARK    8  A    between atoms: C_38  and  C_44
REMARK    9  A    between atoms: C_46  and  C_49
REMARK                            x       y       z     vdW  Elec       q    Type
REMARK                         _______ _______ _______ _____ _____    ______ ____
ROOT
ATOM      1  O   UNL     1     113.090 129.675 141.987  0.00  0.00    +0.000 OA
ATOM      2  O   UNL     1     111.608 128.931 139.615  0.00  0.00    +0.000 OA
ATOM      3  O   UNL     1     113.760 128.931 140.949  0.00  0.00    +0.000 OA
ATOM      4  C   UNL     1     111.716 130.047 141.861  0.00  0.00    +0.000 A 
ATOM      5  C   UNL     1     111.014 130.048 141.428  0.00  0.00    +0.000 A 
ATOM      6  C   UNL     1     112.387 129.677 141.555  0.00  0.00    +0.000 A 
ATOM      7  C   UNL     1     112.356 129.309 140.817  0.00  0.00    +0.000 A 
ATOM      8  C   UNL     1     110.982 129.681 140.691  0.00  0.00    +0.000 A 
ATOM      9  C   UNL     1     111.653 129.311 140.385  0.00  0.00    +0.000 A 
ATOM     10  C   UNL     1     113.062 128.928 140.510  0.00  0.00    +0.000 A 
ATOM     11  C   UNL     1     112.303 128.545 139.291  0.00  0.00    +0.000 A 
ATOM     12  C   UNL     1     113.036 128.543 139.741  0.00  0.00    +0.000 A 
ENDROOT
BRANCH   4  17
ATOM     13  O   UNL     1     111.542 129.995 143.278  0.00  0.00    +0.000 OA
ATOM     14  O   UNL     1     112.191 131.623 141.977  0.00  0.00    +0.000 OA
ATOM     15  O   UNL     1     112.255 132.359 143.453  0.00  0.00    +0.000 OA
ATOM     16  O   UNL     1     111.844 131.518 144.812  0.00  0.00    +0.000 OA
ATOM     17  C   UNL     1     111.748 130.414 142.598  0.00  0.00    +0.000 C 
ATOM     18  C   UNL     1     111.986 131.202 142.656  0.00  0.00    +0.000 C 
ATOM     19  C   UNL     1     112.018 131.571 143.395  0.00  0.00    +0.000 C 
ATOM     20  C   UNL     1     111.812 131.150 144.074  0.00  0.00    +0.000 C 
ATOM     21  C   UNL     1     111.574 130.362 144.016  0.00  0.00    +0.000 C 
BRANCH  21  23
ATOM     22  O   UNL     1     111.247 129.128 144.658  0.00  0.00    +0.000 OA
ATOM     23  C   UNL     1     111.369 129.943 144.696  0.00  0.00    +0.000 C 
ENDBRANCH  21  23
ENDBRANCH   4  17
BRANCH  11  25
ATOM     24  C   UNL     1     112.201 127.441 137.078  0.00  0.00    +0.000 A 
ATOM     25  C   UNL     1     112.269 128.178 138.554  0.00  0.00    +0.000 A 
ATOM     26  C   UNL     1     112.082 127.001 137.765  0.00  0.00    +0.000 A 
ATOM     27  C   UNL     1     112.354 128.250 137.129  0.00  0.00    +0.000 A 
ATOM     28  C   UNL     1     112.116 127.368 138.503  0.00  0.00    +0.000 A 
ATOM     29  C   UNL     1     112.388 128.618 137.866  0.00  0.00    +0.000 A 
BRANCH  24  30
ATOM     30  O   UNL     1     112.167 127.074 136.340  0.00  0.00    +0.000 OA
BRANCH  30  39
ATOM     31  O   UNL     1     110.825 127.392 135.969  0.00  0.00    +0.000 OA
ATOM     32  O   UNL     1     110.485 125.062 135.203  0.00  0.00    +0.000 OA
ATOM     33  O   UNL     1     109.255 126.156 135.087  0.00  0.00    +0.000 OA
ATOM     34  O   UNL     1     111.941 125.521 135.829  0.00  0.00    +0.000 OA
ATOM     35  C   UNL     1     110.598 125.839 135.458  0.00  0.00    +0.000 C 
ATOM     36  C   UNL     1     109.983 126.386 135.400  0.00  0.00    +0.000 C 
ATOM     37  C   UNL     1     111.326 126.068 135.771  0.00  0.00    +0.000 C 
ATOM     38  C   UNL     1     110.096 127.162 135.655  0.00  0.00    +0.000 C 
ATOM     39  C   UNL     1     111.439 126.844 136.027  0.00  0.00    +0.000 C 
BRANCH  38  41
ATOM     40  O   UNL     1     109.603 128.427 135.209  0.00  0.00    +0.000 OA
ATOM     41  C   UNL     1     109.482 127.709 135.598  0.00  0.00    +0.000 C 
ENDBRANCH  38  41
ENDBRANCH  30  39
ENDBRANCH  24  30
ENDBRANCH  11  25
BRANCH   5  42
ATOM     42  O   UNL     1     110.342 130.418 141.734  0.00  0.00    +0.000 OA
BRANCH  42  50
ATOM     43  O   UNL     1     109.390 129.354 141.774  0.00  0.00    +0.000 OA
ATOM     44  O   UNL     1     107.747 130.779 140.593  0.00  0.00    +0.000 OA
ATOM     45  O   UNL     1     109.247 131.368 140.947  0.00  0.00    +0.000 OA
ATOM     46  O   UNL     1     107.342 129.240 141.027  0.00  0.00    +0.000 OA
ATOM     47  C   UNL     1     108.295 130.304 140.987  0.00  0.00    +0.000 C 
ATOM     48  C   UNL     1     109.045 130.599 141.163  0.00  0.00    +0.000 C 
ATOM     49  C   UNL     1     108.092 129.535 141.203  0.00  0.00    +0.000 C 
ATOM     50  C   UNL     1     109.592 130.124 141.557  0.00  0.00    +0.000 C 
ATOM     51  C   UNL     1     108.640 129.060 141.597  0.00  0.00    +0.000 C 
BRANCH  51  53
ATOM     52  O   UNL     1     108.720 127.973 142.521  0.00  0.00    +0.000 OA
ATOM     53  C   UNL     1     108.437 128.289 141.814  0.00  0.00    +0.000 C 
ENDBRANCH  51  53
ENDBRANCH  42  50
ENDBRANCH   5  42
TORSDOF 9
ENDMDL
MODEL 5
REMARK VINA RESULT:     -10.4      1.840      7.762
REMARK  Name = 131751646
REMARK  9 active torsions:
REMARK  status: ('A' for Active; 'I' for Inactive)
REMARK    1  A    between atoms: O_3  and  C_30
REMARK    2  A    between atoms: O_3  and  C_32
REMARK    3  A    between atoms: O_12  and  C_39
REMARK    4  A    between atoms: O_12  and  C_48
REMARK    5  A    between atoms: C_21  and  C_26
REMARK    6  A    between atoms: C_25  and  C_33
REMARK    7  A    between atoms: C_31  and  C_40
REMARK    8  A    between atoms: C_38  and  C_44
REMARK    9  A    between atoms: C_46  and  C_49
REMARK                            x       y       z     vdW  Elec       q    Type
REMARK                         _______ _______ _______ _____ _____    ______ ____
ROOT
ATOM      1  O   UNL     1     113.530 131.826 142.521  0.00  0.00    +0.000 OA
ATOM      2  O   UNL     1     112.443 129.338 141.519  0.00  0.00    +0.000 OA
ATOM      3  O   UNL     1     114.256 131.106 141.504  0.00  0.00    +0.000 OA
ATOM      4  C   UNL     1     112.292 131.332 143.036  0.00  0.00    +0.000 A 
ATOM      5  C   UNL     1     111.700 130.758 143.043  0.00  0.00    +0.000 A 
ATOM      6  C   UNL     1     112.937 131.252 142.529  0.00  0.00    +0.000 A 
ATOM      7  C   UNL     1     112.991 130.598 142.028  0.00  0.00    +0.000 A 
ATOM      8  C   UNL     1     111.753 130.104 142.543  0.00  0.00    +0.000 A 
ATOM      9  C   UNL     1     112.398 130.024 142.036  0.00  0.00    +0.000 A 
ATOM     10  C   UNL     1     113.668 130.527 141.504  0.00  0.00    +0.000 A 
ATOM     11  C   UNL     1     113.112 129.249 140.988  0.00  0.00    +0.000 A 
ATOM     12  C   UNL     1     113.730 129.848 140.981  0.00  0.00    +0.000 A 
ENDROOT
BRANCH   4  17
ATOM     13  O   UNL     1     112.494 131.929 144.318  0.00  0.00    +0.000 OA
ATOM     14  O   UNL     1     111.675 132.754 142.471  0.00  0.00    +0.000 OA
ATOM     15  O   UNL     1     111.569 134.063 143.471  0.00  0.00    +0.000 OA
ATOM     16  O   UNL     1     112.080 133.949 145.036  0.00  0.00    +0.000 OA
ATOM     17  C   UNL     1     112.239 131.986 143.536  0.00  0.00    +0.000 C 
ATOM     18  C   UNL     1     111.930 132.697 143.253  0.00  0.00    +0.000 C 
ATOM     19  C   UNL     1     111.877 133.351 143.754  0.00  0.00    +0.000 C 
ATOM     20  C   UNL     1     112.133 133.294 144.536  0.00  0.00    +0.000 C 
ATOM     21  C   UNL     1     112.441 132.583 144.818  0.00  0.00    +0.000 C 
BRANCH  21  23
ATOM     22  O   UNL     1     112.553 131.840 146.034  0.00  0.00    +0.000 OA
ATOM     23  C   UNL     1     112.697 132.526 145.601  0.00  0.00    +0.000 C 
ENDBRANCH  21  23
ENDBRANCH   4  17
BRANCH  11  25
ATOM     24  C   UNL     1     113.265 127.286 139.489  0.00  0.00    +0.000 A 
ATOM     25  C   UNL     1     113.163 128.595 140.489  0.00  0.00    +0.000 A 
ATOM     26  C   UNL     1     113.116 128.035 139.175  0.00  0.00    +0.000 A 
ATOM     27  C   UNL     1     113.362 127.193 140.302  0.00  0.00    +0.000 A 
ATOM     28  C   UNL     1     113.065 128.690 139.675  0.00  0.00    +0.000 A 
ATOM     29  C   UNL     1     113.312 127.846 140.802  0.00  0.00    +0.000 A 
BRANCH  24  30
ATOM     30  O   UNL     1     113.316 126.632 138.989  0.00  0.00    +0.000 OA
BRANCH  30  39
ATOM     31  O   UNL     1     111.938 126.259 139.037  0.00  0.00    +0.000 OA
ATOM     32  O   UNL     1     112.014 125.665 136.635  0.00  0.00    +0.000 OA
ATOM     33  O   UNL     1     110.610 125.490 137.484  0.00  0.00    +0.000 OA
ATOM     34  O   UNL     1     113.367 126.236 137.388  0.00  0.00    +0.000 OA
ATOM     35  C   UNL     1     111.989 125.863 137.436  0.00  0.00    +0.000 C 
ATOM     36  C   UNL     1     111.286 125.775 137.860  0.00  0.00    +0.000 C 
ATOM     37  C   UNL     1     112.665 126.148 137.812  0.00  0.00    +0.000 C 
ATOM     38  C   UNL     1     111.261 125.974 138.661  0.00  0.00    +0.000 C 
ATOM     39  C   UNL     1     112.639 126.346 138.613  0.00  0.00    +0.000 C 
BRANCH  38  41
ATOM     40  O   UNL     1     110.544 125.422 139.767  0.00  0.00    +0.000 OA
ATOM     41  C   UNL     1     110.559 125.886 139.085  0.00  0.00    +0.000 C 
ENDBRANCH  38  41
ENDBRANCH  30  39
ENDBRANCH  24  30
ENDBRANCH  11  25
BRANCH   5  42
ATOM     42  O   UNL     1     111.054 130.837 143.550  0.00  0.00    +0.000 OA
BRANCH  42  50
ATOM     43  O   UNL     1     109.925 130.632 142.698  0.00  0.00    +0.000 OA
ATOM     44  O   UNL     1     109.067 128.906 144.251  0.00  0.00    +0.000 OA
ATOM     45  O   UNL     1     110.482 129.687 144.585  0.00  0.00    +0.000 OA
ATOM     46  O   UNL     1     108.225 129.276 142.881  0.00  0.00    +0.000 OA
ATOM     47  C   UNL     1     109.353 129.481 143.733  0.00  0.00    +0.000 C 
ATOM     48  C   UNL     1     110.061 129.871 143.901  0.00  0.00    +0.000 C 
ATOM     49  C   UNL     1     108.932 129.666 143.049  0.00  0.00    +0.000 C 
ATOM     50  C   UNL     1     110.347 130.447 143.384  0.00  0.00    +0.000 C 
ATOM     51  C   UNL     1     109.218 130.241 142.531  0.00  0.00    +0.000 C 
BRANCH  51  53
ATOM     52  O   UNL     1     108.693 131.215 141.627  0.00  0.00    +0.000 OA
ATOM     53  C   UNL     1     108.797 130.427 141.846  0.00  0.00    +0.000 C 
ENDBRANCH  51  53
ENDBRANCH  42  50
ENDBRANCH   5  42
TORSDOF 9
ENDMDL
MODEL 6
REMARK VINA RESULT:     -10.3      4.641      8.076
REMARK  Name = 131751646
REMARK  9 active torsions:
REMARK  status: ('A' for Active; 'I' for Inactive)
REMARK    1  A    between atoms: O_3  and  C_30
REMARK    2  A    between atoms: O_3  and  C_32
REMARK    3  A    between atoms: O_12  and  C_39
REMARK    4  A    between atoms: O_12  and  C_48
REMARK    5  A    between atoms: C_21  and  C_26
REMARK    6  A    between atoms: C_25  and  C_33
REMARK    7  A    between atoms: C_31  and  C_40
REMARK    8  A    between atoms: C_38  and  C_44
REMARK    9  A    between atoms: C_46  and  C_49
REMARK                            x       y       z     vdW  Elec       q    Type
REMARK                         _______ _______ _______ _____ _____    ______ ____
ROOT
ATOM      1  O   UNL     1     108.271 127.901 141.342  0.00  0.00    +0.000 OA
ATOM      2  O   UNL     1     109.043 125.777 139.534  0.00  0.00    +0.000 OA
ATOM      3  O   UNL     1     109.382 128.115 140.447  0.00  0.00    +0.000 OA
ATOM      4  C   UNL     1     107.552 126.666 141.347  0.00  0.00    +0.000 A 
ATOM      5  C   UNL     1     107.440 125.904 141.051  0.00  0.00    +0.000 A 
ATOM      6  C   UNL     1     108.157 127.139 141.047  0.00  0.00    +0.000 A 
ATOM      7  C   UNL     1     108.650 126.851 140.450  0.00  0.00    +0.000 A 
ATOM      8  C   UNL     1     107.931 125.615 140.455  0.00  0.00    +0.000 A 
ATOM      9  C   UNL     1     108.536 126.089 140.155  0.00  0.00    +0.000 A 
ATOM     10  C   UNL     1     109.276 127.354 140.146  0.00  0.00    +0.000 A 
ATOM     11  C   UNL     1     109.675 126.265 139.216  0.00  0.00    +0.000 A 
ATOM     12  C   UNL     1     109.792 127.060 139.525  0.00  0.00    +0.000 A 
ENDROOT
BRANCH   4  17
ATOM     13  O   UNL     1     106.361 127.346 141.748  0.00  0.00    +0.000 OA
ATOM     14  O   UNL     1     107.967 126.459 142.931  0.00  0.00    +0.000 OA
ATOM     15  O   UNL     1     106.983 127.036 144.123  0.00  0.00    +0.000 OA
ATOM     16  O   UNL     1     105.585 127.820 143.732  0.00  0.00    +0.000 OA
ATOM     17  C   UNL     1     107.061 126.954 141.943  0.00  0.00    +0.000 C 
ATOM     18  C   UNL     1     107.268 126.851 142.735  0.00  0.00    +0.000 C 
ATOM     19  C   UNL     1     106.776 127.139 143.332  0.00  0.00    +0.000 C 
ATOM     20  C   UNL     1     106.077 127.531 143.135  0.00  0.00    +0.000 C 
ATOM     21  C   UNL     1     105.870 127.634 142.344  0.00  0.00    +0.000 C 
BRANCH  21  23
ATOM     22  O   UNL     1     104.838 127.931 141.400  0.00  0.00    +0.000 OA
ATOM     23  C   UNL     1     105.170 128.026 142.149  0.00  0.00    +0.000 C 
ENDBRANCH  21  23
ENDBRANCH   4  17
BRANCH  11  25
ATOM     24  C   UNL     1     111.148 125.393 137.430  0.00  0.00    +0.000 A 
ATOM     25  C   UNL     1     110.165 125.975 138.621  0.00  0.00    +0.000 A 
ATOM     26  C   UNL     1     111.303 125.210 138.219  0.00  0.00    +0.000 A 
ATOM     27  C   UNL     1     110.502 125.867 137.237  0.00  0.00    +0.000 A 
ATOM     28  C   UNL     1     110.812 125.501 138.815  0.00  0.00    +0.000 A 
ATOM     29  C   UNL     1     110.010 126.158 137.831  0.00  0.00    +0.000 A 
BRANCH  24  30
ATOM     30  O   UNL     1     111.639 125.102 136.834  0.00  0.00    +0.000 OA
BRANCH  30  39
ATOM     31  O   UNL     1     112.501 126.236 136.717  0.00  0.00    +0.000 OA
ATOM     32  O   UNL     1     114.447 124.729 136.452  0.00  0.00    +0.000 OA
ATOM     33  O   UNL     1     114.661 126.365 136.423  0.00  0.00    +0.000 OA
ATOM     34  O   UNL     1     112.936 124.098 136.658  0.00  0.00    +0.000 OA
ATOM     35  C   UNL     1     113.798 125.231 136.540  0.00  0.00    +0.000 C 
ATOM     36  C   UNL     1     113.905 126.049 136.526  0.00  0.00    +0.000 C 
ATOM     37  C   UNL     1     113.043 124.916 136.643  0.00  0.00    +0.000 C 
ATOM     38  C   UNL     1     113.257 126.552 136.614  0.00  0.00    +0.000 C 
ATOM     39  C   UNL     1     112.395 125.418 136.731  0.00  0.00    +0.000 C 
BRANCH  38  41
ATOM     40  O   UNL     1     112.925 127.834 136.077  0.00  0.00    +0.000 OA
ATOM     41  C   UNL     1     113.363 127.369 136.599  0.00  0.00    +0.000 C 
ENDBRANCH  38  41
ENDBRANCH  30  39
ENDBRANCH  24  30
ENDBRANCH  11  25
BRANCH   5  42
ATOM     42  O   UNL     1     106.835 125.430 141.352  0.00  0.00    +0.000 OA
BRANCH  42  50
ATOM     43  O   UNL     1     106.017 125.167 140.210  0.00  0.00    +0.000 OA
ATOM     44  O   UNL     1     106.141 122.740 140.680  0.00  0.00    +0.000 OA
ATOM     45  O   UNL     1     106.918 123.812 141.665  0.00  0.00    +0.000 OA
ATOM     46  O   UNL     1     105.282 123.286 139.381  0.00  0.00    +0.000 OA
ATOM     47  C   UNL     1     106.100 123.549 140.523  0.00  0.00    +0.000 C 
ATOM     48  C   UNL     1     106.488 124.085 141.016  0.00  0.00    +0.000 C 
ATOM     49  C   UNL     1     105.671 123.822 139.874  0.00  0.00    +0.000 C 
ATOM     50  C   UNL     1     106.447 124.894 140.860  0.00  0.00    +0.000 C 
ATOM     51  C   UNL     1     105.629 124.631 139.717  0.00  0.00    +0.000 C 
BRANCH  51  53
ATOM     52  O   UNL     1     104.614 125.476 139.172  0.00  0.00    +0.000 OA
ATOM     53  C   UNL     1     105.199 124.904 139.068  0.00  0.00    +0.000 C 
ENDBRANCH  51  53
ENDBRANCH  42  50
ENDBRANCH   5  42
TORSDOF 9
ENDMDL
MODEL 7
REMARK VINA RESULT:     -10.3      3.714      7.791
REMARK  Name = 131751646
REMARK  9 active torsions:
REMARK  status: ('A' for Active; 'I' for Inactive)
REMARK    1  A    between atoms: O_3  and  C_30
REMARK    2  A    between atoms: O_3  and  C_32
REMARK    3  A    between atoms: O_12  and  C_39
REMARK    4  A    between atoms: O_12  and  C_48
REMARK    5  A    between atoms: C_21  and  C_26
REMARK    6  A    between atoms: C_25  and  C_33
REMARK    7  A    between atoms: C_31  and  C_40
REMARK    8  A    between atoms: C_38  and  C_44
REMARK    9  A    between atoms: C_46  and  C_49
REMARK                            x       y       z     vdW  Elec       q    Type
REMARK                         _______ _______ _______ _____ _____    ______ ____
ROOT
ATOM      1  O   UNL     1     107.606 125.769 141.971  0.00  0.00    +0.000 OA
ATOM      2  O   UNL     1     109.641 127.231 140.523  0.00  0.00    +0.000 OA
ATOM      3  O   UNL     1     108.519 125.042 141.123  0.00  0.00    +0.000 OA
ATOM      4  C   UNL     1     107.692 127.189 142.104  0.00  0.00    +0.000 A 
ATOM      5  C   UNL     1     108.056 127.904 141.910  0.00  0.00    +0.000 A 
ATOM      6  C   UNL     1     107.969 126.484 141.778  0.00  0.00    +0.000 A 
ATOM      7  C   UNL     1     108.610 126.493 141.257  0.00  0.00    +0.000 A 
ATOM      8  C   UNL     1     108.696 127.914 141.391  0.00  0.00    +0.000 A 
ATOM      9  C   UNL     1     108.973 127.208 141.064  0.00  0.00    +0.000 A 
ATOM     10  C   UNL     1     108.888 125.752 140.924  0.00  0.00    +0.000 A 
ATOM     11  C   UNL     1     109.934 126.500 140.180  0.00  0.00    +0.000 A 
ATOM     12  C   UNL     1     109.555 125.755 140.382  0.00  0.00    +0.000 A 
ENDROOT
BRANCH   4  17
ATOM     13  O   UNL     1     107.180 127.118 143.436  0.00  0.00    +0.000 OA
ATOM     14  O   UNL     1     106.152 127.290 141.518  0.00  0.00    +0.000 OA
ATOM     15  O   UNL     1     104.871 127.271 142.558  0.00  0.00    +0.000 OA
ATOM     16  O   UNL     1     105.129 127.150 144.183  0.00  0.00    +0.000 OA
ATOM     17  C   UNL     1     107.052 127.179 142.624  0.00  0.00    +0.000 C 
ATOM     18  C   UNL     1     106.282 127.230 142.331  0.00  0.00    +0.000 C 
ATOM     19  C   UNL     1     105.641 127.220 142.851  0.00  0.00    +0.000 C 
ATOM     20  C   UNL     1     105.770 127.159 143.663  0.00  0.00    +0.000 C 
ATOM     21  C   UNL     1     106.540 127.109 143.956  0.00  0.00    +0.000 C 
BRANCH  21  23
ATOM     22  O   UNL     1     107.159 126.456 145.066  0.00  0.00    +0.000 OA
ATOM     23  C   UNL     1     106.668 127.048 144.769  0.00  0.00    +0.000 C 
ENDBRANCH  21  23
ENDBRANCH   4  17
BRANCH  11  25
ATOM     24  C   UNL     1     111.857 126.536 138.623  0.00  0.00    +0.000 A 
ATOM     25  C   UNL     1     110.574 126.512 139.661  0.00  0.00    +0.000 A 
ATOM     26  C   UNL     1     111.969 126.326 139.413  0.00  0.00    +0.000 A 
ATOM     27  C   UNL     1     111.104 126.734 138.352  0.00  0.00    +0.000 A 
ATOM     28  C   UNL     1     111.328 126.314 139.932  0.00  0.00    +0.000 A 
ATOM     29  C   UNL     1     110.462 126.723 138.871  0.00  0.00    +0.000 A 
BRANCH  24  30
ATOM     30  O   UNL     1     112.498 126.548 138.103  0.00  0.00    +0.000 OA
BRANCH  30  39
ATOM     31  O   UNL     1     112.216 125.351 137.378  0.00  0.00    +0.000 OA
ATOM     32  O   UNL     1     114.616 124.745 137.444  0.00  0.00    +0.000 OA
ATOM     33  O   UNL     1     113.534 123.749 136.696  0.00  0.00    +0.000 OA
ATOM     34  O   UNL     1     114.098 126.145 138.148  0.00  0.00    +0.000 OA
ATOM     35  C   UNL     1     113.816 124.947 137.422  0.00  0.00    +0.000 C 
ATOM     36  C   UNL     1     113.275 124.448 137.048  0.00  0.00    +0.000 C 
ATOM     37  C   UNL     1     113.557 125.647 137.774  0.00  0.00    +0.000 C 
ATOM     38  C   UNL     1     112.476 124.650 137.026  0.00  0.00    +0.000 C 
ATOM     39  C   UNL     1     112.757 125.848 137.752  0.00  0.00    +0.000 C 
BRANCH  38  41
ATOM     40  O   UNL     1     111.433 124.451 136.068  0.00  0.00    +0.000 OA
ATOM     41  C   UNL     1     111.935 124.152 136.652  0.00  0.00    +0.000 C 
ENDBRANCH  38  41
ENDBRANCH  30  39
ENDBRANCH  24  30
ENDBRANCH  11  25
BRANCH   5  42
ATOM     42  O   UNL     1     107.779 128.609 142.237  0.00  0.00    +0.000 OA
BRANCH  42  50
ATOM     43  O   UNL     1     108.943 129.125 142.885  0.00  0.00    +0.000 OA
ATOM     44  O   UNL     1     108.584 131.314 141.786  0.00  0.00    +0.000 OA
ATOM     45  O   UNL     1     107.540 130.068 141.504  0.00  0.00    +0.000 OA
ATOM     46  O   UNL     1     109.868 131.100 142.800  0.00  0.00    +0.000 OA
ATOM     47  C   UNL     1     108.704 130.584 142.152  0.00  0.00    +0.000 C 
ATOM     48  C   UNL     1     108.181 129.961 142.011  0.00  0.00    +0.000 C 
ATOM     49  C   UNL     1     109.345 130.478 142.659  0.00  0.00    +0.000 C 
ATOM     50  C   UNL     1     108.301 129.232 142.377  0.00  0.00    +0.000 C 
ATOM     51  C   UNL     1     109.465 129.748 143.025  0.00  0.00    +0.000 C 
BRANCH  51  53
ATOM     52  O   UNL     1     110.028 129.166 144.202  0.00  0.00    +0.000 OA
ATOM     53  C   UNL     1     110.107 129.641 143.533  0.00  0.00    +0.000 C 
ENDBRANCH  51  53
ENDBRANCH  42  50
ENDBRANCH   5  42
TORSDOF 9
ENDMDL
MODEL 8
REMARK VINA RESULT:     -10.2      1.868      2.843
REMARK  Name = 131751646
REMARK  9 active torsions:
REMARK  status: ('A' for Active; 'I' for Inactive)
REMARK    1  A    between atoms: O_3  and  C_30
REMARK    2  A    between atoms: O_3  and  C_32
REMARK    3  A    between atoms: O_12  and  C_39
REMARK    4  A    between atoms: O_12  and  C_48
REMARK    5  A    between atoms: C_21  and  C_26
REMARK    6  A    between atoms: C_25  and  C_33
REMARK    7  A    between atoms: C_31  and  C_40
REMARK    8  A    between atoms: C_38  and  C_44
REMARK    9  A    between atoms: C_46  and  C_49
REMARK                            x       y       z     vdW  Elec       q    Type
REMARK                         _______ _______ _______ _____ _____    ______ ____
ROOT
ATOM      1  O   UNL     1     112.234 127.542 141.272  0.00  0.00    +0.000 OA
ATOM      2  O   UNL     1     112.369 130.424 141.492  0.00  0.00    +0.000 OA
ATOM      3  O   UNL     1     112.002 128.156 142.556  0.00  0.00    +0.000 OA
ATOM      4  C   UNL     1     112.526 128.330 140.117  0.00  0.00    +0.000 A 
ATOM      5  C   UNL     1     112.646 129.068 139.768  0.00  0.00    +0.000 A 
ATOM      6  C   UNL     1     112.354 128.279 140.922  0.00  0.00    +0.000 A 
ATOM      7  C   UNL     1     112.301 128.965 141.378  0.00  0.00    +0.000 A 
ATOM      8  C   UNL     1     112.594 129.754 140.223  0.00  0.00    +0.000 A 
ATOM      9  C   UNL     1     112.421 129.702 141.028  0.00  0.00    +0.000 A 
ATOM     10  C   UNL     1     112.121 128.897 142.215  0.00  0.00    +0.000 A 
ATOM     11  C   UNL     1     112.190 130.377 142.331  0.00  0.00    +0.000 A 
ATOM     12  C   UNL     1     112.065 129.608 142.696  0.00  0.00    +0.000 A 
ENDROOT
BRANCH   4  17
ATOM     13  O   UNL     1     111.913 127.359 139.267  0.00  0.00    +0.000 OA
ATOM     14  O   UNL     1     113.964 127.530 139.994  0.00  0.00    +0.000 OA
ATOM     15  O   UNL     1     114.069 126.158 139.084  0.00  0.00    +0.000 OA
ATOM     16  O   UNL     1     112.737 125.586 138.296  0.00  0.00    +0.000 OA
ATOM     17  C   UNL     1     112.579 127.645 139.662  0.00  0.00    +0.000 C 
ATOM     18  C   UNL     1     113.298 127.245 139.601  0.00  0.00    +0.000 C 
ATOM     19  C   UNL     1     113.351 126.558 139.145  0.00  0.00    +0.000 C 
ATOM     20  C   UNL     1     112.684 126.273 138.751  0.00  0.00    +0.000 C 
ATOM     21  C   UNL     1     111.965 126.673 138.813  0.00  0.00    +0.000 C 
BRANCH  21  23
ATOM     22  O   UNL     1     110.581 126.787 138.477  0.00  0.00    +0.000 OA
ATOM     23  C   UNL     1     111.300 126.387 138.418  0.00  0.00    +0.000 C 
ENDBRANCH  21  23
ENDBRANCH   4  17
BRANCH  11  25
ATOM     24  C   UNL     1     112.031 132.438 143.692  0.00  0.00    +0.000 A 
ATOM     25  C   UNL     1     112.138 131.064 142.784  0.00  0.00    +0.000 A 
ATOM     26  C   UNL     1     111.353 131.996 143.531  0.00  0.00    +0.000 A 
ATOM     27  C   UNL     1     112.762 132.192 143.398  0.00  0.00    +0.000 A 
ATOM     28  C   UNL     1     111.406 131.309 143.077  0.00  0.00    +0.000 A 
ATOM     29  C   UNL     1     112.815 131.506 142.945  0.00  0.00    +0.000 A 
BRANCH  24  30
ATOM     30  O   UNL     1     111.978 133.125 144.145  0.00  0.00    +0.000 OA
BRANCH  30  39
ATOM     31  O   UNL     1     112.400 132.597 145.403  0.00  0.00    +0.000 OA
ATOM     32  O   UNL     1     110.609 133.873 146.540  0.00  0.00    +0.000 OA
ATOM     33  O   UNL     1     111.627 132.918 147.420  0.00  0.00    +0.000 OA
ATOM     34  O   UNL     1     110.785 133.976 144.902  0.00  0.00    +0.000 OA
ATOM     35  C   UNL     1     111.206 133.447 146.161  0.00  0.00    +0.000 C 
ATOM     36  C   UNL     1     111.715 132.970 146.601  0.00  0.00    +0.000 C 
ATOM     37  C   UNL     1     111.294 133.499 145.343  0.00  0.00    +0.000 C 
ATOM     38  C   UNL     1     112.312 132.545 146.223  0.00  0.00    +0.000 C 
ATOM     39  C   UNL     1     111.891 133.074 144.964  0.00  0.00    +0.000 C 
BRANCH  38  41
ATOM     40  O   UNL     1     113.632 132.221 146.664  0.00  0.00    +0.000 OA
ATOM     41  C   UNL     1     112.821 132.068 146.662  0.00  0.00    +0.000 C 
ENDBRANCH  38  41
ENDBRANCH  30  39
ENDBRANCH  24  30
ENDBRANCH  11  25
BRANCH   5  42
ATOM     42  O   UNL     1     112.819 129.120 138.963  0.00  0.00    +0.000 OA
BRANCH  42  50
ATOM     43  O   UNL     1     111.757 129.958 138.502  0.00  0.00    +0.000 OA
ATOM     44  O   UNL     1     113.389 131.346 137.263  0.00  0.00    +0.000 OA
ATOM     45  O   UNL     1     113.907 130.045 138.137  0.00  0.00    +0.000 OA
ATOM     46  O   UNL     1     111.783 131.722 137.216  0.00  0.00    +0.000 OA
ATOM     47  C   UNL     1     112.845 130.883 137.676  0.00  0.00    +0.000 C 
ATOM     48  C   UNL     1     113.105 130.233 138.113  0.00  0.00    +0.000 C 
ATOM     49  C   UNL     1     112.043 131.071 137.653  0.00  0.00    +0.000 C 
ATOM     50  C   UNL     1     112.561 129.771 138.526  0.00  0.00    +0.000 C 
ATOM     51  C   UNL     1     111.499 130.609 138.066  0.00  0.00    +0.000 C 
BRANCH  51  53
ATOM     52  O   UNL     1     110.134 130.197 137.963  0.00  0.00    +0.000 OA
ATOM     53  C   UNL     1     110.695 130.797 138.042  0.00  0.00    +0.000 C 
ENDBRANCH  51  53
ENDBRANCH  42  50
ENDBRANCH   5  42
TORSDOF 9
ENDMDL
MODEL 9
REMARK VINA RESULT:     -10.2      7.470      9.649
REMARK  Name = 131751646
REMARK  9 active torsions:
REMARK  status: ('A' for Active; 'I' for Inactive)
REMARK    1  A    between atoms: O_3  and  C_30
REMARK    2  A    between atoms: O_3  and  C_32
REMARK    3  A    between atoms: O_12  and  C_39
REMARK    4  A    between atoms: O_12  and  C_48
REMARK    5  A    between atoms: C_21  and  C_26
REMARK    6  A    between atoms: C_25  and  C_33
REMARK    7  A    between atoms: C_31  and  C_40
REMARK    8  A    between atoms: C_38  and  C_44
REMARK    9  A    between atoms: C_46  and  C_49
REMARK                            x       y       z     vdW  Elec       q    Type
REMARK                         _______ _______ _______ _____ _____    ______ ____
ROOT
ATOM      1  O   UNL     1     105.023 127.008 141.014  0.00  0.00    +0.000 OA
ATOM      2  O   UNL     1     104.427 129.160 142.854  0.00  0.00    +0.000 OA
ATOM      3  O   UNL     1     104.029 127.987 140.646  0.00  0.00    +0.000 OA
ATOM      4  C   UNL     1     105.711 127.087 142.263  0.00  0.00    +0.000 A 
ATOM      5  C   UNL     1     105.843 127.467 142.984  0.00  0.00    +0.000 A 
ATOM      6  C   UNL     1     105.155 127.388 141.734  0.00  0.00    +0.000 A 
ATOM      7  C   UNL     1     104.730 128.070 141.924  0.00  0.00    +0.000 A 
ATOM      8  C   UNL     1     105.419 128.148 143.174  0.00  0.00    +0.000 A 
ATOM      9  C   UNL     1     104.863 128.449 142.645  0.00  0.00    +0.000 A 
ATOM     10  C   UNL     1     104.154 128.373 141.364  0.00  0.00    +0.000 A 
ATOM     11  C   UNL     1     103.846 129.479 142.307  0.00  0.00    +0.000 A 
ATOM     12  C   UNL     1     103.709 129.083 141.557  0.00  0.00    +0.000 A 
ENDROOT
BRANCH   4  17
ATOM     13  O   UNL     1     105.846 125.664 142.290  0.00  0.00    +0.000 OA
ATOM     14  O   UNL     1     107.140 127.206 141.447  0.00  0.00    +0.000 OA
ATOM     15  O   UNL     1     107.989 125.844 141.065  0.00  0.00    +0.000 OA
ATOM     16  O   UNL     1     107.409 124.361 141.500  0.00  0.00    +0.000 OA
ATOM     17  C   UNL     1     106.135 126.406 142.073  0.00  0.00    +0.000 C 
ATOM     18  C   UNL     1     106.850 126.466 141.664  0.00  0.00    +0.000 C 
ATOM     19  C   UNL     1     107.274 125.784 141.473  0.00  0.00    +0.000 C 
ATOM     20  C   UNL     1     106.984 125.043 141.691  0.00  0.00    +0.000 C 
ATOM     21  C   UNL     1     106.269 124.983 142.099  0.00  0.00    +0.000 C 
BRANCH  21  23
ATOM     22  O   UNL     1     105.249 124.178 142.691  0.00  0.00    +0.000 OA
ATOM     23  C   UNL     1     105.980 124.242 142.316  0.00  0.00    +0.000 C 
ENDBRANCH  21  23
ENDBRANCH   4  17
BRANCH  11  25
ATOM     24  C   UNL     1     102.575 131.523 142.884  0.00  0.00    +0.000 A 
ATOM     25  C   UNL     1     103.423 130.160 142.500  0.00  0.00    +0.000 A 
ATOM     26  C   UNL     1     102.321 131.039 142.266  0.00  0.00    +0.000 A 
ATOM     27  C   UNL     1     103.254 131.325 143.310  0.00  0.00    +0.000 A 
ATOM     28  C   UNL     1     102.745 130.357 142.074  0.00  0.00    +0.000 A 
ATOM     29  C   UNL     1     103.678 130.644 143.118  0.00  0.00    +0.000 A 
BRANCH  24  30
ATOM     30  O   UNL     1     102.152 132.205 143.076  0.00  0.00    +0.000 OA
BRANCH  30  39
ATOM     31  O   UNL     1     102.856 133.137 142.255  0.00  0.00    +0.000 OA
ATOM     32  O   UNL     1     100.710 134.191 141.613  0.00  0.00    +0.000 OA
ATOM     33  O   UNL     1     102.129 134.773 141.005  0.00  0.00    +0.000 OA
ATOM     34  O   UNL     1     100.721 132.906 142.648  0.00  0.00    +0.000 OA
ATOM     35  C   UNL     1     101.425 133.840 141.827  0.00  0.00    +0.000 C 
ATOM     36  C   UNL     1     102.135 134.131 141.523  0.00  0.00    +0.000 C 
ATOM     37  C   UNL     1     101.431 133.198 142.345  0.00  0.00    +0.000 C 
ATOM     38  C   UNL     1     102.850 133.780 141.737  0.00  0.00    +0.000 C 
ATOM     39  C   UNL     1     102.146 132.847 142.559  0.00  0.00    +0.000 C 
BRANCH  38  41
ATOM     40  O   UNL     1     104.174 134.277 141.945  0.00  0.00    +0.000 OA
ATOM     41  C   UNL     1     103.560 134.071 141.434  0.00  0.00    +0.000 C 
ENDBRANCH  38  41
ENDBRANCH  30  39
ENDBRANCH  24  30
ENDBRANCH  11  25
BRANCH   5  42
ATOM     42  O   UNL     1     106.399 127.166 143.513  0.00  0.00    +0.000 OA
BRANCH  42  50
ATOM     43  O   UNL     1     105.630 126.899 144.687  0.00  0.00    +0.000 OA
ATOM     44  O   UNL     1     107.242 128.202 146.040  0.00  0.00    +0.000 OA
ATOM     45  O   UNL     1     107.474 128.035 144.415  0.00  0.00    +0.000 OA
ATOM     46  O   UNL     1     105.935 127.500 146.763  0.00  0.00    +0.000 OA
ATOM     47  C   UNL     1     106.704 127.767 145.589  0.00  0.00    +0.000 C 
ATOM     48  C   UNL     1     106.821 127.684 144.776  0.00  0.00    +0.000 C 
ATOM     49  C   UNL     1     106.052 127.417 145.951  0.00  0.00    +0.000 C 
ATOM     50  C   UNL     1     106.284 127.250 144.326  0.00  0.00    +0.000 C 
ATOM     51  C   UNL     1     105.514 126.983 145.500  0.00  0.00    +0.000 C 
BRANCH  51  53
ATOM     52  O   UNL     1     104.669 125.847 145.694  0.00  0.00    +0.000 OA
ATOM     53  C   UNL     1     104.860 126.632 145.861  0.00  0.00    +0.000 C 
ENDBRANCH  51  53
ENDBRANCH  42  50
ENDBRANCH   5  42
TORSDOF 9
ENDMDL
MODEL 10
REMARK VINA RESULT:     -10.1      3.506      4.957
REMARK  Name = 131751646
REMARK  9 active torsions:
REMARK  status: ('A' for Active; 'I' for Inactive)
REMARK    1  A    between atoms: O_3  and  C_30
REMARK    2  A    between atoms: O_3  and  C_32
REMARK    3  A    between atoms: O_12  and  C_39
REMARK    4  A    between atoms: O_12  and  C_48
REMARK    5  A    between atoms: C_21  and  C_26
REMARK    6  A    between atoms: C_25  and  C_33
REMARK    7  A    between atoms: C_31  and  C_40
REMARK    8  A    between atoms: C_38  and  C_44
REMARK    9  A    between atoms: C_46  and  C_49
REMARK                            x       y       z     vdW  Elec       q    Type
REMARK                         _______ _______ _______ _____ _____    ______ ____
ROOT
ATOM      1  O   UNL     1     112.815 128.845 138.796  0.00  0.00    +0.000 OA
ATOM      2  O   UNL     1     110.070 128.531 139.658  0.00  0.00    +0.000 OA
ATOM      3  O   UNL     1     112.540 128.089 139.994  0.00  0.00    +0.000 OA
ATOM      4  C   UNL     1     111.759 129.435 138.036  0.00  0.00    +0.000 A 
ATOM      5  C   UNL     1     110.954 129.581 137.924  0.00  0.00    +0.000 A 
ATOM      6  C   UNL     1     112.011 128.991 138.684  0.00  0.00    +0.000 A 
ATOM      7  C   UNL     1     111.459 128.691 139.219  0.00  0.00    +0.000 A 
ATOM      8  C   UNL     1     110.403 129.282 138.459  0.00  0.00    +0.000 A 
ATOM      9  C   UNL     1     110.655 128.837 139.106  0.00  0.00    +0.000 A 
ATOM     10  C   UNL     1     111.734 128.230 139.889  0.00  0.00    +0.000 A 
ATOM     11  C   UNL     1     110.326 128.067 140.334  0.00  0.00    +0.000 A 
ATOM     12  C   UNL     1     111.164 127.915 140.451  0.00  0.00    +0.000 A 
ENDROOT
BRANCH   4  17
ATOM     13  O   UNL     1     112.522 129.294 136.836  0.00  0.00    +0.000 OA
ATOM     14  O   UNL     1     112.442 130.915 138.296  0.00  0.00    +0.000 OA
ATOM     15  O   UNL     1     113.546 131.513 137.226  0.00  0.00    +0.000 OA
ATOM     16  O   UNL     1     113.968 130.632 135.896  0.00  0.00    +0.000 OA
ATOM     17  C   UNL     1     112.311 129.734 137.501  0.00  0.00    +0.000 C 
ATOM     18  C   UNL     1     112.652 130.474 137.631  0.00  0.00    +0.000 C 
ATOM     19  C   UNL     1     113.205 130.773 137.096  0.00  0.00    +0.000 C 
ATOM     20  C   UNL     1     113.415 130.332 136.431  0.00  0.00    +0.000 C 
ATOM     21  C   UNL     1     113.074 129.593 136.301  0.00  0.00    +0.000 C 
BRANCH  21  23
ATOM     22  O   UNL     1     112.988 128.390 135.534  0.00  0.00    +0.000 OA
ATOM     23  C   UNL     1     113.285 129.152 135.636  0.00  0.00    +0.000 C 
ENDBRANCH  21  23
ENDBRANCH   4  17
BRANCH  11  25
ATOM     24  C   UNL     1     108.665 127.175 141.937  0.00  0.00    +0.000 A 
ATOM     25  C   UNL     1     109.773 127.769 140.867  0.00  0.00    +0.000 A 
ATOM     26  C   UNL     1     109.084 127.863 142.116  0.00  0.00    +0.000 A 
ATOM     27  C   UNL     1     108.800 126.785 141.223  0.00  0.00    +0.000 A 
ATOM     28  C   UNL     1     109.638 128.160 141.581  0.00  0.00    +0.000 A 
ATOM     29  C   UNL     1     109.354 127.081 140.688  0.00  0.00    +0.000 A 
BRANCH  24  30
ATOM     30  O   UNL     1     108.111 126.877 142.471  0.00  0.00    +0.000 OA
BRANCH  30  39
ATOM     31  O   UNL     1     107.040 127.787 142.219  0.00  0.00    +0.000 OA
ATOM     32  O   UNL     1     105.431 125.906 142.270  0.00  0.00    +0.000 OA
ATOM     33  O   UNL     1     104.894 127.443 142.000  0.00  0.00    +0.000 OA
ATOM     34  O   UNL     1     107.039 125.623 142.506  0.00  0.00    +0.000 OA
ATOM     35  C   UNL     1     105.967 126.533 142.253  0.00  0.00    +0.000 C 
ATOM     36  C   UNL     1     105.698 127.302 142.118  0.00  0.00    +0.000 C 
ATOM     37  C   UNL     1     106.771 126.392 142.371  0.00  0.00    +0.000 C 
ATOM     38  C   UNL     1     106.234 127.929 142.101  0.00  0.00    +0.000 C 
ATOM     39  C   UNL     1     107.307 127.019 142.353  0.00  0.00    +0.000 C 
BRANCH  38  41
ATOM     40  O   UNL     1     106.217 129.110 141.297  0.00  0.00    +0.000 OA
ATOM     41  C   UNL     1     105.967 128.697 141.966  0.00  0.00    +0.000 C 
ENDBRANCH  38  41
ENDBRANCH  30  39
ENDBRANCH  24  30
ENDBRANCH  11  25
BRANCH   5  42
ATOM     42  O   UNL     1     110.702 130.025 137.277  0.00  0.00    +0.000 OA
BRANCH  42  50
ATOM     43  O   UNL     1     109.864 129.097 136.586  0.00  0.00    +0.000 OA
ATOM     44  O   UNL     1     108.086 130.812 136.438  0.00  0.00    +0.000 OA
ATOM     45  O   UNL     1     109.517 131.169 137.178  0.00  0.00    +0.000 OA
ATOM     46  O   UNL     1     107.840 129.311 135.797  0.00  0.00    +0.000 OA
ATOM     47  C   UNL     1     108.678 130.240 136.488  0.00  0.00    +0.000 C 
ATOM     48  C   UNL     1     109.394 130.419 136.858  0.00  0.00    +0.000 C 
ATOM     49  C   UNL     1     108.556 129.491 136.167  0.00  0.00    +0.000 C 
ATOM     50  C   UNL     1     109.987 129.848 136.907  0.00  0.00    +0.000 C 
ATOM     51  C   UNL     1     109.148 128.919 136.216  0.00  0.00    +0.000 C 
BRANCH  51  53
ATOM     52  O   UNL     1     109.620 127.808 135.451  0.00  0.00    +0.000 OA
ATOM     53  C   UNL     1     109.026 128.168 135.896  0.00  0.00    +0.000 C 
ENDBRANCH  51  53
ENDBRANCH  42  50
ENDBRANCH   5  42
TORSDOF 9
ENDMDL
