MODEL 1
REMARK VINA RESULT:      -9.4      0.000      0.000
REMARK  Name = 44259483
REMARK  5 active torsions:
REMARK  status: ('A' for Active; 'I' for Inactive)
REMARK    1  A    between atoms: O_2  and  C_18
REMARK    2  A    between atoms: O_2  and  C_20
REMARK    3  A    between atoms: O_11  and  C_32
REMARK    4  A    between atoms: C_17  and  C_19
REMARK    5  A    between atoms: C_27  and  C_29
REMARK                            x       y       z     vdW  Elec       q    Type
REMARK                         _______ _______ _______ _____ _____    ______ ____
ROOT
ATOM      1  O   UNL     1     110.095 130.110 136.608  0.00  0.00    +0.000 OA
ATOM      2  O   UNL     1     108.041 128.358 135.580  0.00  0.00    +0.000 OA
ATOM      3  O   UNL     1     108.154 131.091 136.799  0.00  0.00    +0.000 OA
ATOM      4  O   UNL     1     107.712 129.658 136.112  0.00  0.00    +0.000 OA
ATOM      5  C   UNL     1     110.256 128.063 135.726  0.00  0.00    +0.000 A 
ATOM      6  C   UNL     1     110.480 128.812 136.084  0.00  0.00    +0.000 A 
ATOM      7  C   UNL     1     109.429 127.906 135.554  0.00  0.00    +0.000 A 
ATOM      8  C   UNL     1     109.874 129.393 136.265  0.00  0.00    +0.000 A 
ATOM      9  C   UNL     1     109.080 129.242 136.099  0.00  0.00    +0.000 A 
ATOM     10  C   UNL     1     108.837 128.500 135.742  0.00  0.00    +0.000 A 
ATOM     11  C   UNL     1     108.506 129.808 136.277  0.00  0.00    +0.000 A 
ATOM     12  C   UNL     1     109.521 130.676 136.786  0.00  0.00    +0.000 A 
ATOM     13  C   UNL     1     108.727 130.525 136.621  0.00  0.00    +0.000 A 
ENDROOT
BRANCH  12  16
ATOM     14  O   UNL     1     110.296 133.414 136.522  0.00  0.00    +0.000 OA
ATOM     15  O   UNL     1     110.408 133.541 138.162  0.00  0.00    +0.000 OA
ATOM     16  C   UNL     1     109.743 131.392 137.130  0.00  0.00    +0.000 A 
ATOM     17  C   UNL     1     109.799 131.455 137.951  0.00  0.00    +0.000 A 
ATOM     18  C   UNL     1     109.908 132.045 136.654  0.00  0.00    +0.000 A 
ATOM     19  C   UNL     1     110.021 132.172 138.295  0.00  0.00    +0.000 A 
ATOM     20  C   UNL     1     110.130 132.761 136.998  0.00  0.00    +0.000 A 
ATOM     21  C   UNL     1     110.186 132.825 137.819  0.00  0.00    +0.000 A 
BRANCH  19  22
ATOM     22  O   UNL     1     110.077 132.236 139.115  0.00  0.00    +0.000 OA
ATOM     23  C   UNL     1     110.161 131.558 139.578  0.00  0.00    +0.000 C 
ENDBRANCH  19  22
ENDBRANCH  12  16
BRANCH   5  24
ATOM     24  O   UNL     1     110.831 127.498 135.549  0.00  0.00    +0.000 OA
BRANCH  24  33
ATOM     25  O   UNL     1     110.951 126.900 136.841  0.00  0.00    +0.000 OA
ATOM     26  O   UNL     1     111.054 124.660 135.793  0.00  0.00    +0.000 OA
ATOM     27  O   UNL     1     111.140 124.808 137.433  0.00  0.00    +0.000 OA
ATOM     28  O   UNL     1     110.900 126.005 134.850  0.00  0.00    +0.000 OA
ATOM     29  C   UNL     1     111.020 125.406 136.142  0.00  0.00    +0.000 C 
ATOM     30  C   UNL     1     111.062 125.481 136.963  0.00  0.00    +0.000 C 
ATOM     31  C   UNL     1     110.942 126.080 135.671  0.00  0.00    +0.000 C 
ATOM     32  C   UNL     1     111.028 126.227 137.311  0.00  0.00    +0.000 C 
ATOM     33  C   UNL     1     110.908 126.826 136.019  0.00  0.00    +0.000 C 
BRANCH  32  35
ATOM     34  O   UNL     1     111.619 126.818 138.471  0.00  0.00    +0.000 OA
ATOM     35  C   UNL     1     111.071 126.301 138.132  0.00  0.00    +0.000 C 
ENDBRANCH  32  35
ENDBRANCH  24  33
ENDBRANCH   5  24
TORSDOF 5
ENDMDL
MODEL 2
REMARK VINA RESULT:      -9.3      1.779      5.518
REMARK  Name = 44259483
REMARK  5 active torsions:
REMARK  status: ('A' for Active; 'I' for Inactive)
REMARK    1  A    between atoms: O_2  and  C_18
REMARK    2  A    between atoms: O_2  and  C_20
REMARK    3  A    between atoms: O_11  and  C_32
REMARK    4  A    between atoms: C_17  and  C_19
REMARK    5  A    between atoms: C_27  and  C_29
REMARK                            x       y       z     vdW  Elec       q    Type
REMARK                         _______ _______ _______ _____ _____    ______ ____
ROOT
ATOM      1  O   UNL     1     112.019 126.769 136.229  0.00  0.00    +0.000 OA
ATOM      2  O   UNL     1     109.570 125.988 134.911  0.00  0.00    +0.000 OA
ATOM      3  O   UNL     1     111.855 124.593 136.253  0.00  0.00    +0.000 OA
ATOM      4  O   UNL     1     110.466 125.002 135.461  0.00  0.00    +0.000 OA
ATOM      5  C   UNL     1     110.430 128.023 135.280  0.00  0.00    +0.000 A 
ATOM      6  C   UNL     1     111.152 127.803 135.693  0.00  0.00    +0.000 A 
ATOM      7  C   UNL     1     109.892 127.408 135.014  0.00  0.00    +0.000 A 
ATOM      8  C   UNL     1     111.325 126.973 135.833  0.00  0.00    +0.000 A 
ATOM      9  C   UNL     1     110.807 126.384 135.577  0.00  0.00    +0.000 A 
ATOM     10  C   UNL     1     110.081 126.584 135.163  0.00  0.00    +0.000 A 
ATOM     11  C   UNL     1     110.984 125.591 135.717  0.00  0.00    +0.000 A 
ATOM     12  C   UNL     1     112.196 125.975 136.369  0.00  0.00    +0.000 A 
ATOM     13  C   UNL     1     111.678 125.386 136.113  0.00  0.00    +0.000 A 
ENDROOT
BRANCH  12  16
ATOM     14  O   UNL     1     114.877 124.987 136.318  0.00  0.00    +0.000 OA
ATOM     15  O   UNL     1     114.972 125.161 137.955  0.00  0.00    +0.000 OA
ATOM     16  C   UNL     1     112.890 125.772 136.765  0.00  0.00    +0.000 A 
ATOM     17  C   UNL     1     112.938 125.859 137.584  0.00  0.00    +0.000 A 
ATOM     18  C   UNL     1     113.536 125.481 136.343  0.00  0.00    +0.000 A 
ATOM     19  C   UNL     1     113.632 125.656 137.981  0.00  0.00    +0.000 A 
ATOM     20  C   UNL     1     114.231 125.278 136.740  0.00  0.00    +0.000 A 
ATOM     21  C   UNL     1     114.278 125.365 137.559  0.00  0.00    +0.000 A 
BRANCH  19  22
ATOM     22  O   UNL     1     113.680 125.743 138.800  0.00  0.00    +0.000 OA
ATOM     23  C   UNL     1     113.439 126.447 139.156  0.00  0.00    +0.000 C 
ENDBRANCH  19  22
ENDBRANCH  12  16
BRANCH   5  24
ATOM     24  O   UNL     1     110.256 128.817 135.141  0.00  0.00    +0.000 OA
BRANCH  24  33
ATOM     25  O   UNL     1     109.978 129.207 136.488  0.00  0.00    +0.000 OA
ATOM     26  O   UNL     1     108.075 130.577 135.697  0.00  0.00    +0.000 OA
ATOM     27  O   UNL     1     108.431 130.510 137.306  0.00  0.00    +0.000 OA
ATOM     28  O   UNL     1     108.988 129.731 134.614  0.00  0.00    +0.000 OA
ATOM     29  C   UNL     1     108.709 130.121 135.961  0.00  0.00    +0.000 C 
ATOM     30  C   UNL     1     108.888 130.086 136.765  0.00  0.00    +0.000 C 
ATOM     31  C   UNL     1     109.166 129.697 135.419  0.00  0.00    +0.000 C 
ATOM     32  C   UNL     1     109.521 129.630 137.029  0.00  0.00    +0.000 C 
ATOM     33  C   UNL     1     109.800 129.240 135.682  0.00  0.00    +0.000 C 
BRANCH  32  35
ATOM     34  O   UNL     1     110.468 129.751 138.092  0.00  0.00    +0.000 OA
ATOM     35  C   UNL     1     109.700 129.596 137.833  0.00  0.00    +0.000 C 
ENDBRANCH  32  35
ENDBRANCH  24  33
ENDBRANCH   5  24
TORSDOF 5
ENDMDL
MODEL 3
REMARK VINA RESULT:      -9.1      0.824      5.411
REMARK  Name = 44259483
REMARK  5 active torsions:
REMARK  status: ('A' for Active; 'I' for Inactive)
REMARK    1  A    between atoms: O_2  and  C_18
REMARK    2  A    between atoms: O_2  and  C_20
REMARK    3  A    between atoms: O_11  and  C_32
REMARK    4  A    between atoms: C_17  and  C_19
REMARK    5  A    between atoms: C_27  and  C_29
REMARK                            x       y       z     vdW  Elec       q    Type
REMARK                         _______ _______ _______ _____ _____    ______ ____
ROOT
ATOM      1  O   UNL     1     110.281 128.228 136.216  0.00  0.00    +0.000 OA
ATOM      2  O   UNL     1     107.932 129.831 135.707  0.00  0.00    +0.000 OA
ATOM      3  O   UNL     1     108.563 126.912 135.931  0.00  0.00    +0.000 OA
ATOM      4  O   UNL     1     107.857 128.392 135.743  0.00  0.00    +0.000 OA
ATOM      5  C   UNL     1     110.050 130.448 136.094  0.00  0.00    +0.000 A 
ATOM      6  C   UNL     1     110.412 129.674 136.191  0.00  0.00    +0.000 A 
ATOM      7  C   UNL     1     109.208 130.504 135.930  0.00  0.00    +0.000 A 
ATOM      8  C   UNL     1     109.928 128.968 136.122  0.00  0.00    +0.000 A 
ATOM      9  C   UNL     1     109.120 129.022 135.964  0.00  0.00    +0.000 A 
ATOM     10  C   UNL     1     108.740 129.786 135.865  0.00  0.00    +0.000 A 
ATOM     11  C   UNL     1     108.665 128.337 135.901  0.00  0.00    +0.000 A 
ATOM     12  C   UNL     1     109.826 127.543 136.152  0.00  0.00    +0.000 A 
ATOM     13  C   UNL     1     109.018 127.597 135.994  0.00  0.00    +0.000 A 
ENDROOT
BRANCH  12  16
ATOM     14  O   UNL     1     111.047 125.220 135.020  0.00  0.00    +0.000 OA
ATOM     15  O   UNL     1     111.240 124.586 136.530  0.00  0.00    +0.000 OA
ATOM     16  C   UNL     1     110.179 126.804 136.246  0.00  0.00    +0.000 A 
ATOM     17  C   UNL     1     110.276 126.486 137.001  0.00  0.00    +0.000 A 
ATOM     18  C   UNL     1     110.436 126.381 135.585  0.00  0.00    +0.000 A 
ATOM     19  C   UNL     1     110.630 125.747 137.096  0.00  0.00    +0.000 A 
ATOM     20  C   UNL     1     110.790 125.642 135.680  0.00  0.00    +0.000 A 
ATOM     21  C   UNL     1     110.887 125.325 136.436  0.00  0.00    +0.000 A 
BRANCH  19  22
ATOM     22  O   UNL     1     110.727 125.429 137.851  0.00  0.00    +0.000 OA
ATOM     23  C   UNL     1     110.867 125.926 138.495  0.00  0.00    +0.000 C 
ENDBRANCH  19  22
ENDBRANCH  12  16
BRANCH   5  24
ATOM     24  O   UNL     1     110.507 131.131 136.158  0.00  0.00    +0.000 OA
BRANCH  24  33
ATOM     25  O   UNL     1     110.458 131.272 137.580  0.00  0.00    +0.000 OA
ATOM     26  O   UNL     1     110.215 133.722 137.330  0.00  0.00    +0.000 OA
ATOM     27  O   UNL     1     110.248 133.045 138.833  0.00  0.00    +0.000 OA
ATOM     28  O   UNL     1     110.345 132.765 135.992  0.00  0.00    +0.000 OA
ATOM     29  C   UNL     1     110.296 132.905 137.413  0.00  0.00    +0.000 C 
ATOM     30  C   UNL     1     110.313 132.566 138.165  0.00  0.00    +0.000 C 
ATOM     31  C   UNL     1     110.361 132.426 136.744  0.00  0.00    +0.000 C 
ATOM     32  C   UNL     1     110.394 131.751 138.248  0.00  0.00    +0.000 C 
ATOM     33  C   UNL     1     110.442 131.610 136.827  0.00  0.00    +0.000 C 
BRANCH  32  35
ATOM     34  O   UNL     1     111.087 131.016 139.259  0.00  0.00    +0.000 OA
ATOM     35  C   UNL     1     110.410 131.412 139.000  0.00  0.00    +0.000 C 
ENDBRANCH  32  35
ENDBRANCH  24  33
ENDBRANCH   5  24
TORSDOF 5
ENDMDL
MODEL 4
REMARK VINA RESULT:      -9.1      1.472      5.665
REMARK  Name = 44259483
REMARK  5 active torsions:
REMARK  status: ('A' for Active; 'I' for Inactive)
REMARK    1  A    between atoms: O_2  and  C_18
REMARK    2  A    between atoms: O_2  and  C_20
REMARK    3  A    between atoms: O_11  and  C_32
REMARK    4  A    between atoms: C_17  and  C_19
REMARK    5  A    between atoms: C_27  and  C_29
REMARK                            x       y       z     vdW  Elec       q    Type
REMARK                         _______ _______ _______ _____ _____    ______ ____
ROOT
ATOM      1  O   UNL     1     111.446 127.216 136.207  0.00  0.00    +0.000 OA
ATOM      2  O   UNL     1     113.320 129.290 135.478  0.00  0.00    +0.000 OA
ATOM      3  O   UNL     1     113.471 126.547 136.672  0.00  0.00    +0.000 OA
ATOM      4  O   UNL     1     113.772 128.047 136.053  0.00  0.00    +0.000 OA
ATOM      5  C   UNL     1     111.088 129.231 135.308  0.00  0.00    +0.000 A 
ATOM      6  C   UNL     1     110.937 128.449 135.632  0.00  0.00    +0.000 A 
ATOM      7  C   UNL     1     111.896 129.519 135.255  0.00  0.00    +0.000 A 
ATOM      8  C   UNL     1     111.596 127.966 135.897  0.00  0.00    +0.000 A 
ATOM      9  C   UNL     1     112.372 128.243 135.846  0.00  0.00    +0.000 A 
ATOM     10  C   UNL     1     112.542 129.021 135.526  0.00  0.00    +0.000 A 
ATOM     11  C   UNL     1     112.996 127.770 136.104  0.00  0.00    +0.000 A 
ATOM     12  C   UNL     1     112.070 126.743 136.465  0.00  0.00    +0.000 A 
ATOM     13  C   UNL     1     112.846 127.020 136.414  0.00  0.00    +0.000 A 
ENDROOT
BRANCH  12  16
ATOM     14  O   UNL     1     111.924 123.909 136.129  0.00  0.00    +0.000 OA
ATOM     15  O   UNL     1     111.464 123.746 137.704  0.00  0.00    +0.000 OA
ATOM     16  C   UNL     1     111.919 125.994 136.774  0.00  0.00    +0.000 A 
ATOM     17  C   UNL     1     111.689 125.913 137.562  0.00  0.00    +0.000 A 
ATOM     18  C   UNL     1     111.998 125.326 136.296  0.00  0.00    +0.000 A 
ATOM     19  C   UNL     1     111.537 125.163 137.872  0.00  0.00    +0.000 A 
ATOM     20  C   UNL     1     111.846 124.577 136.607  0.00  0.00    +0.000 A 
ATOM     21  C   UNL     1     111.616 124.495 137.395  0.00  0.00    +0.000 A 
BRANCH  19  22
ATOM     22  O   UNL     1     111.307 125.081 138.660  0.00  0.00    +0.000 OA
ATOM     23  C   UNL     1     110.850 125.666 139.021  0.00  0.00    +0.000 C 
ENDBRANCH  19  22
ENDBRANCH  12  16
BRANCH   5  24
ATOM     24  O   UNL     1     110.461 129.702 135.051  0.00  0.00    +0.000 OA
BRANCH  24  33
ATOM     25  O   UNL     1     110.216 130.441 136.249  0.00  0.00    +0.000 OA
ATOM     26  O   UNL     1     107.780 130.138 135.938  0.00  0.00    +0.000 OA
ATOM     27  O   UNL     1     108.347 130.977 137.239  0.00  0.00    +0.000 OA
ATOM     28  O   UNL     1     108.837 129.501 134.843  0.00  0.00    +0.000 OA
ATOM     29  C   UNL     1     108.592 130.239 136.041  0.00  0.00    +0.000 C 
ATOM     30  C   UNL     1     108.876 130.659 136.692  0.00  0.00    +0.000 C 
ATOM     31  C   UNL     1     109.121 129.920 135.494  0.00  0.00    +0.000 C 
ATOM     32  C   UNL     1     109.687 130.759 136.796  0.00  0.00    +0.000 C 
ATOM     33  C   UNL     1     109.932 130.021 135.598  0.00  0.00    +0.000 C 
BRANCH  32  35
ATOM     34  O   UNL     1     110.527 131.780 137.339  0.00  0.00    +0.000 OA
ATOM     35  C   UNL     1     109.971 131.179 137.447  0.00  0.00    +0.000 C 
ENDBRANCH  32  35
ENDBRANCH  24  33
ENDBRANCH   5  24
TORSDOF 5
ENDMDL
MODEL 5
REMARK VINA RESULT:      -9.1      2.133      5.959
REMARK  Name = 44259483
REMARK  5 active torsions:
REMARK  status: ('A' for Active; 'I' for Inactive)
REMARK    1  A    between atoms: O_2  and  C_18
REMARK    2  A    between atoms: O_2  and  C_20
REMARK    3  A    between atoms: O_11  and  C_32
REMARK    4  A    between atoms: C_17  and  C_19
REMARK    5  A    between atoms: C_27  and  C_29
REMARK                            x       y       z     vdW  Elec       q    Type
REMARK                         _______ _______ _______ _____ _____    ______ ____
ROOT
ATOM      1  O   UNL     1     112.521 127.347 137.110  0.00  0.00    +0.000 OA
ATOM      2  O   UNL     1     112.930 129.839 135.707  0.00  0.00    +0.000 OA
ATOM      3  O   UNL     1     114.322 127.193 135.886  0.00  0.00    +0.000 OA
ATOM      4  O   UNL     1     113.843 128.734 135.544  0.00  0.00    +0.000 OA
ATOM      5  C   UNL     1     111.317 129.230 137.136  0.00  0.00    +0.000 A 
ATOM      6  C   UNL     1     111.572 128.427 137.310  0.00  0.00    +0.000 A 
ATOM      7  C   UNL     1     111.777 129.711 136.592  0.00  0.00    +0.000 A 
ATOM      8  C   UNL     1     112.281 128.118 136.938  0.00  0.00    +0.000 A 
ATOM      9  C   UNL     1     112.722 128.580 136.416  0.00  0.00    +0.000 A 
ATOM     10  C   UNL     1     112.484 129.384 136.230  0.00  0.00    +0.000 A 
ATOM     11  C   UNL     1     113.402 128.272 136.066  0.00  0.00    +0.000 A 
ATOM     12  C   UNL     1     113.201 127.039 136.759  0.00  0.00    +0.000 A 
ATOM     13  C   UNL     1     113.642 127.501 136.237  0.00  0.00    +0.000 A 
ENDROOT
BRANCH  12  16
ATOM     14  O   UNL     1     114.899 125.230 138.178  0.00  0.00    +0.000 OA
ATOM     15  O   UNL     1     114.154 123.955 137.444  0.00  0.00    +0.000 OA
ATOM     16  C   UNL     1     113.439 126.268 136.930  0.00  0.00    +0.000 A 
ATOM     17  C   UNL     1     113.067 125.630 136.563  0.00  0.00    +0.000 A 
ATOM     18  C   UNL     1     114.050 126.135 137.469  0.00  0.00    +0.000 A 
ATOM     19  C   UNL     1     113.305 124.859 136.734  0.00  0.00    +0.000 A 
ATOM     20  C   UNL     1     114.288 125.364 137.640  0.00  0.00    +0.000 A 
ATOM     21  C   UNL     1     113.915 124.726 137.273  0.00  0.00    +0.000 A 
BRANCH  19  22
ATOM     22  O   UNL     1     112.932 124.220 136.368  0.00  0.00    +0.000 OA
ATOM     23  C   UNL     1     112.109 124.180 136.345  0.00  0.00    +0.000 C 
ENDBRANCH  19  22
ENDBRANCH  12  16
BRANCH   5  24
ATOM     24  O   UNL     1     110.637 129.536 137.488  0.00  0.00    +0.000 OA
BRANCH  24  33
ATOM     25  O   UNL     1     109.663 128.963 136.614  0.00  0.00    +0.000 OA
ATOM     26  O   UNL     1     108.409 131.097 136.611  0.00  0.00    +0.000 OA
ATOM     27  O   UNL     1     107.853 129.813 135.738  0.00  0.00    +0.000 OA
ATOM     28  O   UNL     1     109.801 130.959 137.487  0.00  0.00    +0.000 OA
ATOM     29  C   UNL     1     108.827 130.385 136.612  0.00  0.00    +0.000 C 
ATOM     30  C   UNL     1     108.549 129.743 136.175  0.00  0.00    +0.000 C 
ATOM     31  C   UNL     1     109.523 130.316 137.050  0.00  0.00    +0.000 C 
ATOM     32  C   UNL     1     108.967 129.032 136.176  0.00  0.00    +0.000 C 
ATOM     33  C   UNL     1     109.941 129.606 137.051  0.00  0.00    +0.000 C 
BRANCH  32  35
ATOM     34  O   UNL     1     108.507 127.680 136.121  0.00  0.00    +0.000 OA
ATOM     35  C   UNL     1     108.689 128.390 135.740  0.00  0.00    +0.000 C 
ENDBRANCH  32  35
ENDBRANCH  24  33
ENDBRANCH   5  24
TORSDOF 5
ENDMDL
MODEL 6
REMARK VINA RESULT:      -9.1      7.579      8.621
REMARK  Name = 44259483
REMARK  5 active torsions:
REMARK  status: ('A' for Active; 'I' for Inactive)
REMARK    1  A    between atoms: O_2  and  C_18
REMARK    2  A    between atoms: O_2  and  C_20
REMARK    3  A    between atoms: O_11  and  C_32
REMARK    4  A    between atoms: C_17  and  C_19
REMARK    5  A    between atoms: C_27  and  C_29
REMARK                            x       y       z     vdW  Elec       q    Type
REMARK                         _______ _______ _______ _____ _____    ______ ____
ROOT
ATOM      1  O   UNL     1     104.971 127.548 142.365  0.00  0.00    +0.000 OA
ATOM      2  O   UNL     1     107.827 127.161 142.165  0.00  0.00    +0.000 OA
ATOM      3  O   UNL     1     105.869 129.310 141.441  0.00  0.00    +0.000 OA
ATOM      4  O   UNL     1     107.205 128.374 141.693  0.00  0.00    +0.000 OA
ATOM      5  C   UNL     1     106.239 125.816 142.989  0.00  0.00    +0.000 A 
ATOM      6  C   UNL     1     105.546 126.308 142.855  0.00  0.00    +0.000 A 
ATOM      7  C   UNL     1     107.014 126.103 142.755  0.00  0.00    +0.000 A 
ATOM      8  C   UNL     1     105.639 127.080 142.490  0.00  0.00    +0.000 A 
ATOM      9  C   UNL     1     106.384 127.355 142.266  0.00  0.00    +0.000 A 
ATOM     10  C   UNL     1     107.087 126.878 142.392  0.00  0.00    +0.000 A 
ATOM     11  C   UNL     1     106.461 128.099 141.917  0.00  0.00    +0.000 A 
ATOM     12  C   UNL     1     105.048 128.291 142.015  0.00  0.00    +0.000 A 
ATOM     13  C   UNL     1     105.793 128.566 141.791  0.00  0.00    +0.000 A 
ENDROOT
BRANCH  12  16
ATOM     14  O   UNL     1     102.928 129.175 140.314  0.00  0.00    +0.000 OA
ATOM     15  O   UNL     1     102.375 130.160 141.515  0.00  0.00    +0.000 OA
ATOM     16  C   UNL     1     104.380 128.758 141.890  0.00  0.00    +0.000 A 
ATOM     17  C   UNL     1     104.103 129.251 142.491  0.00  0.00    +0.000 A 
ATOM     18  C   UNL     1     103.988 128.733 141.164  0.00  0.00    +0.000 A 
ATOM     19  C   UNL     1     103.435 129.718 142.366  0.00  0.00    +0.000 A 
ATOM     20  C   UNL     1     103.320 129.200 141.040  0.00  0.00    +0.000 A 
ATOM     21  C   UNL     1     103.043 129.693 141.641  0.00  0.00    +0.000 A 
BRANCH  19  22
ATOM     22  O   UNL     1     103.158 130.211 142.967  0.00  0.00    +0.000 OA
ATOM     23  C   UNL     1     103.643 130.396 143.608  0.00  0.00    +0.000 C 
ENDBRANCH  19  22
ENDBRANCH  12  16
BRANCH   5  24
ATOM     24  O   UNL     1     106.159 125.073 143.339  0.00  0.00    +0.000 OA
BRANCH  24  33
ATOM     25  O   UNL     1     106.349 125.472 144.698  0.00  0.00    +0.000 OA
ATOM     26  O   UNL     1     104.565 123.909 145.406  0.00  0.00    +0.000 OA
ATOM     27  O   UNL     1     105.349 124.829 146.528  0.00  0.00    +0.000 OA
ATOM     28  O   UNL     1     104.970 124.031 143.811  0.00  0.00    +0.000 OA
ATOM     29  C   UNL     1     105.159 124.430 145.170  0.00  0.00    +0.000 C 
ATOM     30  C   UNL     1     105.552 124.890 145.731  0.00  0.00    +0.000 C 
ATOM     31  C   UNL     1     105.362 124.491 144.372  0.00  0.00    +0.000 C 
ATOM     32  C   UNL     1     106.146 125.410 145.495  0.00  0.00    +0.000 C 
ATOM     33  C   UNL     1     105.956 125.011 144.136  0.00  0.00    +0.000 C 
BRANCH  32  35
ATOM     34  O   UNL     1     107.359 125.818 146.131  0.00  0.00    +0.000 OA
ATOM     35  C   UNL     1     106.539 125.870 146.056  0.00  0.00    +0.000 C 
ENDBRANCH  32  35
ENDBRANCH  24  33
ENDBRANCH   5  24
TORSDOF 5
ENDMDL
MODEL 7
REMARK VINA RESULT:      -9.0      2.297      5.542
REMARK  Name = 44259483
REMARK  5 active torsions:
REMARK  status: ('A' for Active; 'I' for Inactive)
REMARK    1  A    between atoms: O_2  and  C_18
REMARK    2  A    between atoms: O_2  and  C_20
REMARK    3  A    between atoms: O_11  and  C_32
REMARK    4  A    between atoms: C_17  and  C_19
REMARK    5  A    between atoms: C_27  and  C_29
REMARK                            x       y       z     vdW  Elec       q    Type
REMARK                         _______ _______ _______ _____ _____    ______ ____
ROOT
ATOM      1  O   UNL     1     111.778 127.008 136.020  0.00  0.00    +0.000 OA
ATOM      2  O   UNL     1     110.002 128.800 134.613  0.00  0.00    +0.000 OA
ATOM      3  O   UNL     1     109.786 126.121 135.934  0.00  0.00    +0.000 OA
ATOM      4  O   UNL     1     109.530 127.540 135.133  0.00  0.00    +0.000 OA
ATOM      5  C   UNL     1     112.178 129.005 135.100  0.00  0.00    +0.000 A 
ATOM      6  C   UNL     1     112.306 128.264 135.516  0.00  0.00    +0.000 A 
ATOM      7  C   UNL     1     111.398 129.189 134.792  0.00  0.00    +0.000 A 
ATOM      8  C   UNL     1     111.650 127.718 135.619  0.00  0.00    +0.000 A 
ATOM      9  C   UNL     1     110.901 127.895 135.324  0.00  0.00    +0.000 A 
ATOM     10  C   UNL     1     110.755 128.631 134.905  0.00  0.00    +0.000 A 
ATOM     11  C   UNL     1     110.279 127.363 135.429  0.00  0.00    +0.000 A 
ATOM     12  C   UNL     1     111.157 126.475 136.125  0.00  0.00    +0.000 A 
ATOM     13  C   UNL     1     110.407 126.653 135.829  0.00  0.00    +0.000 A 
ENDROOT
BRANCH  12  16
ATOM     14  O   UNL     1     111.912 123.719 136.099  0.00  0.00    +0.000 OA
ATOM     15  O   UNL     1     111.672 123.638 137.728  0.00  0.00    +0.000 OA
ATOM     16  C   UNL     1     111.286 125.766 136.525  0.00  0.00    +0.000 A 
ATOM     17  C   UNL     1     111.166 125.726 137.340  0.00  0.00    +0.000 A 
ATOM     18  C   UNL     1     111.535 125.097 136.111  0.00  0.00    +0.000 A 
ATOM     19  C   UNL     1     111.294 125.016 137.742  0.00  0.00    +0.000 A 
ATOM     20  C   UNL     1     111.663 124.388 136.513  0.00  0.00    +0.000 A 
ATOM     21  C   UNL     1     111.543 124.347 137.328  0.00  0.00    +0.000 A 
BRANCH  19  22
ATOM     22  O   UNL     1     111.174 124.975 138.557  0.00  0.00    +0.000 OA
ATOM     23  C   UNL     1     111.198 125.662 139.014  0.00  0.00    +0.000 C 
ENDBRANCH  19  22
ENDBRANCH  12  16
BRANCH   5  24
ATOM     24  O   UNL     1     112.802 129.536 134.996  0.00  0.00    +0.000 OA
BRANCH  24  33
ATOM     25  O   UNL     1     112.580 130.314 136.173  0.00  0.00    +0.000 OA
ATOM     26  O   UNL     1     115.025 130.495 136.515  0.00  0.00    +0.000 OA
ATOM     27  O   UNL     1     113.988 131.213 137.578  0.00  0.00    +0.000 OA
ATOM     28  O   UNL     1     114.432 129.656 135.224  0.00  0.00    +0.000 OA
ATOM     29  C   UNL     1     114.210 130.435 136.401  0.00  0.00    +0.000 C 
ATOM     30  C   UNL     1     113.691 130.794 136.932  0.00  0.00    +0.000 C 
ATOM     31  C   UNL     1     113.913 130.015 135.755  0.00  0.00    +0.000 C 
ATOM     32  C   UNL     1     112.877 130.734 136.819  0.00  0.00    +0.000 C 
ATOM     33  C   UNL     1     113.099 129.955 135.641  0.00  0.00    +0.000 C 
BRANCH  32  35
ATOM     34  O   UNL     1     111.771 131.602 137.072  0.00  0.00    +0.000 OA
ATOM     35  C   UNL     1     112.358 131.093 137.350  0.00  0.00    +0.000 C 
ENDBRANCH  32  35
ENDBRANCH  24  33
ENDBRANCH   5  24
TORSDOF 5
ENDMDL
MODEL 8
REMARK VINA RESULT:      -9.0      3.176      4.242
REMARK  Name = 44259483
REMARK  5 active torsions:
REMARK  status: ('A' for Active; 'I' for Inactive)
REMARK    1  A    between atoms: O_2  and  C_18
REMARK    2  A    between atoms: O_2  and  C_20
REMARK    3  A    between atoms: O_11  and  C_32
REMARK    4  A    between atoms: C_17  and  C_19
REMARK    5  A    between atoms: C_27  and  C_29
REMARK                            x       y       z     vdW  Elec       q    Type
REMARK                         _______ _______ _______ _____ _____    ______ ____
ROOT
ATOM      1  O   UNL     1     113.123 128.769 139.523  0.00  0.00    +0.000 OA
ATOM      2  O   UNL     1     111.649 128.640 137.041  0.00  0.00    +0.000 OA
ATOM      3  O   UNL     1     113.044 130.761 138.632  0.00  0.00    +0.000 OA
ATOM      4  O   UNL     1     112.200 129.886 137.516  0.00  0.00    +0.000 OA
ATOM      5  C   UNL     1     112.150 127.028 138.513  0.00  0.00    +0.000 A 
ATOM      6  C   UNL     1     112.589 127.490 139.091  0.00  0.00    +0.000 A 
ATOM      7  C   UNL     1     111.831 127.417 137.816  0.00  0.00    +0.000 A 
ATOM      8  C   UNL     1     112.701 128.332 138.965  0.00  0.00    +0.000 A 
ATOM      9  C   UNL     1     112.394 128.704 138.296  0.00  0.00    +0.000 A 
ATOM     10  C   UNL     1     111.953 128.260 137.707  0.00  0.00    +0.000 A 
ATOM     11  C   UNL     1     112.508 129.514 138.185  0.00  0.00    +0.000 A 
ATOM     12  C   UNL     1     113.237 129.579 139.412  0.00  0.00    +0.000 A 
ATOM     13  C   UNL     1     112.929 129.951 138.743  0.00  0.00    +0.000 A 
ENDROOT
BRANCH  12  16
ATOM     14  O   UNL     1     115.708 130.656 140.362  0.00  0.00    +0.000 OA
ATOM     15  O   UNL     1     114.922 131.325 141.647  0.00  0.00    +0.000 OA
ATOM     16  C   UNL     1     113.658 130.015 139.970  0.00  0.00    +0.000 A 
ATOM     17  C   UNL     1     113.265 130.350 140.614  0.00  0.00    +0.000 A 
ATOM     18  C   UNL     1     114.473 130.117 139.887  0.00  0.00    +0.000 A 
ATOM     19  C   UNL     1     113.686 130.787 141.173  0.00  0.00    +0.000 A 
ATOM     20  C   UNL     1     114.894 130.554 140.446  0.00  0.00    +0.000 A 
ATOM     21  C   UNL     1     114.500 130.889 141.089  0.00  0.00    +0.000 A 
BRANCH  19  22
ATOM     22  O   UNL     1     113.294 131.123 141.816  0.00  0.00    +0.000 OA
ATOM     23  C   UNL     1     112.691 130.706 142.196  0.00  0.00    +0.000 C 
ENDBRANCH  19  22
ENDBRANCH  12  16
BRANCH   5  24
ATOM     24  O   UNL     1     112.038 126.219 138.626  0.00  0.00    +0.000 OA
BRANCH  24  33
ATOM     25  O   UNL     1     113.222 125.733 137.992  0.00  0.00    +0.000 OA
ATOM     26  O   UNL     1     111.907 123.937 136.911  0.00  0.00    +0.000 OA
ATOM     27  O   UNL     1     113.529 124.050 136.637  0.00  0.00    +0.000 OA
ATOM     28  O   UNL     1     111.161 125.021 137.906  0.00  0.00    +0.000 OA
ATOM     29  C   UNL     1     112.346 124.536 137.271  0.00  0.00    +0.000 C 
ATOM     30  C   UNL     1     113.157 124.593 137.134  0.00  0.00    +0.000 C 
ATOM     31  C   UNL     1     111.972 125.079 137.769  0.00  0.00    +0.000 C 
ATOM     32  C   UNL     1     113.595 125.191 137.494  0.00  0.00    +0.000 C 
ATOM     33  C   UNL     1     112.410 125.677 138.129  0.00  0.00    +0.000 C 
BRANCH  32  35
ATOM     34  O   UNL     1     114.929 125.305 137.995  0.00  0.00    +0.000 OA
ATOM     35  C   UNL     1     114.406 125.248 137.358  0.00  0.00    +0.000 C 
ENDBRANCH  32  35
ENDBRANCH  24  33
ENDBRANCH   5  24
TORSDOF 5
ENDMDL
MODEL 9
REMARK VINA RESULT:      -8.9      1.928      3.428
REMARK  Name = 44259483
REMARK  5 active torsions:
REMARK  status: ('A' for Active; 'I' for Inactive)
REMARK    1  A    between atoms: O_2  and  C_18
REMARK    2  A    between atoms: O_2  and  C_20
REMARK    3  A    between atoms: O_11  and  C_32
REMARK    4  A    between atoms: C_17  and  C_19
REMARK    5  A    between atoms: C_27  and  C_29
REMARK                            x       y       z     vdW  Elec       q    Type
REMARK                         _______ _______ _______ _____ _____    ______ ____
ROOT
ATOM      1  O   UNL     1     111.123 128.487 136.623  0.00  0.00    +0.000 OA
ATOM      2  O   UNL     1     113.701 128.512 135.320  0.00  0.00    +0.000 OA
ATOM      3  O   UNL     1     111.068 129.894 134.955  0.00  0.00    +0.000 OA
ATOM      4  O   UNL     1     112.621 129.345 134.850  0.00  0.00    +0.000 OA
ATOM      5  C   UNL     1     112.984 127.339 137.087  0.00  0.00    +0.000 A 
ATOM      6  C   UNL     1     112.175 127.629 137.137  0.00  0.00    +0.000 A 
ATOM      7  C   UNL     1     113.503 127.638 136.471  0.00  0.00    +0.000 A 
ATOM      8  C   UNL     1     111.899 128.213 136.570  0.00  0.00    +0.000 A 
ATOM      9  C   UNL     1     112.398 128.499 135.979  0.00  0.00    +0.000 A 
ATOM     10  C   UNL     1     113.208 128.221 135.914  0.00  0.00    +0.000 A 
ATOM     11  C   UNL     1     112.121 129.059 135.441  0.00  0.00    +0.000 A 
ATOM     12  C   UNL     1     110.846 129.048 136.084  0.00  0.00    +0.000 A 
ATOM     13  C   UNL     1     111.345 129.333 135.493  0.00  0.00    +0.000 A 
ENDROOT
BRANCH  12  16
ATOM     14  O   UNL     1     108.065 128.736 135.504  0.00  0.00    +0.000 OA
ATOM     15  O   UNL     1     107.741 130.144 136.299  0.00  0.00    +0.000 OA
ATOM     16  C   UNL     1     110.070 129.321 136.138  0.00  0.00    +0.000 A 
ATOM     17  C   UNL     1     109.908 130.026 136.536  0.00  0.00    +0.000 A 
ATOM     18  C   UNL     1     109.455 128.891 135.794  0.00  0.00    +0.000 A 
ATOM     19  C   UNL     1     109.132 130.300 136.589  0.00  0.00    +0.000 A 
ATOM     20  C   UNL     1     108.679 129.166 135.848  0.00  0.00    +0.000 A 
ATOM     21  C   UNL     1     108.517 129.870 136.245  0.00  0.00    +0.000 A 
BRANCH  19  22
ATOM     22  O   UNL     1     108.969 131.005 136.987  0.00  0.00    +0.000 OA
ATOM     23  C   UNL     1     109.308 131.151 137.725  0.00  0.00    +0.000 C 
ENDBRANCH  19  22
ENDBRANCH  12  16
BRANCH   5  24
ATOM     24  O   UNL     1     113.258 126.779 137.627  0.00  0.00    +0.000 OA
BRANCH  24  33
ATOM     25  O   UNL     1     112.623 125.632 137.059  0.00  0.00    +0.000 OA
ATOM     26  O   UNL     1     114.650 124.286 137.514  0.00  0.00    +0.000 OA
ATOM     27  O   UNL     1     113.341 123.588 136.795  0.00  0.00    +0.000 OA
ATOM     28  O   UNL     1     114.609 125.882 137.931  0.00  0.00    +0.000 OA
ATOM     29  C   UNL     1     113.975 124.734 137.363  0.00  0.00    +0.000 C 
ATOM     30  C   UNL     1     113.319 124.386 137.003  0.00  0.00    +0.000 C 
ATOM     31  C   UNL     1     113.954 125.533 137.571  0.00  0.00    +0.000 C 
ATOM     32  C   UNL     1     112.645 124.834 136.851  0.00  0.00    +0.000 C 
ATOM     33  C   UNL     1     113.279 125.981 137.419  0.00  0.00    +0.000 C 
BRANCH  32  35
ATOM     34  O   UNL     1     111.238 124.587 136.817  0.00  0.00    +0.000 OA
ATOM     35  C   UNL     1     111.989 124.485 136.491  0.00  0.00    +0.000 C 
ENDBRANCH  32  35
ENDBRANCH  24  33
ENDBRANCH   5  24
TORSDOF 5
ENDMDL
MODEL 10
REMARK VINA RESULT:      -8.9      2.379      6.316
REMARK  Name = 44259483
REMARK  5 active torsions:
REMARK  status: ('A' for Active; 'I' for Inactive)
REMARK    1  A    between atoms: O_2  and  C_18
REMARK    2  A    between atoms: O_2  and  C_20
REMARK    3  A    between atoms: O_11  and  C_32
REMARK    4  A    between atoms: C_17  and  C_19
REMARK    5  A    between atoms: C_27  and  C_29
REMARK                            x       y       z     vdW  Elec       q    Type
REMARK                         _______ _______ _______ _____ _____    ______ ____
ROOT
ATOM      1  O   UNL     1     112.512 126.856 137.913  0.00  0.00    +0.000 OA
ATOM      2  O   UNL     1     112.022 127.859 140.577  0.00  0.00    +0.000 OA
ATOM      3  O   UNL     1     111.362 125.378 139.034  0.00  0.00    +0.000 OA
ATOM      4  O   UNL     1     111.532 126.566 140.167  0.00  0.00    +0.000 OA
ATOM      5  C   UNL     1     113.120 128.787 138.861  0.00  0.00    +0.000 A 
ATOM      6  C   UNL     1     113.028 128.164 138.275  0.00  0.00    +0.000 A 
ATOM      7  C   UNL     1     112.779 128.685 139.643  0.00  0.00    +0.000 A 
ATOM      8  C   UNL     1     112.597 127.450 138.479  0.00  0.00    +0.000 A 
ATOM      9  C   UNL     1     112.270 127.353 139.230  0.00  0.00    +0.000 A 
ATOM     10  C   UNL     1     112.352 127.964 139.829  0.00  0.00    +0.000 A 
ATOM     11  C   UNL     1     111.859 126.662 139.415  0.00  0.00    +0.000 A 
ATOM     12  C   UNL     1     112.101 126.165 138.098  0.00  0.00    +0.000 A 
ATOM     13  C   UNL     1     111.774 126.069 138.849  0.00  0.00    +0.000 A 
ENDROOT
BRANCH  12  16
ATOM     14  O   UNL     1     113.033 123.754 136.879  0.00  0.00    +0.000 OA
ATOM     15  O   UNL     1     111.761 123.793 135.830  0.00  0.00    +0.000 OA
ATOM     16  C   UNL     1     112.016 125.572 137.531  0.00  0.00    +0.000 A 
ATOM     17  C   UNL     1     111.380 125.592 137.006  0.00  0.00    +0.000 A 
ATOM     18  C   UNL     1     112.567 124.960 137.489  0.00  0.00    +0.000 A 
ATOM     19  C   UNL     1     111.295 124.999 136.439  0.00  0.00    +0.000 A 
ATOM     20  C   UNL     1     112.482 124.367 136.921  0.00  0.00    +0.000 A 
ATOM     21  C   UNL     1     111.846 124.386 136.396  0.00  0.00    +0.000 A 
BRANCH  19  22
ATOM     22  O   UNL     1     110.659 125.017 135.913  0.00  0.00    +0.000 OA
ATOM     23  C   UNL     1     110.426 125.731 135.571  0.00  0.00    +0.000 C 
ENDBRANCH  19  22
ENDBRANCH  12  16
BRANCH   5  24
ATOM     24  O   UNL     1     113.532 129.476 138.673  0.00  0.00    +0.000 OA
BRANCH  24  33
ATOM     25  O   UNL     1     112.389 130.293 138.409  0.00  0.00    +0.000 OA
ATOM     26  O   UNL     1     113.611 131.407 136.568  0.00  0.00    +0.000 OA
ATOM     27  O   UNL     1     112.062 131.852 136.918  0.00  0.00    +0.000 OA
ATOM     28  O   UNL     1     114.346 130.219 137.445  0.00  0.00    +0.000 OA
ATOM     29  C   UNL     1     113.204 131.036 137.181  0.00  0.00    +0.000 C 
ATOM     30  C   UNL     1     112.429 131.258 137.357  0.00  0.00    +0.000 C 
ATOM     31  C   UNL     1     113.572 130.441 137.621  0.00  0.00    +0.000 C 
ATOM     32  C   UNL     1     112.022 130.887 137.970  0.00  0.00    +0.000 C 
ATOM     33  C   UNL     1     113.165 130.070 138.234  0.00  0.00    +0.000 C 
BRANCH  32  35
ATOM     34  O   UNL     1     111.058 131.381 138.902  0.00  0.00    +0.000 OA
ATOM     35  C   UNL     1     111.248 131.109 138.146  0.00  0.00    +0.000 C 
ENDBRANCH  32  35
ENDBRANCH  24  33
ENDBRANCH   5  24
TORSDOF 5
ENDMDL
