MODEL 1
REMARK VINA RESULT:     -10.6      0.000      0.000
REMARK  Name = 44259946
REMARK  5 active torsions:
REMARK  status: ('A' for Active; 'I' for Inactive)
REMARK    1  A    between atoms: O_3  and  C_21
REMARK    2  A    between atoms: O_3  and  C_26
REMARK    3  A    between atoms: O_6  and  C_23
REMARK    4  A    between atoms: O_6  and  C_28
REMARK    5  A    between atoms: C_31  and  C_32
REMARK                            x       y       z     vdW  Elec       q    Type
REMARK                         _______ _______ _______ _____ _____    ______ ____
ROOT
ATOM      1  O   UNL     1     112.013 126.208 136.571  0.00  0.00    +0.000 OA
ATOM      2  O   UNL     1     114.500 125.454 137.886  0.00  0.00    +0.000 OA
ATOM      3  O   UNL     1     112.848 123.442 136.565  0.00  0.00    +0.000 OA
ATOM      4  O   UNL     1     110.533 125.016 135.496  0.00  0.00    +0.000 OA
ATOM      5  O   UNL     1     111.621 123.851 135.923  0.00  0.00    +0.000 OA
ATOM      6  C   UNL     1     113.256 125.850 137.231  0.00  0.00    +0.000 A 
ATOM      7  C   UNL     1     112.558 125.626 136.785  0.00  0.00    +0.000 A 
ATOM      8  C   UNL     1     112.427 124.840 136.569  0.00  0.00    +0.000 A 
ATOM      9  C   UNL     1     113.826 125.248 137.456  0.00  0.00    +0.000 A 
ATOM     10  C   UNL     1     111.339 126.005 136.142  0.00  0.00    +0.000 A 
ATOM     11  C   UNL     1     112.986 124.225 136.785  0.00  0.00    +0.000 A 
ATOM     12  C   UNL     1     113.690 124.430 137.232  0.00  0.00    +0.000 A 
ATOM     13  C   UNL     1     111.752 124.637 136.139  0.00  0.00    +0.000 A 
ATOM     14  C   UNL     1     111.208 125.219 135.926  0.00  0.00    +0.000 A 
ENDROOT
BRANCH  10  16
ATOM     15  C   UNL     1     109.706 127.751 135.499  0.00  0.00    +0.000 A 
ATOM     16  C   UNL     1     110.794 126.587 135.928  0.00  0.00    +0.000 A 
ATOM     17  C   UNL     1     109.616 127.344 136.211  0.00  0.00    +0.000 A 
ATOM     18  C   UNL     1     110.341 127.576 135.001  0.00  0.00    +0.000 A 
ATOM     19  C   UNL     1     110.160 126.762 136.425  0.00  0.00    +0.000 A 
ATOM     20  C   UNL     1     110.885 126.994 135.216  0.00  0.00    +0.000 A 
BRANCH  15  21
ATOM     21  O   UNL     1     109.162 128.333 135.284  0.00  0.00    +0.000 OA
BRANCH  21  29
ATOM     22  O   UNL     1     109.997 129.449 135.601  0.00  0.00    +0.000 OA
ATOM     23  O   UNL     1     108.012 130.719 136.357  0.00  0.00    +0.000 OA
ATOM     24  O   UNL     1     107.839 129.180 135.788  0.00  0.00    +0.000 OA
ATOM     25  O   UNL     1     109.508 131.411 136.422  0.00  0.00    +0.000 OA
ATOM     26  C   UNL     1     108.674 130.296 136.105  0.00  0.00    +0.000 C 
ATOM     27  C   UNL     1     108.587 129.526 135.821  0.00  0.00    +0.000 C 
ATOM     28  C   UNL     1     109.422 130.642 136.138  0.00  0.00    +0.000 C 
ATOM     29  C   UNL     1     109.249 129.103 135.569  0.00  0.00    +0.000 C 
ATOM     30  C   UNL     1     110.083 130.218 135.886  0.00  0.00    +0.000 C 
ENDBRANCH  21  29
ENDBRANCH  15  21
ENDBRANCH  10  16
BRANCH   6  31
ATOM     31  O   UNL     1     113.379 126.638 137.443  0.00  0.00    +0.000 OA
BRANCH  31  39
ATOM     32  O   UNL     1     112.957 126.354 138.777  0.00  0.00    +0.000 OA
ATOM     33  O   UNL     1     113.003 128.772 139.306  0.00  0.00    +0.000 OA
ATOM     34  O   UNL     1     113.410 128.250 137.794  0.00  0.00    +0.000 OA
ATOM     35  O   UNL     1     112.566 127.683 140.465  0.00  0.00    +0.000 OA
ATOM     36  C   UNL     1     112.988 127.966 139.130  0.00  0.00    +0.000 C 
ATOM     37  C   UNL     1     113.191 127.705 138.375  0.00  0.00    +0.000 C 
ATOM     38  C   UNL     1     112.769 127.421 139.709  0.00  0.00    +0.000 C 
ATOM     39  C   UNL     1     113.176 126.900 138.198  0.00  0.00    +0.000 C 
ATOM     40  C   UNL     1     112.753 126.615 139.534  0.00  0.00    +0.000 C 
ENDBRANCH  31  39
ENDBRANCH   6  31
TORSDOF 5
ENDMDL
MODEL 2
REMARK VINA RESULT:     -10.6      1.457      5.153
REMARK  Name = 44259946
REMARK  5 active torsions:
REMARK  status: ('A' for Active; 'I' for Inactive)
REMARK    1  A    between atoms: O_3  and  C_21
REMARK    2  A    between atoms: O_3  and  C_26
REMARK    3  A    between atoms: O_6  and  C_23
REMARK    4  A    between atoms: O_6  and  C_28
REMARK    5  A    between atoms: C_31  and  C_32
REMARK                            x       y       z     vdW  Elec       q    Type
REMARK                         _______ _______ _______ _____ _____    ______ ____
ROOT
ATOM      1  O   UNL     1     110.276 128.598 136.004  0.00  0.00    +0.000 OA
ATOM      2  O   UNL     1     110.418 131.506 136.059  0.00  0.00    +0.000 OA
ATOM      3  O   UNL     1     107.850 130.148 135.769  0.00  0.00    +0.000 OA
ATOM      4  O   UNL     1     108.577 127.242 135.806  0.00  0.00    +0.000 OA
ATOM      5  O   UNL     1     107.817 128.706 135.746  0.00  0.00    +0.000 OA
ATOM      6  C   UNL     1     110.366 130.047 136.033  0.00  0.00    +0.000 A 
ATOM      7  C   UNL     1     109.897 129.330 135.974  0.00  0.00    +0.000 A 
ATOM      8  C   UNL     1     109.077 129.366 135.888  0.00  0.00    +0.000 A 
ATOM      9  C   UNL     1     109.976 130.811 136.002  0.00  0.00    +0.000 A 
ATOM     10  C   UNL     1     109.837 127.902 135.948  0.00  0.00    +0.000 A 
ATOM     11  C   UNL     1     108.670 130.121 135.855  0.00  0.00    +0.000 A 
ATOM     12  C   UNL     1     109.123 130.849 135.913  0.00  0.00    +0.000 A 
ATOM     13  C   UNL     1     108.637 128.670 135.832  0.00  0.00    +0.000 A 
ATOM     14  C   UNL     1     109.017 127.938 135.862  0.00  0.00    +0.000 A 
ENDROOT
BRANCH  10  16
ATOM     15  C   UNL     1     110.975 125.706 136.037  0.00  0.00    +0.000 A 
ATOM     16  C   UNL     1     110.216 127.170 135.978  0.00  0.00    +0.000 A 
ATOM     17  C   UNL     1     110.655 126.032 136.723  0.00  0.00    +0.000 A 
ATOM     18  C   UNL     1     110.916 126.112 135.320  0.00  0.00    +0.000 A 
ATOM     19  C   UNL     1     110.276 126.765 136.693  0.00  0.00    +0.000 A 
ATOM     20  C   UNL     1     110.536 126.844 135.291  0.00  0.00    +0.000 A 
BRANCH  15  21
ATOM     21  O   UNL     1     111.354 124.974 136.065  0.00  0.00    +0.000 OA
BRANCH  21  29
ATOM     22  O   UNL     1     112.635 125.580 136.256  0.00  0.00    +0.000 OA
ATOM     23  O   UNL     1     113.487 123.471 137.230  0.00  0.00    +0.000 OA
ATOM     24  O   UNL     1     111.923 123.568 136.715  0.00  0.00    +0.000 OA
ATOM     25  O   UNL     1     114.483 124.779 137.096  0.00  0.00    +0.000 OA
ATOM     26  C   UNL     1     113.204 124.174 136.906  0.00  0.00    +0.000 C 
ATOM     27  C   UNL     1     112.421 124.222 136.648  0.00  0.00    +0.000 C 
ATOM     28  C   UNL     1     113.702 124.828 136.839  0.00  0.00    +0.000 C 
ATOM     29  C   UNL     1     112.137 124.926 136.323  0.00  0.00    +0.000 C 
ATOM     30  C   UNL     1     113.417 125.531 136.514  0.00  0.00    +0.000 C 
ENDBRANCH  21  29
ENDBRANCH  15  21
ENDBRANCH  10  16
BRANCH   6  31
ATOM     31  O   UNL     1     111.185 130.002 136.119  0.00  0.00    +0.000 OA
BRANCH  31  39
ATOM     32  O   UNL     1     111.056 130.276 137.514  0.00  0.00    +0.000 OA
ATOM     33  O   UNL     1     113.521 130.285 137.740  0.00  0.00    +0.000 OA
ATOM     34  O   UNL     1     112.829 130.007 136.268  0.00  0.00    +0.000 OA
ATOM     35  O   UNL     1     112.572 130.557 139.061  0.00  0.00    +0.000 OA
ATOM     36  C   UNL     1     112.700 130.282 137.664  0.00  0.00    +0.000 C 
ATOM     37  C   UNL     1     112.354 130.143 136.930  0.00  0.00    +0.000 C 
ATOM     38  C   UNL     1     112.225 130.418 138.325  0.00  0.00    +0.000 C 
ATOM     39  C   UNL     1     111.532 130.140 136.854  0.00  0.00    +0.000 C 
ATOM     40  C   UNL     1     111.403 130.415 138.250  0.00  0.00    +0.000 C 
ENDBRANCH  31  39
ENDBRANCH   6  31
TORSDOF 5
ENDMDL
MODEL 3
REMARK VINA RESULT:     -10.5      1.795      4.884
REMARK  Name = 44259946
REMARK  5 active torsions:
REMARK  status: ('A' for Active; 'I' for Inactive)
REMARK    1  A    between atoms: O_3  and  C_21
REMARK    2  A    between atoms: O_3  and  C_26
REMARK    3  A    between atoms: O_6  and  C_23
REMARK    4  A    between atoms: O_6  and  C_28
REMARK    5  A    between atoms: C_31  and  C_32
REMARK                            x       y       z     vdW  Elec       q    Type
REMARK                         _______ _______ _______ _____ _____    ______ ____
ROOT
ATOM      1  O   UNL     1     112.521 126.044 138.392  0.00  0.00    +0.000 OA
ATOM      2  O   UNL     1     111.224 124.136 136.615  0.00  0.00    +0.000 OA
ATOM      3  O   UNL     1     114.135 124.239 136.817  0.00  0.00    +0.000 OA
ATOM      4  O   UNL     1     114.630 126.419 138.811  0.00  0.00    +0.000 OA
ATOM      5  O   UNL     1     114.744 125.197 137.708  0.00  0.00    +0.000 OA
ATOM      6  C   UNL     1     111.857 125.099 137.512  0.00  0.00    +0.000 A 
ATOM      7  C   UNL     1     112.577 125.433 137.841  0.00  0.00    +0.000 A 
ATOM      8  C   UNL     1     113.318 125.151 137.613  0.00  0.00    +0.000 A 
ATOM      9  C   UNL     1     111.910 124.463 136.937  0.00  0.00    +0.000 A 
ATOM     10  C   UNL     1     113.204 126.373 138.716  0.00  0.00    +0.000 A 
ATOM     11  C   UNL     1     113.390 124.515 137.040  0.00  0.00    +0.000 A 
ATOM     12  C   UNL     1     112.681 124.169 136.700  0.00  0.00    +0.000 A 
ATOM     13  C   UNL     1     114.003 125.479 137.936  0.00  0.00    +0.000 A 
ATOM     14  C   UNL     1     113.945 126.090 138.488  0.00  0.00    +0.000 A 
ENDROOT
BRANCH  10  16
ATOM     15  C   UNL     1     113.037 128.205 140.371  0.00  0.00    +0.000 A 
ATOM     16  C   UNL     1     113.148 126.984 139.267  0.00  0.00    +0.000 A 
ATOM     17  C   UNL     1     112.910 128.360 139.571  0.00  0.00    +0.000 A 
ATOM     18  C   UNL     1     113.220 127.439 140.620  0.00  0.00    +0.000 A 
ATOM     19  C   UNL     1     112.966 127.748 139.019  0.00  0.00    +0.000 A 
ATOM     20  C   UNL     1     113.276 126.829 140.068  0.00  0.00    +0.000 A 
BRANCH  15  21
ATOM     21  O   UNL     1     112.981 128.815 140.924  0.00  0.00    +0.000 OA
BRANCH  21  29
ATOM     22  O   UNL     1     114.290 129.285 140.591  0.00  0.00    +0.000 OA
ATOM     23  O   UNL     1     113.787 131.452 141.676  0.00  0.00    +0.000 OA
ATOM     24  O   UNL     1     112.647 130.260 141.646  0.00  0.00    +0.000 OA
ATOM     25  O   UNL     1     115.263 131.198 140.982  0.00  0.00    +0.000 OA
ATOM     26  C   UNL     1     113.955 130.730 141.314  0.00  0.00    +0.000 C 
ATOM     27  C   UNL     1     113.384 130.134 141.300  0.00  0.00    +0.000 C 
ATOM     28  C   UNL     1     114.693 130.603 140.967  0.00  0.00    +0.000 C 
ATOM     29  C   UNL     1     113.552 129.411 140.938  0.00  0.00    +0.000 C 
ATOM     30  C   UNL     1     114.860 129.880 140.606  0.00  0.00    +0.000 C 
ENDBRANCH  21  29
ENDBRANCH  15  21
ENDBRANCH  10  16
BRANCH   6  31
ATOM     31  O   UNL     1     111.120 125.388 137.745  0.00  0.00    +0.000 OA
BRANCH  31  39
ATOM     32  O   UNL     1     111.026 126.133 136.530  0.00  0.00    +0.000 OA
ATOM     33  O   UNL     1     108.841 127.039 137.257  0.00  0.00    +0.000 OA
ATOM     34  O   UNL     1     109.663 125.991 138.230  0.00  0.00    +0.000 OA
ATOM     35  O   UNL     1     109.474 127.483 135.800  0.00  0.00    +0.000 OA
ATOM     36  C   UNL     1     109.569 126.737 137.015  0.00  0.00    +0.000 C 
ATOM     37  C   UNL     1     109.980 126.214 137.501  0.00  0.00    +0.000 C 
ATOM     38  C   UNL     1     109.886 126.959 136.286  0.00  0.00    +0.000 C 
ATOM     39  C   UNL     1     110.709 125.911 137.259  0.00  0.00    +0.000 C 
ATOM     40  C   UNL     1     110.614 126.657 136.044  0.00  0.00    +0.000 C 
ENDBRANCH  31  39
ENDBRANCH   6  31
TORSDOF 5
ENDMDL
MODEL 4
REMARK VINA RESULT:     -10.2      1.842      5.414
REMARK  Name = 44259946
REMARK  5 active torsions:
REMARK  status: ('A' for Active; 'I' for Inactive)
REMARK    1  A    between atoms: O_3  and  C_21
REMARK    2  A    between atoms: O_3  and  C_26
REMARK    3  A    between atoms: O_6  and  C_23
REMARK    4  A    between atoms: O_6  and  C_28
REMARK    5  A    between atoms: C_31  and  C_32
REMARK                            x       y       z     vdW  Elec       q    Type
REMARK                         _______ _______ _______ _____ _____    ______ ____
ROOT
ATOM      1  O   UNL     1     110.130 130.292 136.429  0.00  0.00    +0.000 OA
ATOM      2  O   UNL     1     110.931 132.705 137.850  0.00  0.00    +0.000 OA
ATOM      3  O   UNL     1     109.327 132.876 135.417  0.00  0.00    +0.000 OA
ATOM      4  O   UNL     1     108.953 130.014 134.612  0.00  0.00    +0.000 OA
ATOM      5  O   UNL     1     108.947 131.660 134.739  0.00  0.00    +0.000 OA
ATOM      6  C   UNL     1     110.539 131.484 137.150  0.00  0.00    +0.000 A 
ATOM      7  C   UNL     1     110.128 131.115 136.493  0.00  0.00    +0.000 A 
ATOM      8  C   UNL     1     109.733 131.571 135.930  0.00  0.00    +0.000 A 
ATOM      9  C   UNL     1     110.539 132.340 137.222  0.00  0.00    +0.000 A 
ATOM     10  C   UNL     1     109.739 129.925 135.803  0.00  0.00    +0.000 A 
ATOM     11  C   UNL     1     109.723 132.428 135.985  0.00  0.00    +0.000 A 
ATOM     12  C   UNL     1     110.129 132.815 136.635  0.00  0.00    +0.000 A 
ATOM     13  C   UNL     1     109.342 131.204 135.302  0.00  0.00    +0.000 A 
ATOM     14  C   UNL     1     109.345 130.381 135.239  0.00  0.00    +0.000 A 
ENDROOT
BRANCH  10  16
ATOM     15  C   UNL     1     109.745 127.458 135.612  0.00  0.00    +0.000 A 
ATOM     16  C   UNL     1     109.741 129.103 135.739  0.00  0.00    +0.000 A 
ATOM     17  C   UNL     1     110.346 127.900 135.260  0.00  0.00    +0.000 A 
ATOM     18  C   UNL     1     109.141 127.838 136.028  0.00  0.00    +0.000 A 
ATOM     19  C   UNL     1     110.343 128.723 135.324  0.00  0.00    +0.000 A 
ATOM     20  C   UNL     1     109.140 128.660 136.091  0.00  0.00    +0.000 A 
BRANCH  15  21
ATOM     21  O   UNL     1     109.746 126.635 135.549  0.00  0.00    +0.000 OA
BRANCH  21  29
ATOM     22  O   UNL     1     110.250 126.405 136.867  0.00  0.00    +0.000 OA
ATOM     23  O   UNL     1     111.420 124.377 136.065  0.00  0.00    +0.000 OA
ATOM     24  O   UNL     1     110.526 125.283 135.014  0.00  0.00    +0.000 OA
ATOM     25  O   UNL     1     111.534 124.824 137.649  0.00  0.00    +0.000 OA
ATOM     26  C   UNL     1     111.030 125.053 136.332  0.00  0.00    +0.000 C 
ATOM     27  C   UNL     1     110.583 125.506 135.807  0.00  0.00    +0.000 C 
ATOM     28  C   UNL     1     111.087 125.276 137.125  0.00  0.00    +0.000 C 
ATOM     29  C   UNL     1     110.193 126.182 136.074  0.00  0.00    +0.000 C 
ATOM     30  C   UNL     1     110.696 125.953 137.391  0.00  0.00    +0.000 C 
ENDBRANCH  21  29
ENDBRANCH  15  21
ENDBRANCH  10  16
BRANCH   6  31
ATOM     31  O   UNL     1     110.930 131.021 137.710  0.00  0.00    +0.000 OA
BRANCH  31  39
ATOM     32  O   UNL     1     112.173 131.285 137.058  0.00  0.00    +0.000 OA
ATOM     33  O   UNL     1     113.347 129.889 138.731  0.00  0.00    +0.000 OA
ATOM     34  O   UNL     1     111.711 130.090 138.826  0.00  0.00    +0.000 OA
ATOM     35  O   UNL     1     114.200 130.617 137.522  0.00  0.00    +0.000 OA
ATOM     36  C   UNL     1     112.955 130.354 138.174  0.00  0.00    +0.000 C 
ATOM     37  C   UNL     1     112.139 130.455 138.221  0.00  0.00    +0.000 C 
ATOM     38  C   UNL     1     113.382 130.718 137.569  0.00  0.00    +0.000 C 
ATOM     39  C   UNL     1     111.747 130.920 137.663  0.00  0.00    +0.000 C 
ATOM     40  C   UNL     1     112.991 131.184 137.011  0.00  0.00    +0.000 C 
ENDBRANCH  31  39
ENDBRANCH   6  31
TORSDOF 5
ENDMDL
MODEL 5
REMARK VINA RESULT:     -10.1      1.725      3.525
REMARK  Name = 44259946
REMARK  5 active torsions:
REMARK  status: ('A' for Active; 'I' for Inactive)
REMARK    1  A    between atoms: O_3  and  C_21
REMARK    2  A    between atoms: O_3  and  C_26
REMARK    3  A    between atoms: O_6  and  C_23
REMARK    4  A    between atoms: O_6  and  C_28
REMARK    5  A    between atoms: C_31  and  C_32
REMARK                            x       y       z     vdW  Elec       q    Type
REMARK                         _______ _______ _______ _____ _____    ______ ____
ROOT
ATOM      1  O   UNL     1     112.674 126.562 136.778  0.00  0.00    +0.000 OA
ATOM      2  O   UNL     1     111.556 123.899 137.146  0.00  0.00    +0.000 OA
ATOM      3  O   UNL     1     114.389 124.250 136.538  0.00  0.00    +0.000 OA
ATOM      4  O   UNL     1     114.704 127.222 136.322  0.00  0.00    +0.000 OA
ATOM      5  O   UNL     1     114.909 125.585 136.362  0.00  0.00    +0.000 OA
ATOM      6  C   UNL     1     112.099 125.241 136.965  0.00  0.00    +0.000 A 
ATOM      7  C   UNL     1     112.776 125.743 136.798  0.00  0.00    +0.000 A 
ATOM      8  C   UNL     1     113.521 125.418 136.660  0.00  0.00    +0.000 A 
ATOM      9  C   UNL     1     112.200 124.389 136.987  0.00  0.00    +0.000 A 
ATOM     10  C   UNL     1     113.315 127.054 136.619  0.00  0.00    +0.000 A 
ATOM     11  C   UNL     1     113.641 124.567 136.678  0.00  0.00    +0.000 A 
ATOM     12  C   UNL     1     112.976 124.050 136.843  0.00  0.00    +0.000 A 
ATOM     13  C   UNL     1     114.164 125.911 136.501  0.00  0.00    +0.000 A 
ATOM     14  C   UNL     1     114.061 126.729 136.481  0.00  0.00    +0.000 A 
ENDROOT
BRANCH  10  16
ATOM     15  C   UNL     1     113.009 129.510 136.559  0.00  0.00    +0.000 A 
ATOM     16  C   UNL     1     113.213 127.873 136.599  0.00  0.00    +0.000 A 
ATOM     17  C   UNL     1     112.978 129.073 135.860  0.00  0.00    +0.000 A 
ATOM     18  C   UNL     1     113.143 129.128 137.279  0.00  0.00    +0.000 A 
ATOM     19  C   UNL     1     113.080 128.255 135.880  0.00  0.00    +0.000 A 
ATOM     20  C   UNL     1     113.245 128.310 137.298  0.00  0.00    +0.000 A 
BRANCH  15  21
ATOM     21  O   UNL     1     112.908 130.328 136.540  0.00  0.00    +0.000 OA
BRANCH  21  29
ATOM     22  O   UNL     1     111.488 130.275 136.383  0.00  0.00    +0.000 OA
ATOM     23  O   UNL     1     111.268 132.388 137.653  0.00  0.00    +0.000 OA
ATOM     24  O   UNL     1     112.761 131.737 137.387  0.00  0.00    +0.000 OA
ATOM     25  O   UNL     1     109.922 131.630 137.073  0.00  0.00    +0.000 OA
ATOM     26  C   UNL     1     111.341 131.684 137.230  0.00  0.00    +0.000 C 
ATOM     27  C   UNL     1     112.088 131.358 137.097  0.00  0.00    +0.000 C 
ATOM     28  C   UNL     1     110.668 131.305 136.940  0.00  0.00    +0.000 C 
ATOM     29  C   UNL     1     112.161 130.654 136.673  0.00  0.00    +0.000 C 
ATOM     30  C   UNL     1     110.742 130.600 136.516  0.00  0.00    +0.000 C 
ENDBRANCH  21  29
ENDBRANCH  15  21
ENDBRANCH  10  16
BRANCH   6  31
ATOM     31  O   UNL     1     111.357 125.575 137.102  0.00  0.00    +0.000 OA
BRANCH  31  39
ATOM     32  O   UNL     1     110.975 125.309 135.752  0.00  0.00    +0.000 OA
ATOM     33  O   UNL     1     108.924 126.658 136.068  0.00  0.00    +0.000 OA
ATOM     34  O   UNL     1     109.990 126.475 137.314  0.00  0.00    +0.000 OA
ATOM     35  O   UNL     1     109.224 125.942 134.612  0.00  0.00    +0.000 OA
ATOM     36  C   UNL     1     109.607 126.209 135.963  0.00  0.00    +0.000 C 
ATOM     37  C   UNL     1     110.140 126.117 136.585  0.00  0.00    +0.000 C 
ATOM     38  C   UNL     1     109.757 125.851 135.235  0.00  0.00    +0.000 C 
ATOM     39  C   UNL     1     110.824 125.667 136.480  0.00  0.00    +0.000 C 
ATOM     40  C   UNL     1     110.441 125.401 135.129  0.00  0.00    +0.000 C 
ENDBRANCH  31  39
ENDBRANCH   6  31
TORSDOF 5
ENDMDL
MODEL 6
REMARK VINA RESULT:     -10.1      1.835      4.995
REMARK  Name = 44259946
REMARK  5 active torsions:
REMARK  status: ('A' for Active; 'I' for Inactive)
REMARK    1  A    between atoms: O_3  and  C_21
REMARK    2  A    between atoms: O_3  and  C_26
REMARK    3  A    between atoms: O_6  and  C_23
REMARK    4  A    between atoms: O_6  and  C_28
REMARK    5  A    between atoms: C_31  and  C_32
REMARK                            x       y       z     vdW  Elec       q    Type
REMARK                         _______ _______ _______ _____ _____    ______ ____
ROOT
ATOM      1  O   UNL     1     111.553 127.366 137.343  0.00  0.00    +0.000 OA
ATOM      2  O   UNL     1     110.630 125.729 135.118  0.00  0.00    +0.000 OA
ATOM      3  O   UNL     1     108.769 127.444 136.574  0.00  0.00    +0.000 OA
ATOM      4  O   UNL     1     110.488 128.750 138.652  0.00  0.00    +0.000 OA
ATOM      5  O   UNL     1     109.262 128.242 137.671  0.00  0.00    +0.000 OA
ATOM      6  C   UNL     1     111.110 126.543 136.231  0.00  0.00    +0.000 A 
ATOM      7  C   UNL     1     110.940 127.111 136.852  0.00  0.00    +0.000 A 
ATOM      8  C   UNL     1     110.177 127.403 136.961  0.00  0.00    +0.000 A 
ATOM      9  C   UNL     1     110.476 126.275 135.717  0.00  0.00    +0.000 A 
ATOM     10  C   UNL     1     111.403 127.911 137.942  0.00  0.00    +0.000 A 
ATOM     11  C   UNL     1     109.530 127.147 136.458  0.00  0.00    +0.000 A 
ATOM     12  C   UNL     1     109.681 126.579 135.831  0.00  0.00    +0.000 A 
ATOM     13  C   UNL     1     110.026 127.950 137.562  0.00  0.00    +0.000 A 
ATOM     14  C   UNL     1     110.639 128.203 138.052  0.00  0.00    +0.000 A 
ENDROOT
BRANCH  10  16
ATOM     15  C   UNL     1     113.240 128.673 139.415  0.00  0.00    +0.000 A 
ATOM     16  C   UNL     1     112.015 128.165 138.433  0.00  0.00    +0.000 A 
ATOM     17  C   UNL     1     113.076 129.080 138.717  0.00  0.00    +0.000 A 
ATOM     18  C   UNL     1     112.791 128.012 139.623  0.00  0.00    +0.000 A 
ATOM     19  C   UNL     1     112.464 128.825 138.226  0.00  0.00    +0.000 A 
ATOM     20  C   UNL     1     112.179 127.759 139.132  0.00  0.00    +0.000 A 
BRANCH  15  21
ATOM     21  O   UNL     1     113.852 128.926 139.907  0.00  0.00    +0.000 OA
BRANCH  21  29
ATOM     22  O   UNL     1     113.005 129.579 140.855  0.00  0.00    +0.000 OA
ATOM     23  O   UNL     1     114.760 131.277 141.255  0.00  0.00    +0.000 OA
ATOM     24  O   UNL     1     115.023 130.058 140.174  0.00  0.00    +0.000 OA
ATOM     25  O   UNL     1     113.328 131.363 142.070  0.00  0.00    +0.000 OA
ATOM     26  C   UNL     1     114.175 130.711 141.122  0.00  0.00    +0.000 C 
ATOM     27  C   UNL     1     114.306 130.101 140.581  0.00  0.00    +0.000 C 
ATOM     28  C   UNL     1     113.459 130.754 141.529  0.00  0.00    +0.000 C 
ATOM     29  C   UNL     1     113.721 129.536 140.448  0.00  0.00    +0.000 C 
ATOM     30  C   UNL     1     112.874 130.188 141.395  0.00  0.00    +0.000 C 
ENDBRANCH  21  29
ENDBRANCH  15  21
ENDBRANCH  10  16
BRANCH   6  31
ATOM     31  O   UNL     1     111.877 126.256 136.128  0.00  0.00    +0.000 OA
BRANCH  31  39
ATOM     32  O   UNL     1     111.495 125.010 136.713  0.00  0.00    +0.000 OA
ATOM     33  O   UNL     1     113.855 124.264 136.664  0.00  0.00    +0.000 OA
ATOM     34  O   UNL     1     113.450 125.760 136.095  0.00  0.00    +0.000 OA
ATOM     35  O   UNL     1     112.688 123.266 137.265  0.00  0.00    +0.000 OA
ATOM     36  C   UNL     1     113.069 124.513 136.680  0.00  0.00    +0.000 C 
ATOM     37  C   UNL     1     112.867 125.260 136.396  0.00  0.00    +0.000 C 
ATOM     38  C   UNL     1     112.485 124.014 136.981  0.00  0.00    +0.000 C 
ATOM     39  C   UNL     1     112.080 125.509 136.412  0.00  0.00    +0.000 C 
ATOM     40  C   UNL     1     111.698 124.262 136.997  0.00  0.00    +0.000 C 
ENDBRANCH  31  39
ENDBRANCH   6  31
TORSDOF 5
ENDMDL
MODEL 7
REMARK VINA RESULT:     -10.0     10.112     11.698
REMARK  Name = 44259946
REMARK  5 active torsions:
REMARK  status: ('A' for Active; 'I' for Inactive)
REMARK    1  A    between atoms: O_3  and  C_21
REMARK    2  A    between atoms: O_3  and  C_26
REMARK    3  A    between atoms: O_6  and  C_23
REMARK    4  A    between atoms: O_6  and  C_28
REMARK    5  A    between atoms: C_31  and  C_32
REMARK                            x       y       z     vdW  Elec       q    Type
REMARK                         _______ _______ _______ _____ _____    ______ ____
ROOT
ATOM      1  O   UNL     1     105.720 125.214 147.011  0.00  0.00    +0.000 OA
ATOM      2  O   UNL     1     105.083 124.068 149.611  0.00  0.00    +0.000 OA
ATOM      3  O   UNL     1     107.839 124.739 148.918  0.00  0.00    +0.000 OA
ATOM      4  O   UNL     1     107.622 125.837 146.139  0.00  0.00    +0.000 OA
ATOM      5  O   UNL     1     108.118 125.305 147.620  0.00  0.00    +0.000 OA
ATOM      6  C   UNL     1     105.384 124.642 148.303  0.00  0.00    +0.000 A 
ATOM      7  C   UNL     1     105.968 124.948 147.752  0.00  0.00    +0.000 A 
ATOM      8  C   UNL     1     106.767 124.979 147.955  0.00  0.00    +0.000 A 
ATOM      9  C   UNL     1     105.636 124.364 149.075  0.00  0.00    +0.000 A 
ATOM     10  C   UNL     1     106.271 125.510 146.474  0.00  0.00    +0.000 A 
ATOM     11  C   UNL     1     107.038 124.705 148.723  0.00  0.00    +0.000 A 
ATOM     12  C   UNL     1     106.468 124.395 149.287  0.00  0.00    +0.000 A 
ATOM     13  C   UNL     1     107.319 125.275 147.417  0.00  0.00    +0.000 A 
ATOM     14  C   UNL     1     107.070 125.541 146.677  0.00  0.00    +0.000 A 
ENDROOT
BRANCH  10  16
ATOM     15  C   UNL     1     105.529 126.310 144.252  0.00  0.00    +0.000 A 
ATOM     16  C   UNL     1     106.024 125.776 145.733  0.00  0.00    +0.000 A 
ATOM     17  C   UNL     1     105.733 125.518 144.358  0.00  0.00    +0.000 A 
ATOM     18  C   UNL     1     105.572 126.836 144.887  0.00  0.00    +0.000 A 
ATOM     19  C   UNL     1     105.981 125.252 145.099  0.00  0.00    +0.000 A 
ATOM     20  C   UNL     1     105.819 126.569 145.627  0.00  0.00    +0.000 A 
BRANCH  15  21
ATOM     21  O   UNL     1     105.281 126.577 143.512  0.00  0.00    +0.000 OA
BRANCH  21  29
ATOM     22  O   UNL     1     106.617 126.782 143.046  0.00  0.00    +0.000 OA
ATOM     23  O   UNL     1     105.802 128.501 141.463  0.00  0.00    +0.000 OA
ATOM     24  O   UNL     1     104.738 127.723 142.456  0.00  0.00    +0.000 OA
ATOM     25  O   UNL     1     107.409 128.132 141.526  0.00  0.00    +0.000 OA
ATOM     26  C   UNL     1     106.074 127.928 141.991  0.00  0.00    +0.000 C 
ATOM     27  C   UNL     1     105.542 127.539 142.488  0.00  0.00    +0.000 C 
ATOM     28  C   UNL     1     106.878 127.743 142.022  0.00  0.00    +0.000 C 
ATOM     29  C   UNL     1     105.814 126.966 143.015  0.00  0.00    +0.000 C 
ATOM     30  C   UNL     1     107.149 127.170 142.550  0.00  0.00    +0.000 C 
ENDBRANCH  21  29
ENDBRANCH  15  21
ENDBRANCH  10  16
BRANCH   6  31
ATOM     31  O   UNL     1     104.587 124.615 148.092  0.00  0.00    +0.000 OA
BRANCH  31  39
ATOM     32  O   UNL     1     104.354 125.823 148.818  0.00  0.00    +0.000 OA
ATOM     33  O   UNL     1     101.966 125.752 148.169  0.00  0.00    +0.000 OA
ATOM     34  O   UNL     1     102.996 124.567 147.659  0.00  0.00    +0.000 OA
ATOM     35  O   UNL     1     102.528 126.983 149.112  0.00  0.00    +0.000 OA
ATOM     36  C   UNL     1     102.762 125.775 148.385  0.00  0.00    +0.000 C 
ATOM     37  C   UNL     1     103.276 125.184 148.131  0.00  0.00    +0.000 C 
ATOM     38  C   UNL     1     103.043 126.391 148.857  0.00  0.00    +0.000 C 
ATOM     39  C   UNL     1     104.072 125.207 148.347  0.00  0.00    +0.000 C 
ATOM     40  C   UNL     1     103.839 126.415 149.073  0.00  0.00    +0.000 C 
ENDBRANCH  31  39
ENDBRANCH   6  31
TORSDOF 5
ENDMDL
MODEL 8
REMARK VINA RESULT:      -9.8      2.374      3.569
REMARK  Name = 44259946
REMARK  5 active torsions:
REMARK  status: ('A' for Active; 'I' for Inactive)
REMARK    1  A    between atoms: O_3  and  C_21
REMARK    2  A    between atoms: O_3  and  C_26
REMARK    3  A    between atoms: O_6  and  C_23
REMARK    4  A    between atoms: O_6  and  C_28
REMARK    5  A    between atoms: C_31  and  C_32
REMARK                            x       y       z     vdW  Elec       q    Type
REMARK                         _______ _______ _______ _____ _____    ______ ____
ROOT
ATOM      1  O   UNL     1     112.284 128.826 139.379  0.00  0.00    +0.000 OA
ATOM      2  O   UNL     1     114.206 127.685 141.246  0.00  0.00    +0.000 OA
ATOM      3  O   UNL     1     113.631 126.359 138.709  0.00  0.00    +0.000 OA
ATOM      4  O   UNL     1     111.598 128.145 137.422  0.00  0.00    +0.000 OA
ATOM      5  O   UNL     1     112.672 126.953 137.808  0.00  0.00    +0.000 OA
ATOM      6  C   UNL     1     113.240 128.272 140.322  0.00  0.00    +0.000 A 
ATOM      7  C   UNL     1     112.821 128.231 139.573  0.00  0.00    +0.000 A 
ATOM      8  C   UNL     1     112.951 127.606 139.049  0.00  0.00    +0.000 A 
ATOM      9  C   UNL     1     113.800 127.654 140.528  0.00  0.00    +0.000 A 
ATOM     10  C   UNL     1     111.877 128.798 138.663  0.00  0.00    +0.000 A 
ATOM     11  C   UNL     1     113.507 126.980 139.238  0.00  0.00    +0.000 A 
ATOM     12  C   UNL     1     113.935 127.004 139.983  0.00  0.00    +0.000 A 
ATOM     13  C   UNL     1     112.543 127.578 138.332  0.00  0.00    +0.000 A 
ATOM     14  C   UNL     1     112.006 128.174 138.139  0.00  0.00    +0.000 A 
ENDROOT
BRANCH  10  16
ATOM     15  C   UNL     1     110.266 130.585 138.082  0.00  0.00    +0.000 A 
ATOM     16  C   UNL     1     111.339 129.393 138.469  0.00  0.00    +0.000 A 
ATOM     17  C   UNL     1     110.007 129.911 138.480  0.00  0.00    +0.000 A 
ATOM     18  C   UNL     1     111.062 130.664 137.876  0.00  0.00    +0.000 A 
ATOM     19  C   UNL     1     110.545 129.315 138.674  0.00  0.00    +0.000 A 
ATOM     20  C   UNL     1     111.598 130.068 138.071  0.00  0.00    +0.000 A 
BRANCH  15  21
ATOM     21  O   UNL     1     109.730 131.181 137.887  0.00  0.00    +0.000 OA
BRANCH  21  29
ATOM     22  O   UNL     1     109.628 130.793 136.515  0.00  0.00    +0.000 OA
ATOM     23  O   UNL     1     107.309 131.653 136.444  0.00  0.00    +0.000 OA
ATOM     24  O   UNL     1     108.183 131.754 137.839  0.00  0.00    +0.000 OA
ATOM     25  O   UNL     1     107.981 130.979 135.096  0.00  0.00    +0.000 OA
ATOM     26  C   UNL     1     108.082 131.366 136.467  0.00  0.00    +0.000 C 
ATOM     27  C   UNL     1     108.519 131.417 137.166  0.00  0.00    +0.000 C 
ATOM     28  C   UNL     1     108.418 131.029 135.793  0.00  0.00    +0.000 C 
ATOM     29  C   UNL     1     109.292 131.130 137.189  0.00  0.00    +0.000 C 
ATOM     30  C   UNL     1     109.191 130.743 135.818  0.00  0.00    +0.000 C 
ENDBRANCH  21  29
ENDBRANCH  15  21
ENDBRANCH  10  16
BRANCH   6  31
ATOM     31  O   UNL     1     113.104 128.900 140.840  0.00  0.00    +0.000 OA
BRANCH  31  39
ATOM     32  O   UNL     1     114.299 129.536 140.383  0.00  0.00    +0.000 OA
ATOM     33  O   UNL     1     113.828 131.473 141.849  0.00  0.00    +0.000 OA
ATOM     34  O   UNL     1     112.789 130.191 141.818  0.00  0.00    +0.000 OA
ATOM     35  O   UNL     1     115.179 131.464 140.904  0.00  0.00    +0.000 OA
ATOM     36  C   UNL     1     113.984 130.827 141.361  0.00  0.00    +0.000 C 
ATOM     37  C   UNL     1     113.466 130.187 141.345  0.00  0.00    +0.000 C 
ATOM     38  C   UNL     1     114.660 130.823 140.888  0.00  0.00    +0.000 C 
ATOM     39  C   UNL     1     113.623 129.541 140.856  0.00  0.00    +0.000 C 
ATOM     40  C   UNL     1     114.818 130.177 140.399  0.00  0.00    +0.000 C 
ENDBRANCH  31  39
ENDBRANCH   6  31
TORSDOF 5
ENDMDL
MODEL 9
REMARK VINA RESULT:      -9.8      1.627      2.644
REMARK  Name = 44259946
REMARK  5 active torsions:
REMARK  status: ('A' for Active; 'I' for Inactive)
REMARK    1  A    between atoms: O_3  and  C_21
REMARK    2  A    between atoms: O_3  and  C_26
REMARK    3  A    between atoms: O_6  and  C_23
REMARK    4  A    between atoms: O_6  and  C_28
REMARK    5  A    between atoms: C_31  and  C_32
REMARK                            x       y       z     vdW  Elec       q    Type
REMARK                         _______ _______ _______ _____ _____    ______ ____
ROOT
ATOM      1  O   UNL     1     112.018 127.175 136.494  0.00  0.00    +0.000 OA
ATOM      2  O   UNL     1     112.048 124.370 137.276  0.00  0.00    +0.000 OA
ATOM      3  O   UNL     1     114.531 125.756 136.614  0.00  0.00    +0.000 OA
ATOM      4  O   UNL     1     113.634 128.533 135.936  0.00  0.00    +0.000 OA
ATOM      5  O   UNL     1     114.478 127.146 136.231  0.00  0.00    +0.000 OA
ATOM      6  C   UNL     1     112.014 125.777 136.886  0.00  0.00    +0.000 A 
ATOM      7  C   UNL     1     112.439 126.482 136.642  0.00  0.00    +0.000 A 
ATOM      8  C   UNL     1     113.260 126.472 136.554  0.00  0.00    +0.000 A 
ATOM      9  C   UNL     1     112.448 125.052 137.041  0.00  0.00    +0.000 A 
ATOM     10  C   UNL     1     112.415 127.858 136.260  0.00  0.00    +0.000 A 
ATOM     11  C   UNL     1     113.711 125.757 136.704  0.00  0.00    +0.000 A 
ATOM     12  C   UNL     1     113.302 125.042 136.949  0.00  0.00    +0.000 A 
ATOM     13  C   UNL     1     113.658 127.156 136.319  0.00  0.00    +0.000 A 
ATOM     14  C   UNL     1     113.235 127.849 136.172  0.00  0.00    +0.000 A 
ENDROOT
BRANCH  10  16
ATOM     15  C   UNL     1     111.149 129.939 135.816  0.00  0.00    +0.000 A 
ATOM     16  C   UNL     1     111.993 128.552 136.112  0.00  0.00    +0.000 A 
ATOM     17  C   UNL     1     111.430 129.781 136.576  0.00  0.00    +0.000 A 
ATOM     18  C   UNL     1     111.291 129.403 135.204  0.00  0.00    +0.000 A 
ATOM     19  C   UNL     1     111.851 129.087 136.723  0.00  0.00    +0.000 A 
ATOM     20  C   UNL     1     111.713 128.710 135.352  0.00  0.00    +0.000 A 
BRANCH  15  21
ATOM     21  O   UNL     1     110.728 130.632 135.667  0.00  0.00    +0.000 OA
BRANCH  21  29
ATOM     22  O   UNL     1     109.468 129.955 135.658  0.00  0.00    +0.000 OA
ATOM     23  O   UNL     1     108.330 132.063 136.278  0.00  0.00    +0.000 OA
ATOM     24  O   UNL     1     109.968 132.038 136.081  0.00  0.00    +0.000 OA
ATOM     25  O   UNL     1     107.452 130.684 136.062  0.00  0.00    +0.000 OA
ATOM     26  C   UNL     1     108.709 131.360 136.072  0.00  0.00    +0.000 C 
ATOM     27  C   UNL     1     109.529 131.348 135.973  0.00  0.00    +0.000 C 
ATOM     28  C   UNL     1     108.270 130.671 135.964  0.00  0.00    +0.000 C 
ATOM     29  C   UNL     1     109.908 130.645 135.766  0.00  0.00    +0.000 C 
ATOM     30  C   UNL     1     108.650 129.968 135.757  0.00  0.00    +0.000 C 
ENDBRANCH  21  29
ENDBRANCH  15  21
ENDBRANCH  10  16
BRANCH   6  31
ATOM     31  O   UNL     1     111.193 125.795 136.971  0.00  0.00    +0.000 OA
BRANCH  31  39
ATOM     32  O   UNL     1     111.329 125.863 138.391  0.00  0.00    +0.000 OA
ATOM     33  O   UNL     1     108.913 126.359 138.598  0.00  0.00    +0.000 OA
ATOM     34  O   UNL     1     109.582 126.127 137.108  0.00  0.00    +0.000 OA
ATOM     35  O   UNL     1     109.853 126.261 139.950  0.00  0.00    +0.000 OA
ATOM     36  C   UNL     1     109.718 126.194 138.529  0.00  0.00    +0.000 C 
ATOM     37  C   UNL     1     110.052 126.078 137.785  0.00  0.00    +0.000 C 
ATOM     38  C   UNL     1     110.188 126.145 139.205  0.00  0.00    +0.000 C 
ATOM     39  C   UNL     1     110.858 125.912 137.716  0.00  0.00    +0.000 C 
ATOM     40  C   UNL     1     110.993 125.979 139.137  0.00  0.00    +0.000 C 
ENDBRANCH  31  39
ENDBRANCH   6  31
TORSDOF 5
ENDMDL
