MODEL 1
REMARK VINA RESULT:      -7.6      0.000      0.000
REMARK  Name = 44258045
REMARK  5 active torsions:
REMARK  status: ('A' for Active; 'I' for Inactive)
REMARK    1  A    between atoms: O_2  and  C_14
REMARK    2  A    between atoms: O_3  and  C_18
REMARK    3  A    between atoms: O_5  and  C_22
REMARK    4  A    between atoms: O_7  and  C_24
REMARK    5  A    between atoms: C_11  and  C_13
REMARK                            x       y       z     vdW  Elec       q    Type
REMARK                         _______ _______ _______ _____ _____    ______ ____
ROOT
ATOM      1  O   UNL     1     113.474 126.901 136.675  0.00  0.00    +0.000 OA
ATOM      2  O   UNL     1     111.326 125.099 135.979  0.00  0.00    +0.000 OA
ATOM      3  O   UNL     1     111.187 126.524 135.806  0.00  0.00    +0.000 OA
ATOM      4  O   UNL     1     113.825 124.035 137.051  0.00  0.00    +0.000 OA
ATOM      5  C   UNL     1     112.412 126.009 136.331  0.00  0.00    +0.000 A 
ATOM      6  C   UNL     1     113.011 127.543 136.440  0.00  0.00    +0.000 A 
ATOM      7  C   UNL     1     113.175 126.135 136.621  0.00  0.00    +0.000 A 
ATOM      8  C   UNL     1     112.249 127.417 136.150  0.00  0.00    +0.000 A 
ATOM      9  C   UNL     1     111.949 126.650 136.096  0.00  0.00    +0.000 A 
ATOM     10  C   UNL     1     112.088 125.215 136.270  0.00  0.00    +0.000 A 
ATOM     11  C   UNL     1     113.666 125.475 136.869  0.00  0.00    +0.000 A 
ATOM     12  C   UNL     1     112.565 124.543 136.513  0.00  0.00    +0.000 A 
ATOM     13  C   UNL     1     113.360 124.674 136.815  0.00  0.00    +0.000 A 
ENDROOT
BRANCH   6  15
ATOM     14  O   UNL     1     113.384 129.954 137.928  0.00  0.00    +0.000 OA
ATOM     15  C   UNL     1     113.310 128.309 136.494  0.00  0.00    +0.000 A 
ATOM     16  C   UNL     1     113.723 128.638 135.860  0.00  0.00    +0.000 A 
ATOM     17  C   UNL     1     113.197 128.748 137.184  0.00  0.00    +0.000 A 
ATOM     18  C   UNL     1     114.022 129.404 135.914  0.00  0.00    +0.000 A 
ATOM     19  C   UNL     1     113.497 129.515 137.238  0.00  0.00    +0.000 A 
ATOM     20  C   UNL     1     113.909 129.843 136.603  0.00  0.00    +0.000 A 
BRANCH  18  21
ATOM     21  O   UNL     1     114.434 129.733 135.279  0.00  0.00    +0.000 OA
ATOM     22  C   UNL     1     114.835 129.244 134.749  0.00  0.00    +0.000 C 
ENDBRANCH  18  21
BRANCH  20  23
ATOM     23  O   UNL     1     114.208 130.610 136.658  0.00  0.00    +0.000 OA
ATOM     24  C   UNL     1     113.693 131.251 136.722  0.00  0.00    +0.000 C 
ENDBRANCH  20  23
ENDBRANCH   6  15
BRANCH   8  25
ATOM     25  O   UNL     1     111.786 128.058 135.915  0.00  0.00    +0.000 OA
ATOM     26  C   UNL     1     111.119 127.935 135.445  0.00  0.00    +0.000 C 
ENDBRANCH   8  25
BRANCH  12  27
ATOM     27  O   UNL     1     112.263 123.777 136.458  0.00  0.00    +0.000 OA
ATOM     28  C   UNL     1     111.969 123.400 137.130  0.00  0.00    +0.000 C 
ENDBRANCH  12  27
TORSDOF 5
ENDMDL
MODEL 2
REMARK VINA RESULT:      -7.5      0.861      4.734
REMARK  Name = 44258045
REMARK  5 active torsions:
REMARK  status: ('A' for Active; 'I' for Inactive)
REMARK    1  A    between atoms: O_2  and  C_14
REMARK    2  A    between atoms: O_3  and  C_18
REMARK    3  A    between atoms: O_5  and  C_22
REMARK    4  A    between atoms: O_7  and  C_24
REMARK    5  A    between atoms: C_11  and  C_13
REMARK                            x       y       z     vdW  Elec       q    Type
REMARK                         _______ _______ _______ _____ _____    ______ ____
ROOT
ATOM      1  O   UNL     1     113.247 127.392 136.148  0.00  0.00    +0.000 OA
ATOM      2  O   UNL     1     112.755 129.875 137.539  0.00  0.00    +0.000 OA
ATOM      3  O   UNL     1     112.304 128.617 138.081  0.00  0.00    +0.000 OA
ATOM      4  O   UNL     1     114.186 129.895 134.994  0.00  0.00    +0.000 OA
ATOM      5  C   UNL     1     113.004 128.620 136.835  0.00  0.00    +0.000 A 
ATOM      6  C   UNL     1     112.861 126.979 136.749  0.00  0.00    +0.000 A 
ATOM      7  C   UNL     1     113.318 128.212 136.191  0.00  0.00    +0.000 A 
ATOM      8  C   UNL     1     112.547 127.387 137.394  0.00  0.00    +0.000 A 
ATOM      9  C   UNL     1     112.618 128.209 137.437  0.00  0.00    +0.000 A 
ATOM     10  C   UNL     1     113.072 129.476 136.891  0.00  0.00    +0.000 A 
ATOM     11  C   UNL     1     113.722 128.630 135.558  0.00  0.00    +0.000 A 
ATOM     12  C   UNL     1     113.473 129.911 136.268  0.00  0.00    +0.000 A 
ATOM     13  C   UNL     1     113.800 129.485 135.597  0.00  0.00    +0.000 A 
ENDROOT
BRANCH   6  15
ATOM     14  O   UNL     1     111.364 124.661 136.004  0.00  0.00    +0.000 OA
ATOM     15  C   UNL     1     112.789 126.159 136.707  0.00  0.00    +0.000 A 
ATOM     16  C   UNL     1     113.393 125.675 136.994  0.00  0.00    +0.000 A 
ATOM     17  C   UNL     1     112.113 125.820 136.377  0.00  0.00    +0.000 A 
ATOM     18  C   UNL     1     113.322 124.855 136.952  0.00  0.00    +0.000 A 
ATOM     19  C   UNL     1     112.041 124.999 136.334  0.00  0.00    +0.000 A 
ATOM     20  C   UNL     1     112.645 124.517 136.622  0.00  0.00    +0.000 A 
BRANCH  18  21
ATOM     21  O   UNL     1     113.926 124.372 137.239  0.00  0.00    +0.000 OA
ATOM     22  C   UNL     1     114.685 124.676 137.339  0.00  0.00    +0.000 C 
ENDBRANCH  18  21
BRANCH  20  23
ATOM     23  O   UNL     1     112.573 123.696 136.579  0.00  0.00    +0.000 OA
ATOM     24  C   UNL     1     112.031 123.303 137.062  0.00  0.00    +0.000 C 
ENDBRANCH  20  23
ENDBRANCH   6  15
BRANCH   8  25
ATOM     25  O   UNL     1     112.161 126.976 137.995  0.00  0.00    +0.000 OA
ATOM     26  C   UNL     1     112.020 127.341 138.721  0.00  0.00    +0.000 C 
ENDBRANCH   8  25
BRANCH  12  27
ATOM     27  O   UNL     1     113.543 130.731 136.313  0.00  0.00    +0.000 OA
ATOM     28  C   UNL     1     114.254 131.072 136.557  0.00  0.00    +0.000 C 
ENDBRANCH  12  27
TORSDOF 5
ENDMDL
MODEL 3
REMARK VINA RESULT:      -7.5     10.601     11.607
REMARK  Name = 44258045
REMARK  5 active torsions:
REMARK  status: ('A' for Active; 'I' for Inactive)
REMARK    1  A    between atoms: O_2  and  C_14
REMARK    2  A    between atoms: O_3  and  C_18
REMARK    3  A    between atoms: O_5  and  C_22
REMARK    4  A    between atoms: O_7  and  C_24
REMARK    5  A    between atoms: C_11  and  C_13
REMARK                            x       y       z     vdW  Elec       q    Type
REMARK                         _______ _______ _______ _____ _____    ______ ____
ROOT
ATOM      1  O   UNL     1     103.549 130.174 142.282  0.00  0.00    +0.000 OA
ATOM      2  O   UNL     1     104.279 127.695 140.991  0.00  0.00    +0.000 OA
ATOM      3  O   UNL     1     103.388 128.632 140.352  0.00  0.00    +0.000 OA
ATOM      4  O   UNL     1     105.353 128.329 143.631  0.00  0.00    +0.000 OA
ATOM      5  C   UNL     1     103.911 128.948 141.644  0.00  0.00    +0.000 A 
ATOM      6  C   UNL     1     103.080 130.373 141.633  0.00  0.00    +0.000 A 
ATOM      7  C   UNL     1     103.965 129.462 142.288  0.00  0.00    +0.000 A 
ATOM      8  C   UNL     1     103.026 129.859 140.990  0.00  0.00    +0.000 A 
ATOM      9  C   UNL     1     103.442 129.146 140.995  0.00  0.00    +0.000 A 
ATOM     10  C   UNL     1     104.339 128.202 141.638  0.00  0.00    +0.000 A 
ATOM     11  C   UNL     1     104.450 129.266 142.969  0.00  0.00    +0.000 A 
ATOM     12  C   UNL     1     104.829 127.989 142.311  0.00  0.00    +0.000 A 
ATOM     13  C   UNL     1     104.885 128.525 142.981  0.00  0.00    +0.000 A 
ENDROOT
BRANCH   6  15
ATOM     14  O   UNL     1     100.710 131.861 142.214  0.00  0.00    +0.000 OA
ATOM     15  C   UNL     1     102.665 131.086 141.627  0.00  0.00    +0.000 A 
ATOM     16  C   UNL     1     103.018 131.767 141.325  0.00  0.00    +0.000 A 
ATOM     17  C   UNL     1     101.896 131.117 141.923  0.00  0.00    +0.000 A 
ATOM     18  C   UNL     1     102.603 132.480 141.319  0.00  0.00    +0.000 A 
ATOM     19  C   UNL     1     101.479 131.830 141.917  0.00  0.00    +0.000 A 
ATOM     20  C   UNL     1     101.834 132.511 141.615  0.00  0.00    +0.000 A 
BRANCH  18  21
ATOM     21  O   UNL     1     102.956 133.161 141.017  0.00  0.00    +0.000 OA
ATOM     22  C   UNL     1     103.735 133.138 140.747  0.00  0.00    +0.000 C 
ENDBRANCH  18  21
BRANCH  20  23
ATOM     23  O   UNL     1     101.417 133.224 141.609  0.00  0.00    +0.000 OA
ATOM     24  C   UNL     1     101.187 133.573 142.320  0.00  0.00    +0.000 C 
ENDBRANCH  20  23
ENDBRANCH   6  15
BRANCH   8  25
ATOM     25  O   UNL     1     102.558 130.058 140.341  0.00  0.00    +0.000 OA
ATOM     26  C   UNL     1     102.233 129.464 139.869  0.00  0.00    +0.000 C 
ENDBRANCH   8  25
BRANCH  12  27
ATOM     27  O   UNL     1     105.243 127.276 142.314  0.00  0.00    +0.000 OA
ATOM     28  C   UNL     1     106.056 127.270 142.172  0.00  0.00    +0.000 C 
ENDBRANCH  12  27
TORSDOF 5
ENDMDL
MODEL 4
REMARK VINA RESULT:      -7.5      1.919      5.188
REMARK  Name = 44258045
REMARK  5 active torsions:
REMARK  status: ('A' for Active; 'I' for Inactive)
REMARK    1  A    between atoms: O_2  and  C_14
REMARK    2  A    between atoms: O_3  and  C_18
REMARK    3  A    between atoms: O_5  and  C_22
REMARK    4  A    between atoms: O_7  and  C_24
REMARK    5  A    between atoms: C_11  and  C_13
REMARK                            x       y       z     vdW  Elec       q    Type
REMARK                         _______ _______ _______ _____ _____    ______ ____
ROOT
ATOM      1  O   UNL     1     109.962 127.132 136.259  0.00  0.00    +0.000 OA
ATOM      2  O   UNL     1     110.636 129.675 135.067  0.00  0.00    +0.000 OA
ATOM      3  O   UNL     1     111.652 128.690 135.342  0.00  0.00    +0.000 OA
ATOM      4  O   UNL     1     107.857 129.073 135.730  0.00  0.00    +0.000 OA
ATOM      5  C   UNL     1     110.294 128.389 135.669  0.00  0.00    +0.000 A 
ATOM      6  C   UNL     1     110.757 126.911 136.238  0.00  0.00    +0.000 A 
ATOM      7  C   UNL     1     109.730 127.870 135.975  0.00  0.00    +0.000 A 
ATOM      8  C   UNL     1     111.320 127.431 135.933  0.00  0.00    +0.000 A 
ATOM      9  C   UNL     1     111.089 128.170 135.648  0.00  0.00    +0.000 A 
ATOM     10  C   UNL     1     110.066 129.163 135.370  0.00  0.00    +0.000 A 
ATOM     11  C   UNL     1     108.899 128.088 136.002  0.00  0.00    +0.000 A 
ATOM     12  C   UNL     1     109.240 129.397 135.389  0.00  0.00    +0.000 A 
ATOM     13  C   UNL     1     108.652 128.856 135.708  0.00  0.00    +0.000 A 
ENDROOT
BRANCH   6  15
ATOM     14  O   UNL     1     111.400 124.168 135.763  0.00  0.00    +0.000 OA
ATOM     15  C   UNL     1     110.988 126.173 136.522  0.00  0.00    +0.000 A 
ATOM     16  C   UNL     1     111.129 126.066 137.328  0.00  0.00    +0.000 A 
ATOM     17  C   UNL     1     111.078 125.540 136.000  0.00  0.00    +0.000 A 
ATOM     18  C   UNL     1     111.361 125.327 137.612  0.00  0.00    +0.000 A 
ATOM     19  C   UNL     1     111.310 124.800 136.284  0.00  0.00    +0.000 A 
ATOM     20  C   UNL     1     111.451 124.694 137.090  0.00  0.00    +0.000 A 
BRANCH  18  21
ATOM     21  O   UNL     1     111.502 125.220 138.418  0.00  0.00    +0.000 OA
ATOM     22  C   UNL     1     111.138 125.712 138.970  0.00  0.00    +0.000 C 
ENDBRANCH  18  21
BRANCH  20  23
ATOM     23  O   UNL     1     111.683 123.955 137.374  0.00  0.00    +0.000 OA
ATOM     24  C   UNL     1     112.386 123.613 137.110  0.00  0.00    +0.000 C 
ENDBRANCH  20  23
ENDBRANCH   6  15
BRANCH   8  25
ATOM     25  O   UNL     1     112.115 127.211 135.911  0.00  0.00    +0.000 OA
ATOM     26  C   UNL     1     112.704 127.786 135.974  0.00  0.00    +0.000 C 
ENDBRANCH   8  25
BRANCH  12  27
ATOM     27  O   UNL     1     109.011 130.137 135.104  0.00  0.00    +0.000 OA
ATOM     28  C   UNL     1     108.850 130.750 135.632  0.00  0.00    +0.000 C 
ENDBRANCH  12  27
TORSDOF 5
ENDMDL
MODEL 5
REMARK VINA RESULT:      -7.4     12.764     14.326
REMARK  Name = 44258045
REMARK  5 active torsions:
REMARK  status: ('A' for Active; 'I' for Inactive)
REMARK    1  A    between atoms: O_2  and  C_14
REMARK    2  A    between atoms: O_3  and  C_18
REMARK    3  A    between atoms: O_5  and  C_22
REMARK    4  A    between atoms: O_7  and  C_24
REMARK    5  A    between atoms: C_11  and  C_13
REMARK                            x       y       z     vdW  Elec       q    Type
REMARK                         _______ _______ _______ _____ _____    ______ ____
ROOT
ATOM      1  O   UNL     1     105.062 124.421 147.752  0.00  0.00    +0.000 OA
ATOM      2  O   UNL     1     107.472 125.485 146.567  0.00  0.00    +0.000 OA
ATOM      3  O   UNL     1     106.245 125.405 145.813  0.00  0.00    +0.000 OA
ATOM      4  O   UNL     1     107.503 124.553 149.334  0.00  0.00    +0.000 OA
ATOM      5  C   UNL     1     106.254 124.947 147.167  0.00  0.00    +0.000 A 
ATOM      6  C   UNL     1     104.657 124.551 147.044  0.00  0.00    +0.000 A 
ATOM      7  C   UNL     1     105.860 124.619 147.813  0.00  0.00    +0.000 A 
ATOM      8  C   UNL     1     105.052 124.878 146.398  0.00  0.00    +0.000 A 
ATOM      9  C   UNL     1     105.851 125.077 146.459  0.00  0.00    +0.000 A 
ATOM     10  C   UNL     1     107.087 125.158 147.217  0.00  0.00    +0.000 A 
ATOM     11  C   UNL     1     106.270 124.480 148.555  0.00  0.00    +0.000 A 
ATOM     12  C   UNL     1     107.513 125.025 147.951  0.00  0.00    +0.000 A 
ATOM     13  C   UNL     1     107.102 124.684 148.625  0.00  0.00    +0.000 A 
ENDROOT
BRANCH   6  15
ATOM     14  O   UNL     1     102.615 122.739 146.200  0.00  0.00    +0.000 OA
ATOM     15  C   UNL     1     103.859 124.353 146.983  0.00  0.00    +0.000 A 
ATOM     16  C   UNL     1     103.283 124.862 147.283  0.00  0.00    +0.000 A 
ATOM     17  C   UNL     1     103.637 123.645 146.622  0.00  0.00    +0.000 A 
ATOM     18  C   UNL     1     102.485 124.664 147.221  0.00  0.00    +0.000 A 
ATOM     19  C   UNL     1     102.838 123.447 146.561  0.00  0.00    +0.000 A 
ATOM     20  C   UNL     1     102.262 123.956 146.860  0.00  0.00    +0.000 A 
BRANCH  18  21
ATOM     21  O   UNL     1     101.909 125.173 147.521  0.00  0.00    +0.000 OA
ATOM     22  C   UNL     1     101.951 125.431 148.303  0.00  0.00    +0.000 C 
ENDBRANCH  18  21
BRANCH  20  23
ATOM     23  O   UNL     1     101.463 123.758 146.799  0.00  0.00    +0.000 OA
ATOM     24  C   UNL     1     101.102 123.726 146.058  0.00  0.00    +0.000 C 
ENDBRANCH  20  23
ENDBRANCH   6  15
BRANCH   8  25
ATOM     25  O   UNL     1     104.648 125.008 145.691  0.00  0.00    +0.000 OA
ATOM     26  C   UNL     1     104.956 125.527 145.128  0.00  0.00    +0.000 C 
ENDBRANCH   8  25
BRANCH  12  27
ATOM     27  O   UNL     1     108.311 125.224 148.010  0.00  0.00    +0.000 OA
ATOM     28  C   UNL     1     108.871 124.641 148.174  0.00  0.00    +0.000 C 
ENDBRANCH  12  27
TORSDOF 5
ENDMDL
MODEL 6
REMARK VINA RESULT:      -7.4      2.480      3.392
REMARK  Name = 44258045
REMARK  5 active torsions:
REMARK  status: ('A' for Active; 'I' for Inactive)
REMARK    1  A    between atoms: O_2  and  C_14
REMARK    2  A    between atoms: O_3  and  C_18
REMARK    3  A    between atoms: O_5  and  C_22
REMARK    4  A    between atoms: O_7  and  C_24
REMARK    5  A    between atoms: C_11  and  C_13
REMARK                            x       y       z     vdW  Elec       q    Type
REMARK                         _______ _______ _______ _____ _____    ______ ____
ROOT
ATOM      1  O   UNL     1     110.491 126.498 136.068  0.00  0.00    +0.000 OA
ATOM      2  O   UNL     1     111.331 124.973 138.373  0.00  0.00    +0.000 OA
ATOM      3  O   UNL     1     110.728 126.275 138.521  0.00  0.00    +0.000 OA
ATOM      4  O   UNL     1     111.702 123.877 135.692  0.00  0.00    +0.000 OA
ATOM      5  C   UNL     1     110.907 125.743 137.207  0.00  0.00    +0.000 A 
ATOM      6  C   UNL     1     110.233 127.105 136.564  0.00  0.00    +0.000 A 
ATOM      7  C   UNL     1     110.828 125.818 136.389  0.00  0.00    +0.000 A 
ATOM      8  C   UNL     1     110.312 127.031 137.382  0.00  0.00    +0.000 A 
ATOM      9  C   UNL     1     110.649 126.349 137.704  0.00  0.00    +0.000 A 
ATOM     10  C   UNL     1     111.256 125.039 137.555  0.00  0.00    +0.000 A 
ATOM     11  C   UNL     1     111.093 125.193 135.861  0.00  0.00    +0.000 A 
ATOM     12  C   UNL     1     111.527 124.404 137.043  0.00  0.00    +0.000 A 
ATOM     13  C   UNL     1     111.444 124.482 136.190  0.00  0.00    +0.000 A 
ENDROOT
BRANCH   6  15
ATOM     14  O   UNL     1     107.919 128.583 135.768  0.00  0.00    +0.000 OA
ATOM     15  C   UNL     1     109.896 127.786 136.243  0.00  0.00    +0.000 A 
ATOM     16  C   UNL     1     110.377 128.410 135.998  0.00  0.00    +0.000 A 
ATOM     17  C   UNL     1     109.076 127.844 136.166  0.00  0.00    +0.000 A 
ATOM     18  C   UNL     1     110.041 129.090 135.677  0.00  0.00    +0.000 A 
ATOM     19  C   UNL     1     108.739 128.525 135.844  0.00  0.00    +0.000 A 
ATOM     20  C   UNL     1     109.221 129.148 135.600  0.00  0.00    +0.000 A 
BRANCH  18  21
ATOM     21  O   UNL     1     110.522 129.714 135.432  0.00  0.00    +0.000 OA
ATOM     22  C   UNL     1     111.292 129.566 135.178  0.00  0.00    +0.000 C 
ENDBRANCH  18  21
BRANCH  20  23
ATOM     23  O   UNL     1     108.883 129.829 135.279  0.00  0.00    +0.000 OA
ATOM     24  C   UNL     1     108.472 130.354 135.764  0.00  0.00    +0.000 C 
ENDBRANCH  20  23
ENDBRANCH   6  15
BRANCH   8  25
ATOM     25  O   UNL     1     110.054 127.637 137.878  0.00  0.00    +0.000 OA
ATOM     26  C   UNL     1     110.360 127.703 138.642  0.00  0.00    +0.000 C 
ENDBRANCH   8  25
BRANCH  12  27
ATOM     27  O   UNL     1     111.864 123.724 137.367  0.00  0.00    +0.000 OA
ATOM     28  C   UNL     1     112.665 123.566 137.253  0.00  0.00    +0.000 C 
ENDBRANCH  12  27
TORSDOF 5
ENDMDL
MODEL 7
REMARK VINA RESULT:      -7.4     12.714     14.400
REMARK  Name = 44258045
REMARK  5 active torsions:
REMARK  status: ('A' for Active; 'I' for Inactive)
REMARK    1  A    between atoms: O_2  and  C_14
REMARK    2  A    between atoms: O_3  and  C_18
REMARK    3  A    between atoms: O_5  and  C_22
REMARK    4  A    between atoms: O_7  and  C_24
REMARK    5  A    between atoms: C_11  and  C_13
REMARK                            x       y       z     vdW  Elec       q    Type
REMARK                         _______ _______ _______ _____ _____    ______ ____
ROOT
ATOM      1  O   UNL     1     104.096 125.353 146.525  0.00  0.00    +0.000 OA
ATOM      2  O   UNL     1     106.164 124.548 144.675  0.00  0.00    +0.000 OA
ATOM      3  O   UNL     1     105.183 123.604 145.152  0.00  0.00    +0.000 OA
ATOM      4  O   UNL     1     106.043 127.314 145.605  0.00  0.00    +0.000 OA
ATOM      5  C   UNL     1     105.119 124.956 145.610  0.00  0.00    +0.000 A 
ATOM      6  C   UNL     1     103.797 124.584 146.525  0.00  0.00    +0.000 A 
ATOM      7  C   UNL     1     104.756 125.539 146.068  0.00  0.00    +0.000 A 
ATOM      8  C   UNL     1     104.159 124.001 146.067  0.00  0.00    +0.000 A 
ATOM      9  C   UNL     1     104.821 124.187 145.609  0.00  0.00    +0.000 A 
ATOM     10  C   UNL     1     105.808 125.137 145.129  0.00  0.00    +0.000 A 
ATOM     11  C   UNL     1     105.058 126.344 146.077  0.00  0.00    +0.000 A 
ATOM     12  C   UNL     1     106.124 125.936 145.126  0.00  0.00    +0.000 A 
ATOM     13  C   UNL     1     105.746 126.544 145.603  0.00  0.00    +0.000 A 
ENDROOT
BRANCH   6  15
ATOM     14  O   UNL     1     100.975 124.191 146.751  0.00  0.00    +0.000 OA
ATOM     15  C   UNL     1     103.136 124.398 146.982  0.00  0.00    +0.000 A 
ATOM     16  C   UNL     1     103.224 124.222 147.783  0.00  0.00    +0.000 A 
ATOM     17  C   UNL     1     102.386 124.388 146.637  0.00  0.00    +0.000 A 
ATOM     18  C   UNL     1     102.564 124.036 148.240  0.00  0.00    +0.000 A 
ATOM     19  C   UNL     1     101.725 124.201 147.095  0.00  0.00    +0.000 A 
ATOM     20  C   UNL     1     101.814 124.026 147.896  0.00  0.00    +0.000 A 
BRANCH  18  21
ATOM     21  O   UNL     1     102.652 123.860 149.041  0.00  0.00    +0.000 OA
ATOM     22  C   UNL     1     103.259 124.208 149.476  0.00  0.00    +0.000 C 
ENDBRANCH  18  21
BRANCH  20  23
ATOM     23  O   UNL     1     101.152 123.839 148.353  0.00  0.00    +0.000 OA
ATOM     24  C   UNL     1     100.714 123.160 148.187  0.00  0.00    +0.000 C 
ENDBRANCH  20  23
ENDBRANCH   6  15
BRANCH   8  25
ATOM     25  O   UNL     1     103.861 123.232 146.066  0.00  0.00    +0.000 OA
ATOM     26  C   UNL     1     103.992 122.739 145.418  0.00  0.00    +0.000 C 
ENDBRANCH   8  25
BRANCH  12  27
ATOM     27  O   UNL     1     106.785 126.120 144.667  0.00  0.00    +0.000 OA
ATOM     28  C   UNL     1     106.710 126.623 144.018  0.00  0.00    +0.000 C 
ENDBRANCH  12  27
TORSDOF 5
ENDMDL
MODEL 8
REMARK VINA RESULT:      -7.3     13.092     14.331
REMARK  Name = 44258045
REMARK  5 active torsions:
REMARK  status: ('A' for Active; 'I' for Inactive)
REMARK    1  A    between atoms: O_2  and  C_14
REMARK    2  A    between atoms: O_3  and  C_18
REMARK    3  A    between atoms: O_5  and  C_22
REMARK    4  A    between atoms: O_7  and  C_24
REMARK    5  A    between atoms: C_11  and  C_13
REMARK                            x       y       z     vdW  Elec       q    Type
REMARK                         _______ _______ _______ _____ _____    ______ ____
ROOT
ATOM      1  O   UNL     1     104.357 124.114 146.749  0.00  0.00    +0.000 OA
ATOM      2  O   UNL     1     101.548 124.596 147.221  0.00  0.00    +0.000 OA
ATOM      3  O   UNL     1     102.559 125.259 148.007  0.00  0.00    +0.000 OA
ATOM      4  O   UNL     1     102.371 122.739 145.123  0.00  0.00    +0.000 OA
ATOM      5  C   UNL     1     102.968 124.351 146.982  0.00  0.00    +0.000 A 
ATOM      6  C   UNL     1     104.548 124.640 147.356  0.00  0.00    +0.000 A 
ATOM      7  C   UNL     1     103.567 123.970 146.562  0.00  0.00    +0.000 A 
ATOM      8  C   UNL     1     103.949 125.021 147.775  0.00  0.00    +0.000 A 
ATOM      9  C   UNL     1     103.158 124.877 147.588  0.00  0.00    +0.000 A 
ATOM     10  C   UNL     1     102.139 124.210 146.796  0.00  0.00    +0.000 A 
ATOM     11  C   UNL     1     103.380 123.420 145.929  0.00  0.00    +0.000 A 
ATOM     12  C   UNL     1     101.934 123.663 146.166  0.00  0.00    +0.000 A 
ATOM     13  C   UNL     1     102.559 123.265 145.729  0.00  0.00    +0.000 A 
ENDROOT
BRANCH   6  15
ATOM     14  O   UNL     1     106.790 124.262 149.087  0.00  0.00    +0.000 OA
ATOM     15  C   UNL     1     105.338 124.784 147.543  0.00  0.00    +0.000 A 
ATOM     16  C   UNL     1     105.799 125.261 147.052  0.00  0.00    +0.000 A 
ATOM     17  C   UNL     1     105.669 124.451 148.221  0.00  0.00    +0.000 A 
ATOM     18  C   UNL     1     106.589 125.406 147.239  0.00  0.00    +0.000 A 
ATOM     19  C   UNL     1     106.460 124.595 148.409  0.00  0.00    +0.000 A 
ATOM     20  C   UNL     1     106.919 125.073 147.917  0.00  0.00    +0.000 A 
BRANCH  18  21
ATOM     21  O   UNL     1     107.049 125.883 146.748  0.00  0.00    +0.000 OA
ATOM     22  C   UNL     1     106.713 126.241 146.086  0.00  0.00    +0.000 C 
ENDBRANCH  18  21
BRANCH  20  23
ATOM     23  O   UNL     1     107.710 125.217 148.105  0.00  0.00    +0.000 OA
ATOM     24  C   UNL     1     108.172 124.618 148.434  0.00  0.00    +0.000 C 
ENDBRANCH  20  23
ENDBRANCH   6  15
BRANCH   8  25
ATOM     25  O   UNL     1     104.140 125.547 148.381  0.00  0.00    +0.000 OA
ATOM     26  C   UNL     1     103.622 126.160 148.575  0.00  0.00    +0.000 C 
ENDBRANCH   8  25
BRANCH  12  27
ATOM     27  O   UNL     1     101.143 123.521 145.981  0.00  0.00    +0.000 OA
ATOM     28  C   UNL     1     100.822 122.769 146.094  0.00  0.00    +0.000 C 
ENDBRANCH  12  27
TORSDOF 5
ENDMDL
MODEL 9
REMARK VINA RESULT:      -7.3     12.120     13.241
REMARK  Name = 44258045
REMARK  5 active torsions:
REMARK  status: ('A' for Active; 'I' for Inactive)
REMARK    1  A    between atoms: O_2  and  C_14
REMARK    2  A    between atoms: O_3  and  C_18
REMARK    3  A    between atoms: O_5  and  C_22
REMARK    4  A    between atoms: O_7  and  C_24
REMARK    5  A    between atoms: C_11  and  C_13
REMARK                            x       y       z     vdW  Elec       q    Type
REMARK                         _______ _______ _______ _____ _____    ______ ____
ROOT
ATOM      1  O   UNL     1     104.570 124.970 147.019  0.00  0.00    +0.000 OA
ATOM      2  O   UNL     1     103.262 123.066 145.285  0.00  0.00    +0.000 OA
ATOM      3  O   UNL     1     104.431 123.789 144.848  0.00  0.00    +0.000 OA
ATOM      4  O   UNL     1     102.213 123.546 147.967  0.00  0.00    +0.000 OA
ATOM      5  C   UNL     1     103.922 124.028 146.162  0.00  0.00    +0.000 A 
ATOM      6  C   UNL     1     105.126 125.125 146.429  0.00  0.00    +0.000 A 
ATOM      7  C   UNL     1     103.969 124.422 146.886  0.00  0.00    +0.000 A 
ATOM      8  C   UNL     1     105.079 124.732 145.705  0.00  0.00    +0.000 A 
ATOM      9  C   UNL     1     104.477 124.183 145.572  0.00  0.00    +0.000 A 
ATOM     10  C   UNL     1     103.300 123.454 146.010  0.00  0.00    +0.000 A 
ATOM     11  C   UNL     1     103.396 124.269 147.508  0.00  0.00    +0.000 A 
ATOM     12  C   UNL     1     102.719 123.289 146.621  0.00  0.00    +0.000 A 
ATOM     13  C   UNL     1     102.767 123.699 147.375  0.00  0.00    +0.000 A 
ENDROOT
BRANCH   6  15
ATOM     14  O   UNL     1     106.093 127.812 146.321  0.00  0.00    +0.000 OA
ATOM     15  C   UNL     1     105.727 125.673 146.562  0.00  0.00    +0.000 A 
ATOM     16  C   UNL     1     106.447 125.428 146.882  0.00  0.00    +0.000 A 
ATOM     17  C   UNL     1     105.609 126.468 146.375  0.00  0.00    +0.000 A 
ATOM     18  C   UNL     1     107.048 125.976 147.015  0.00  0.00    +0.000 A 
ATOM     19  C   UNL     1     106.211 127.018 146.508  0.00  0.00    +0.000 A 
ATOM     20  C   UNL     1     106.930 126.771 146.828  0.00  0.00    +0.000 A 
BRANCH  18  21
ATOM     21  O   UNL     1     107.768 125.730 147.335  0.00  0.00    +0.000 OA
ATOM     22  C   UNL     1     107.802 125.053 147.804  0.00  0.00    +0.000 C 
ENDBRANCH  18  21
BRANCH  20  23
ATOM     23  O   UNL     1     107.532 127.320 146.961  0.00  0.00    +0.000 OA
ATOM     24  C   UNL     1     107.754 127.842 146.362  0.00  0.00    +0.000 C 
ENDBRANCH  20  23
ENDBRANCH   6  15
BRANCH   8  25
ATOM     25  O   UNL     1     105.634 124.886 145.115  0.00  0.00    +0.000 OA
ATOM     26  C   UNL     1     105.588 124.492 144.392  0.00  0.00    +0.000 C 
ENDBRANCH   8  25
BRANCH  12  27
ATOM     27  O   UNL     1     102.118 122.740 146.485  0.00  0.00    +0.000 OA
ATOM     28  C   UNL     1     101.363 122.998 146.276  0.00  0.00    +0.000 C 
ENDBRANCH  12  27
TORSDOF 5
ENDMDL
MODEL 10
REMARK VINA RESULT:      -7.2     11.205     12.351
REMARK  Name = 44258045
REMARK  5 active torsions:
REMARK  status: ('A' for Active; 'I' for Inactive)
REMARK    1  A    between atoms: O_2  and  C_14
REMARK    2  A    between atoms: O_3  and  C_18
REMARK    3  A    between atoms: O_5  and  C_22
REMARK    4  A    between atoms: O_7  and  C_24
REMARK    5  A    between atoms: C_11  and  C_13
REMARK                            x       y       z     vdW  Elec       q    Type
REMARK                         _______ _______ _______ _____ _____    ______ ____
ROOT
ATOM      1  O   UNL     1     106.766 125.307 146.105  0.00  0.00    +0.000 OA
ATOM      2  O   UNL     1     105.577 124.615 148.645  0.00  0.00    +0.000 OA
ATOM      3  O   UNL     1     104.764 124.793 147.467  0.00  0.00    +0.000 OA
ATOM      4  O   UNL     1     108.469 124.963 148.442  0.00  0.00    +0.000 OA
ATOM      5  C   UNL     1     106.179 124.965 147.361  0.00  0.00    +0.000 A 
ATOM      6  C   UNL     1     106.018 125.307 145.755  0.00  0.00    +0.000 A 
ATOM      7  C   UNL     1     106.846 125.136 146.907  0.00  0.00    +0.000 A 
ATOM      8  C   UNL     1     105.351 125.136 146.209  0.00  0.00    +0.000 A 
ATOM      9  C   UNL     1     105.431 124.964 147.013  0.00  0.00    +0.000 A 
ATOM     10  C   UNL     1     106.249 124.785 148.200  0.00  0.00    +0.000 A 
ATOM     11  C   UNL     1     107.630 125.139 147.260  0.00  0.00    +0.000 A 
ATOM     12  C   UNL     1     107.024 124.783 148.569  0.00  0.00    +0.000 A 
ATOM     13  C   UNL     1     107.720 124.962 148.096  0.00  0.00    +0.000 A 
ENDROOT
BRANCH   6  15
ATOM     14  O   UNL     1     105.802 124.422 143.046  0.00  0.00    +0.000 OA
ATOM     15  C   UNL     1     105.938 125.478 144.953  0.00  0.00    +0.000 A 
ATOM     16  C   UNL     1     105.885 126.261 144.700  0.00  0.00    +0.000 A 
ATOM     17  C   UNL     1     105.910 124.865 144.401  0.00  0.00    +0.000 A 
ATOM     18  C   UNL     1     105.805 126.432 143.898  0.00  0.00    +0.000 A 
ATOM     19  C   UNL     1     105.830 125.035 143.598  0.00  0.00    +0.000 A 
ATOM     20  C   UNL     1     105.777 125.819 143.346  0.00  0.00    +0.000 A 
BRANCH  18  21
ATOM     21  O   UNL     1     105.752 127.216 143.645  0.00  0.00    +0.000 OA
ATOM     22  C   UNL     1     105.611 127.817 144.192  0.00  0.00    +0.000 C 
ENDBRANCH  18  21
BRANCH  20  23
ATOM     23  O   UNL     1     105.697 125.990 142.543  0.00  0.00    +0.000 OA
ATOM     24  C   UNL     1     106.300 125.792 142.016  0.00  0.00    +0.000 C 
ENDBRANCH  20  23
ENDBRANCH   6  15
BRANCH   8  25
ATOM     25  O   UNL     1     104.604 125.135 145.861  0.00  0.00    +0.000 OA
ATOM     26  C   UNL     1     103.977 124.743 146.227  0.00  0.00    +0.000 C 
ENDBRANCH   8  25
BRANCH  12  27
ATOM     27  O   UNL     1     107.102 124.612 149.372  0.00  0.00    +0.000 OA
ATOM     28  C   UNL     1     107.371 123.870 149.611  0.00  0.00    +0.000 C 
ENDBRANCH  12  27
TORSDOF 5
ENDMDL
