MODEL 1
REMARK VINA RESULT:      -8.2      0.000      0.000
REMARK  Name = 14157887
REMARK  2 active torsions:
REMARK  status: ('A' for Active; 'I' for Inactive)
REMARK    1  A    between atoms: O_2  and  C_17
REMARK    2  A    between atoms: C_5  and  C_9
REMARK                            x       y       z     vdW  Elec       q    Type
REMARK                         _______ _______ _______ _____ _____    ______ ____
ROOT
ATOM      1  O   UNL     1     111.947 126.284 136.074  0.00  0.00    +0.000 OA
ATOM      2  O   UNL     1     110.080 127.974 134.612  0.00  0.00    +0.000 OA
ATOM      3  C   UNL     1     112.178 125.540 136.349  0.00  0.00    +0.000 C 
ATOM      4  C   UNL     1     111.719 124.876 136.180  0.00  0.00    +0.000 C 
ATOM      5  C   UNL     1     111.028 124.956 135.735  0.00  0.00    +0.000 C 
ATOM      6  C   UNL     1     110.797 125.698 135.460  0.00  0.00    +0.000 A 
ATOM      7  C   UNL     1     111.257 126.362 135.630  0.00  0.00    +0.000 A 
ATOM      8  C   UNL     1     110.075 125.767 134.999  0.00  0.00    +0.000 A 
ATOM      9  C   UNL     1     111.026 127.141 135.349  0.00  0.00    +0.000 A 
ATOM     10  C   UNL     1     109.829 126.538 134.710  0.00  0.00    +0.000 A 
ATOM     11  C   UNL     1     110.308 127.229 134.886  0.00  0.00    +0.000 A 
ENDROOT
BRANCH   3  13
ATOM     12  O   UNL     1     114.943 125.226 138.123  0.00  0.00    +0.000 OA
ATOM     13  C   UNL     1     112.869 125.462 136.793  0.00  0.00    +0.000 A 
ATOM     14  C   UNL     1     112.906 125.770 137.558  0.00  0.00    +0.000 A 
ATOM     15  C   UNL     1     113.524 125.076 136.472  0.00  0.00    +0.000 A 
ATOM     16  C   UNL     1     113.597 125.691 138.001  0.00  0.00    +0.000 A 
ATOM     17  C   UNL     1     114.215 124.998 136.916  0.00  0.00    +0.000 A 
ATOM     18  C   UNL     1     114.252 125.305 137.680  0.00  0.00    +0.000 A 
BRANCH  16  19
ATOM     19  O   UNL     1     113.634 125.999 138.765  0.00  0.00    +0.000 OA
ATOM     20  C   UNL     1     112.991 126.416 139.074  0.00  0.00    +0.000 C 
ENDBRANCH  16  19
ENDBRANCH   3  13
TORSDOF 2
ENDMDL
MODEL 2
REMARK VINA RESULT:      -8.0      1.264      3.984
REMARK  Name = 14157887
REMARK  2 active torsions:
REMARK  status: ('A' for Active; 'I' for Inactive)
REMARK    1  A    between atoms: O_2  and  C_17
REMARK    2  A    between atoms: C_5  and  C_9
REMARK                            x       y       z     vdW  Elec       q    Type
REMARK                         _______ _______ _______ _____ _____    ______ ____
ROOT
ATOM      1  O   UNL     1     112.092 125.657 136.241  0.00  0.00    +0.000 OA
ATOM      2  O   UNL     1     114.953 125.680 136.782  0.00  0.00    +0.000 OA
ATOM      3  C   UNL     1     111.373 125.252 136.193  0.00  0.00    +0.000 C 
ATOM      4  C   UNL     1     111.342 124.445 136.364  0.00  0.00    +0.000 C 
ATOM      5  C   UNL     1     112.029 124.044 136.583  0.00  0.00    +0.000 C 
ATOM      6  C   UNL     1     112.746 124.447 136.631  0.00  0.00    +0.000 A 
ATOM      7  C   UNL     1     112.777 125.254 136.460  0.00  0.00    +0.000 A 
ATOM      8  C   UNL     1     113.454 124.017 136.860  0.00  0.00    +0.000 A 
ATOM      9  C   UNL     1     113.519 125.686 136.507  0.00  0.00    +0.000 A 
ATOM     10  C   UNL     1     114.204 124.433 136.912  0.00  0.00    +0.000 A 
ATOM     11  C   UNL     1     114.237 125.272 136.734  0.00  0.00    +0.000 A 
ENDROOT
BRANCH   3  13
ATOM     12  O   UNL     1     108.631 126.863 135.314  0.00  0.00    +0.000 OA
ATOM     13  C   UNL     1     110.688 125.655 135.974  0.00  0.00    +0.000 A 
ATOM     14  C   UNL     1     110.266 126.088 136.535  0.00  0.00    +0.000 A 
ATOM     15  C   UNL     1     110.424 125.624 135.192  0.00  0.00    +0.000 A 
ATOM     16  C   UNL     1     109.580 126.491 136.314  0.00  0.00    +0.000 A 
ATOM     17  C   UNL     1     109.738 126.027 134.973  0.00  0.00    +0.000 A 
ATOM     18  C   UNL     1     109.316 126.460 135.534  0.00  0.00    +0.000 A 
BRANCH  16  19
ATOM     19  O   UNL     1     109.159 126.924 136.876  0.00  0.00    +0.000 OA
ATOM     20  C   UNL     1     109.562 127.339 137.465  0.00  0.00    +0.000 C 
ENDBRANCH  16  19
ENDBRANCH   3  13
TORSDOF 2
ENDMDL
MODEL 3
REMARK VINA RESULT:      -7.9     12.220     13.540
REMARK  Name = 14157887
REMARK  2 active torsions:
REMARK  status: ('A' for Active; 'I' for Inactive)
REMARK    1  A    between atoms: O_2  and  C_17
REMARK    2  A    between atoms: C_5  and  C_9
REMARK                            x       y       z     vdW  Elec       q    Type
REMARK                         _______ _______ _______ _____ _____    ______ ____
ROOT
ATOM      1  O   UNL     1     105.508 124.392 147.723  0.00  0.00    +0.000 OA
ATOM      2  O   UNL     1     107.827 124.357 149.485  0.00  0.00    +0.000 OA
ATOM      3  C   UNL     1     105.141 124.635 147.024  0.00  0.00    +0.000 C 
ATOM      4  C   UNL     1     105.550 125.107 146.486  0.00  0.00    +0.000 C 
ATOM      5  C   UNL     1     106.326 125.338 146.647  0.00  0.00    +0.000 C 
ATOM      6  C   UNL     1     106.693 125.096 147.344  0.00  0.00    +0.000 A 
ATOM      7  C   UNL     1     106.284 124.623 147.882  0.00  0.00    +0.000 A 
ATOM      8  C   UNL     1     107.502 125.342 147.499  0.00  0.00    +0.000 A 
ATOM      9  C   UNL     1     106.655 124.364 148.613  0.00  0.00    +0.000 A 
ATOM     10  C   UNL     1     107.889 125.093 148.225  0.00  0.00    +0.000 A 
ATOM     11  C   UNL     1     107.463 124.601 148.785  0.00  0.00    +0.000 A 
ENDROOT
BRANCH   3  13
ATOM     12  O   UNL     1     102.037 123.714 146.389  0.00  0.00    +0.000 OA
ATOM     13  C   UNL     1     104.365 124.404 146.865  0.00  0.00    +0.000 A 
ATOM     14  C   UNL     1     104.220 123.738 146.401  0.00  0.00    +0.000 A 
ATOM     15  C   UNL     1     103.735 124.840 147.171  0.00  0.00    +0.000 A 
ATOM     16  C   UNL     1     103.443 123.508 146.243  0.00  0.00    +0.000 A 
ATOM     17  C   UNL     1     102.959 124.610 147.012  0.00  0.00    +0.000 A 
ATOM     18  C   UNL     1     102.813 123.943 146.548  0.00  0.00    +0.000 A 
BRANCH  16  19
ATOM     19  O   UNL     1     103.297 122.842 145.778  0.00  0.00    +0.000 OA
ATOM     20  C   UNL     1     103.701 122.739 145.065  0.00  0.00    +0.000 C 
ENDBRANCH  16  19
ENDBRANCH   3  13
TORSDOF 2
ENDMDL
MODEL 4
REMARK VINA RESULT:      -7.9     11.421     12.694
REMARK  Name = 14157887
REMARK  2 active torsions:
REMARK  status: ('A' for Active; 'I' for Inactive)
REMARK    1  A    between atoms: O_2  and  C_17
REMARK    2  A    between atoms: C_5  and  C_9
REMARK                            x       y       z     vdW  Elec       q    Type
REMARK                         _______ _______ _______ _____ _____    ______ ____
ROOT
ATOM      1  O   UNL     1     102.403 132.126 141.532  0.00  0.00    +0.000 OA
ATOM      2  O   UNL     1     102.191 135.018 141.266  0.00  0.00    +0.000 OA
ATOM      3  C   UNL     1     102.074 131.398 141.740  0.00  0.00    +0.000 C 
ATOM      4  C   UNL     1     101.302 131.362 142.029  0.00  0.00    +0.000 C 
ATOM      5  C   UNL     1     100.859 132.054 142.109  0.00  0.00    +0.000 C 
ATOM      6  C   UNL     1     101.188 132.781 141.902  0.00  0.00    +0.000 A 
ATOM      7  C   UNL     1     101.960 132.817 141.613  0.00  0.00    +0.000 A 
ATOM      8  C   UNL     1     100.717 133.494 141.990  0.00  0.00    +0.000 A 
ATOM      9  C   UNL     1     102.315 133.569 141.393  0.00  0.00    +0.000 A 
ATOM     10  C   UNL     1     101.055 134.254 141.776  0.00  0.00    +0.000 A 
ATOM     11  C   UNL     1     101.859 134.292 141.475  0.00  0.00    +0.000 A 
ENDROOT
BRANCH   3  13
ATOM     12  O   UNL     1     103.847 128.633 141.418  0.00  0.00    +0.000 OA
ATOM     13  C   UNL     1     102.517 130.707 141.659  0.00  0.00    +0.000 A 
ATOM     14  C   UNL     1     102.530 130.307 140.937  0.00  0.00    +0.000 A 
ATOM     15  C   UNL     1     102.947 130.415 142.301  0.00  0.00    +0.000 A 
ATOM     16  C   UNL     1     102.974 129.616 140.857  0.00  0.00    +0.000 A 
ATOM     17  C   UNL     1     103.390 129.724 142.219  0.00  0.00    +0.000 A 
ATOM     18  C   UNL     1     103.403 129.325 141.498  0.00  0.00    +0.000 A 
BRANCH  16  19
ATOM     19  O   UNL     1     102.987 129.216 140.136  0.00  0.00    +0.000 OA
ATOM     20  C   UNL     1     102.311 129.193 139.664  0.00  0.00    +0.000 C 
ENDBRANCH  16  19
ENDBRANCH   3  13
TORSDOF 2
ENDMDL
MODEL 5
REMARK VINA RESULT:      -7.7     10.067     12.567
REMARK  Name = 14157887
REMARK  2 active torsions:
REMARK  status: ('A' for Active; 'I' for Inactive)
REMARK    1  A    between atoms: O_2  and  C_17
REMARK    2  A    between atoms: C_5  and  C_9
REMARK                            x       y       z     vdW  Elec       q    Type
REMARK                         _______ _______ _______ _____ _____    ______ ____
ROOT
ATOM      1  O   UNL     1     111.809 132.992 146.664  0.00  0.00    +0.000 OA
ATOM      2  O   UNL     1     111.055 133.686 149.390  0.00  0.00    +0.000 OA
ATOM      3  C   UNL     1     112.320 132.619 146.133  0.00  0.00    +0.000 C 
ATOM      4  C   UNL     1     112.978 132.209 146.414  0.00  0.00    +0.000 C 
ATOM      5  C   UNL     1     113.126 132.172 147.225  0.00  0.00    +0.000 C 
ATOM      6  C   UNL     1     112.616 132.545 147.755  0.00  0.00    +0.000 A 
ATOM      7  C   UNL     1     111.957 132.955 147.474  0.00  0.00    +0.000 A 
ATOM      8  C   UNL     1     112.781 132.499 148.597  0.00  0.00    +0.000 A 
ATOM      9  C   UNL     1     111.418 133.347 148.017  0.00  0.00    +0.000 A 
ATOM     10  C   UNL     1     112.253 132.885 149.154  0.00  0.00    +0.000 A 
ATOM     11  C   UNL     1     111.568 133.312 148.862  0.00  0.00    +0.000 A 
ENDROOT
BRANCH   3  13
ATOM     12  O   UNL     1     111.724 132.766 142.891  0.00  0.00    +0.000 OA
ATOM     13  C   UNL     1     112.171 132.656 145.323  0.00  0.00    +0.000 A 
ATOM     14  C   UNL     1     112.138 133.388 144.942  0.00  0.00    +0.000 A 
ATOM     15  C   UNL     1     112.055 131.961 144.893  0.00  0.00    +0.000 A 
ATOM     16  C   UNL     1     111.989 133.424 144.131  0.00  0.00    +0.000 A 
ATOM     17  C   UNL     1     111.906 131.999 144.082  0.00  0.00    +0.000 A 
ATOM     18  C   UNL     1     111.873 132.730 143.702  0.00  0.00    +0.000 A 
BRANCH  16  19
ATOM     19  O   UNL     1     111.956 134.155 143.751  0.00  0.00    +0.000 OA
ATOM     20  C   UNL     1     111.898 134.849 144.194  0.00  0.00    +0.000 C 
ENDBRANCH  16  19
ENDBRANCH   3  13
TORSDOF 2
ENDMDL
MODEL 6
REMARK VINA RESULT:      -7.7     11.321     12.853
REMARK  Name = 14157887
REMARK  2 active torsions:
REMARK  status: ('A' for Active; 'I' for Inactive)
REMARK    1  A    between atoms: O_2  and  C_17
REMARK    2  A    between atoms: C_5  and  C_9
REMARK                            x       y       z     vdW  Elec       q    Type
REMARK                         _______ _______ _______ _____ _____    ______ ____
ROOT
ATOM      1  O   UNL     1     102.085 130.960 140.966  0.00  0.00    +0.000 OA
ATOM      2  O   UNL     1     102.588 128.727 139.167  0.00  0.00    +0.000 OA
ATOM      3  C   UNL     1     102.200 131.338 141.691  0.00  0.00    +0.000 C 
ATOM      4  C   UNL     1     102.681 130.992 142.265  0.00  0.00    +0.000 C 
ATOM      5  C   UNL     1     103.048 130.268 142.113  0.00  0.00    +0.000 C 
ATOM      6  C   UNL     1     102.934 129.891 141.389  0.00  0.00    +0.000 A 
ATOM      7  C   UNL     1     102.452 130.237 140.815  0.00  0.00    +0.000 A 
ATOM      8  C   UNL     1     103.322 129.138 141.243  0.00  0.00    +0.000 A 
ATOM      9  C   UNL     1     102.325 129.854 140.056  0.00  0.00    +0.000 A 
ATOM     10  C   UNL     1     103.206 128.741 140.490  0.00  0.00    +0.000 A 
ATOM     11  C   UNL     1     102.705 129.101 139.893  0.00  0.00    +0.000 A 
ENDROOT
BRANCH   3  13
ATOM     12  O   UNL     1     100.728 134.229 142.295  0.00  0.00    +0.000 OA
ATOM     13  C   UNL     1     101.832 132.061 141.842  0.00  0.00    +0.000 A 
ATOM     14  C   UNL     1     102.219 132.766 141.659  0.00  0.00    +0.000 A 
ATOM     15  C   UNL     1     101.077 132.078 142.176  0.00  0.00    +0.000 A 
ATOM     16  C   UNL     1     101.850 133.489 141.810  0.00  0.00    +0.000 A 
ATOM     17  C   UNL     1     100.710 132.801 142.327  0.00  0.00    +0.000 A 
ATOM     18  C   UNL     1     101.096 133.506 142.144  0.00  0.00    +0.000 A 
BRANCH  16  19
ATOM     19  O   UNL     1     102.236 134.195 141.627  0.00  0.00    +0.000 OA
ATOM     20  C   UNL     1     102.734 134.235 140.970  0.00  0.00    +0.000 C 
ENDBRANCH  16  19
ENDBRANCH   3  13
TORSDOF 2
ENDMDL
MODEL 7
REMARK VINA RESULT:      -7.5      2.295      3.556
REMARK  Name = 14157887
REMARK  2 active torsions:
REMARK  status: ('A' for Active; 'I' for Inactive)
REMARK    1  A    between atoms: O_2  and  C_17
REMARK    2  A    between atoms: C_5  and  C_9
REMARK                            x       y       z     vdW  Elec       q    Type
REMARK                         _______ _______ _______ _____ _____    ______ ____
ROOT
ATOM      1  O   UNL     1     112.880 125.824 138.265  0.00  0.00    +0.000 OA
ATOM      2  O   UNL     1     111.543 123.943 136.489  0.00  0.00    +0.000 OA
ATOM      3  C   UNL     1     113.572 126.158 138.567  0.00  0.00    +0.000 C 
ATOM      4  C   UNL     1     114.308 125.900 138.296  0.00  0.00    +0.000 C 
ATOM      5  C   UNL     1     114.351 125.308 137.722  0.00  0.00    +0.000 C 
ATOM      6  C   UNL     1     113.660 124.974 137.421  0.00  0.00    +0.000 A 
ATOM      7  C   UNL     1     112.925 125.232 137.692  0.00  0.00    +0.000 A 
ATOM      8  C   UNL     1     113.719 124.358 136.824  0.00  0.00    +0.000 A 
ATOM      9  C   UNL     1     112.198 124.891 137.385  0.00  0.00    +0.000 A 
ATOM     10  C   UNL     1     113.003 124.006 136.506  0.00  0.00    +0.000 A 
ATOM     11  C   UNL     1     112.237 124.275 136.788  0.00  0.00    +0.000 A 
ENDROOT
BRANCH   3  13
ATOM     12  O   UNL     1     113.395 128.524 140.860  0.00  0.00    +0.000 OA
ATOM     13  C   UNL     1     113.528 126.750 139.139  0.00  0.00    +0.000 A 
ATOM     14  C   UNL     1     113.259 127.503 138.935  0.00  0.00    +0.000 A 
ATOM     15  C   UNL     1     113.752 126.588 139.917  0.00  0.00    +0.000 A 
ATOM     16  C   UNL     1     113.215 128.094 139.509  0.00  0.00    +0.000 A 
ATOM     17  C   UNL     1     113.708 127.180 140.490  0.00  0.00    +0.000 A 
ATOM     18  C   UNL     1     113.439 127.933 140.286  0.00  0.00    +0.000 A 
BRANCH  16  19
ATOM     19  O   UNL     1     112.947 128.847 139.305  0.00  0.00    +0.000 OA
ATOM     20  C   UNL     1     113.131 129.164 138.566  0.00  0.00    +0.000 C 
ENDBRANCH  16  19
ENDBRANCH   3  13
TORSDOF 2
ENDMDL
MODEL 8
REMARK VINA RESULT:      -7.5      2.297      3.457
REMARK  Name = 14157887
REMARK  2 active torsions:
REMARK  status: ('A' for Active; 'I' for Inactive)
REMARK    1  A    between atoms: O_2  and  C_17
REMARK    2  A    between atoms: C_5  and  C_9
REMARK                            x       y       z     vdW  Elec       q    Type
REMARK                         _______ _______ _______ _____ _____    ______ ____
ROOT
ATOM      1  O   UNL     1     112.872 126.339 136.440  0.00  0.00    +0.000 OA
ATOM      2  O   UNL     1     111.496 123.777 136.305  0.00  0.00    +0.000 OA
ATOM      3  C   UNL     1     113.552 126.782 136.596  0.00  0.00    +0.000 C 
ATOM      4  C   UNL     1     114.242 126.404 136.844  0.00  0.00    +0.000 C 
ATOM      5  C   UNL     1     114.253 125.584 136.936  0.00  0.00    +0.000 C 
ATOM      6  C   UNL     1     113.575 125.142 136.781  0.00  0.00    +0.000 A 
ATOM      7  C   UNL     1     112.884 125.520 136.533  0.00  0.00    +0.000 A 
ATOM      8  C   UNL     1     113.599 124.289 136.881  0.00  0.00    +0.000 A 
ATOM      9  C   UNL     1     112.171 125.070 136.368  0.00  0.00    +0.000 A 
ATOM     10  C   UNL     1     112.896 123.823 136.720  0.00  0.00    +0.000 A 
ATOM     11  C   UNL     1     112.177 124.216 136.462  0.00  0.00    +0.000 A 
ENDROOT
BRANCH   3  13
ATOM     12  O   UNL     1     113.504 130.060 136.223  0.00  0.00    +0.000 OA
ATOM     13  C   UNL     1     113.540 127.601 136.503  0.00  0.00    +0.000 A 
ATOM     14  C   UNL     1     113.206 128.078 137.088  0.00  0.00    +0.000 A 
ATOM     15  C   UNL     1     113.861 127.944 135.825  0.00  0.00    +0.000 A 
ATOM     16  C   UNL     1     113.195 128.898 136.995  0.00  0.00    +0.000 A 
ATOM     17  C   UNL     1     113.849 128.764 135.732  0.00  0.00    +0.000 A 
ATOM     18  C   UNL     1     113.516 129.241 136.317  0.00  0.00    +0.000 A 
BRANCH  16  19
ATOM     19  O   UNL     1     112.862 129.375 137.580  0.00  0.00    +0.000 OA
ATOM     20  C   UNL     1     112.197 129.115 137.995  0.00  0.00    +0.000 C 
ENDBRANCH  16  19
ENDBRANCH   3  13
TORSDOF 2
ENDMDL
MODEL 9
REMARK VINA RESULT:      -7.4      1.825      4.461
REMARK  Name = 14157887
REMARK  2 active torsions:
REMARK  status: ('A' for Active; 'I' for Inactive)
REMARK    1  A    between atoms: O_2  and  C_17
REMARK    2  A    between atoms: C_5  and  C_9
REMARK                            x       y       z     vdW  Elec       q    Type
REMARK                         _______ _______ _______ _____ _____    ______ ____
ROOT
ATOM      1  O   UNL     1     110.397 126.470 136.445  0.00  0.00    +0.000 OA
ATOM      2  O   UNL     1     111.818 124.504 138.056  0.00  0.00    +0.000 OA
ATOM      3  C   UNL     1     110.098 126.721 135.717  0.00  0.00    +0.000 C 
ATOM      4  C   UNL     1     110.199 126.252 135.046  0.00  0.00    +0.000 C 
ATOM      5  C   UNL     1     110.599 125.533 135.102  0.00  0.00    +0.000 C 
ATOM      6  C   UNL     1     110.898 125.282 135.828  0.00  0.00    +0.000 A 
ATOM      7  C   UNL     1     110.797 125.751 136.500  0.00  0.00    +0.000 A 
ATOM      8  C   UNL     1     111.313 124.530 135.874  0.00  0.00    +0.000 A 
ATOM      9  C   UNL     1     111.104 125.500 137.263  0.00  0.00    +0.000 A 
ATOM     10  C   UNL     1     111.626 124.264 136.628  0.00  0.00    +0.000 A 
ATOM     11  C   UNL     1     111.521 124.752 137.327  0.00  0.00    +0.000 A 
ENDROOT
BRANCH   3  13
ATOM     12  O   UNL     1     108.497 129.598 135.499  0.00  0.00    +0.000 OA
ATOM     13  C   UNL     1     109.698 127.440 135.662  0.00  0.00    +0.000 A 
ATOM     14  C   UNL     1     110.092 128.112 135.389  0.00  0.00    +0.000 A 
ATOM     15  C   UNL     1     108.904 127.488 135.881  0.00  0.00    +0.000 A 
ATOM     16  C   UNL     1     109.691 128.831 135.335  0.00  0.00    +0.000 A 
ATOM     17  C   UNL     1     108.504 128.208 135.826  0.00  0.00    +0.000 A 
ATOM     18  C   UNL     1     108.898 128.879 135.553  0.00  0.00    +0.000 A 
BRANCH  16  19
ATOM     19  O   UNL     1     110.085 129.503 135.062  0.00  0.00    +0.000 OA
ATOM     20  C   UNL     1     110.864 129.648 135.295  0.00  0.00    +0.000 C 
ENDBRANCH  16  19
ENDBRANCH   3  13
TORSDOF 2
ENDMDL
MODEL 10
REMARK VINA RESULT:      -7.3      2.475      3.291
REMARK  Name = 14157887
REMARK  2 active torsions:
REMARK  status: ('A' for Active; 'I' for Inactive)
REMARK    1  A    between atoms: O_2  and  C_17
REMARK    2  A    between atoms: C_5  and  C_9
REMARK                            x       y       z     vdW  Elec       q    Type
REMARK                         _______ _______ _______ _____ _____    ______ ____
ROOT
ATOM      1  O   UNL     1     113.741 127.320 136.137  0.00  0.00    +0.000 OA
ATOM      2  O   UNL     1     114.556 129.757 134.767  0.00  0.00    +0.000 OA
ATOM      3  C   UNL     1     113.390 126.943 136.782  0.00  0.00    +0.000 C 
ATOM      4  C   UNL     1     113.086 127.388 137.406  0.00  0.00    +0.000 C 
ATOM      5  C   UNL     1     113.132 128.212 137.385  0.00  0.00    +0.000 C 
ATOM      6  C   UNL     1     113.482 128.590 136.742  0.00  0.00    +0.000 A 
ATOM      7  C   UNL     1     113.786 128.144 136.117  0.00  0.00    +0.000 A 
ATOM      8  C   UNL     1     113.525 129.448 136.732  0.00  0.00    +0.000 A 
ATOM      9  C   UNL     1     114.154 128.526 135.441  0.00  0.00    +0.000 A 
ATOM     10  C   UNL     1     113.888 129.847 136.063  0.00  0.00    +0.000 A 
ATOM     11  C   UNL     1     114.205 129.383 135.414  0.00  0.00    +0.000 A 
ENDROOT
BRANCH   3  13
ATOM     12  O   UNL     1     113.209 123.649 136.863  0.00  0.00    +0.000 OA
ATOM     13  C   UNL     1     113.344 126.119 136.802  0.00  0.00    +0.000 A 
ATOM     14  C   UNL     1     112.670 125.736 136.520  0.00  0.00    +0.000 A 
ATOM     15  C   UNL     1     113.974 125.679 137.104  0.00  0.00    +0.000 A 
ATOM     16  C   UNL     1     112.625 124.913 136.541  0.00  0.00    +0.000 A 
ATOM     17  C   UNL     1     113.928 124.855 137.124  0.00  0.00    +0.000 A 
ATOM     18  C   UNL     1     113.254 124.472 136.842  0.00  0.00    +0.000 A 
BRANCH  16  19
ATOM     19  O   UNL     1     111.951 124.529 136.259  0.00  0.00    +0.000 OA
ATOM     20  C   UNL     1     111.286 124.969 136.043  0.00  0.00    +0.000 C 
ENDBRANCH  16  19
ENDBRANCH   3  13
TORSDOF 2
ENDMDL
