MODEL 1
REMARK VINA RESULT:      -9.8      0.000      0.000
REMARK  Name = 14104301
REMARK  4 active torsions:
REMARK  status: ('A' for Active; 'I' for Inactive)
REMARK    1  A    between atoms: O_2  and  C_13
REMARK    2  A    between atoms: O_2  and  C_17
REMARK    3  A    between atoms: C_16  and  C_20
REMARK    4  A    between atoms: C_18  and  C_22
REMARK                            x       y       z     vdW  Elec       q    Type
REMARK                         _______ _______ _______ _____ _____    ______ ____
ROOT
ATOM      1  O   UNL     1     105.518 124.431 147.767  0.00  0.00    +0.000 OA
ATOM      2  O   UNL     1     108.064 125.506 146.921  0.00  0.00    +0.000 OA
ATOM      3  O   UNL     1     107.772 124.408 149.612  0.00  0.00    +0.000 OA
ATOM      4  C   UNL     1     105.667 124.970 146.451  0.00  0.00    +0.000 C 
ATOM      5  C   UNL     1     105.197 124.613 147.029  0.00  0.00    +0.000 C 
ATOM      6  C   UNL     1     106.457 125.144 146.612  0.00  0.00    +0.000 C 
ATOM      7  C   UNL     1     106.778 124.963 147.350  0.00  0.00    +0.000 A 
ATOM      8  C   UNL     1     106.309 124.606 147.927  0.00  0.00    +0.000 A 
ATOM      9  C   UNL     1     107.602 125.150 147.505  0.00  0.00    +0.000 A 
ATOM     10  C   UNL     1     106.631 124.412 148.699  0.00  0.00    +0.000 A 
ATOM     11  C   UNL     1     107.942 124.963 148.272  0.00  0.00    +0.000 A 
ATOM     12  C   UNL     1     107.453 124.591 148.873  0.00  0.00    +0.000 A 
ENDROOT
BRANCH   5  15
ATOM     13  O   UNL     1     103.229 122.918 145.837  0.00  0.00    +0.000 OA
ATOM     14  O   UNL     1     102.036 123.917 146.386  0.00  0.00    +0.000 OA
ATOM     15  C   UNL     1     104.407 124.439 146.868  0.00  0.00    +0.000 A 
ATOM     16  C   UNL     1     104.214 123.765 146.433  0.00  0.00    +0.000 A 
ATOM     17  C   UNL     1     103.811 124.939 147.143  0.00  0.00    +0.000 A 
ATOM     18  C   UNL     1     103.423 123.591 146.272  0.00  0.00    +0.000 A 
ATOM     19  C   UNL     1     103.021 124.764 146.981  0.00  0.00    +0.000 A 
ATOM     20  C   UNL     1     102.827 124.091 146.546  0.00  0.00    +0.000 A 
ENDBRANCH   5  15
BRANCH   4  21
ATOM     21  O   UNL     1     105.346 125.152 145.713  0.00  0.00    +0.000 OA
BRANCH  21  27
ATOM     22  O   UNL     1     105.555 126.559 145.581  0.00  0.00    +0.000 OA
ATOM     23  O   UNL     1     106.089 124.905 144.261  0.00  0.00    +0.000 OA
ATOM     24  O   UNL     1     106.670 126.188 143.403  0.00  0.00    +0.000 OA
ATOM     25  O   UNL     1     106.507 127.718 143.996  0.00  0.00    +0.000 OA
ATOM     26  C   UNL     1     106.008 125.670 144.558  0.00  0.00    +0.000 C 
ATOM     27  C   UNL     1     105.636 125.793 145.284  0.00  0.00    +0.000 C 
ATOM     28  C   UNL     1     106.298 126.312 144.129  0.00  0.00    +0.000 C 
ATOM     29  C   UNL     1     106.217 127.077 144.426  0.00  0.00    +0.000 C 
ATOM     30  C   UNL     1     105.845 127.201 145.152  0.00  0.00    +0.000 C 
BRANCH  30  32
ATOM     31  O   UNL     1     105.015 128.263 145.626  0.00  0.00    +0.000 OA
ATOM     32  C   UNL     1     105.764 127.965 145.448  0.00  0.00    +0.000 C 
ENDBRANCH  30  32
ENDBRANCH  21  27
ENDBRANCH   4  21
TORSDOF 4
ENDMDL
MODEL 2
REMARK VINA RESULT:      -9.5     11.808     12.996
REMARK  Name = 14104301
REMARK  4 active torsions:
REMARK  status: ('A' for Active; 'I' for Inactive)
REMARK    1  A    between atoms: O_2  and  C_13
REMARK    2  A    between atoms: O_2  and  C_17
REMARK    3  A    between atoms: C_16  and  C_20
REMARK    4  A    between atoms: C_18  and  C_22
REMARK                            x       y       z     vdW  Elec       q    Type
REMARK                         _______ _______ _______ _____ _____    ______ ____
ROOT
ATOM      1  O   UNL     1     112.003 125.773 136.050  0.00  0.00    +0.000 OA
ATOM      2  O   UNL     1     110.444 128.185 135.726  0.00  0.00    +0.000 OA
ATOM      3  O   UNL     1     109.473 125.666 134.612  0.00  0.00    +0.000 OA
ATOM      4  C   UNL     1     112.474 127.009 136.593  0.00  0.00    +0.000 C 
ATOM      5  C   UNL     1     112.574 126.199 136.466  0.00  0.00    +0.000 C 
ATOM      6  C   UNL     1     111.803 127.391 136.304  0.00  0.00    +0.000 C 
ATOM      7  C   UNL     1     111.231 126.965 135.889  0.00  0.00    +0.000 A 
ATOM      8  C   UNL     1     111.332 126.157 135.762  0.00  0.00    +0.000 A 
ATOM      9  C   UNL     1     110.536 127.376 135.594  0.00  0.00    +0.000 A 
ATOM     10  C   UNL     1     110.744 125.701 135.331  0.00  0.00    +0.000 A 
ATOM     11  C   UNL     1     109.938 126.937 135.160  0.00  0.00    +0.000 A 
ATOM     12  C   UNL     1     110.042 126.094 135.027  0.00  0.00    +0.000 A 
ENDROOT
BRANCH   5  15
ATOM     13  O   UNL     1     115.208 125.169 136.051  0.00  0.00    +0.000 OA
ATOM     14  O   UNL     1     115.260 124.670 137.622  0.00  0.00    +0.000 OA
ATOM     15  C   UNL     1     113.246 125.817 136.754  0.00  0.00    +0.000 A 
ATOM     16  C   UNL     1     113.891 125.685 136.257  0.00  0.00    +0.000 A 
ATOM     17  C   UNL     1     113.272 125.568 137.541  0.00  0.00    +0.000 A 
ATOM     18  C   UNL     1     114.563 125.302 136.547  0.00  0.00    +0.000 A 
ATOM     19  C   UNL     1     113.944 125.185 137.829  0.00  0.00    +0.000 A 
ATOM     20  C   UNL     1     114.589 125.053 137.333  0.00  0.00    +0.000 A 
ENDBRANCH   5  15
BRANCH   4  21
ATOM     21  O   UNL     1     113.045 127.435 137.009  0.00  0.00    +0.000 OA
BRANCH  21  27
ATOM     22  O   UNL     1     113.486 128.392 136.043  0.00  0.00    +0.000 OA
ATOM     23  O   UNL     1     112.822 128.646 138.107  0.00  0.00    +0.000 OA
ATOM     24  O   UNL     1     113.150 130.209 137.690  0.00  0.00    +0.000 OA
ATOM     25  O   UNL     1     113.702 130.559 136.176  0.00  0.00    +0.000 OA
ATOM     26  C   UNL     1     113.098 128.821 137.349  0.00  0.00    +0.000 C 
ATOM     27  C   UNL     1     113.210 128.216 136.800  0.00  0.00    +0.000 C 
ATOM     28  C   UNL     1     113.262 129.603 137.141  0.00  0.00    +0.000 C 
ATOM     29  C   UNL     1     113.538 129.778 136.384  0.00  0.00    +0.000 C 
ATOM     30  C   UNL     1     113.650 129.173 135.835  0.00  0.00    +0.000 C 
BRANCH  30  32
ATOM     31  O   UNL     1     114.511 128.880 134.732  0.00  0.00    +0.000 OA
ATOM     32  C   UNL     1     113.926 129.348 135.078  0.00  0.00    +0.000 C 
ENDBRANCH  30  32
ENDBRANCH  21  27
ENDBRANCH   4  21
TORSDOF 4
ENDMDL
MODEL 3
REMARK VINA RESULT:      -9.4      0.906      3.661
REMARK  Name = 14104301
REMARK  4 active torsions:
REMARK  status: ('A' for Active; 'I' for Inactive)
REMARK    1  A    between atoms: O_2  and  C_13
REMARK    2  A    between atoms: O_2  and  C_17
REMARK    3  A    between atoms: C_16  and  C_20
REMARK    4  A    between atoms: C_18  and  C_22
REMARK                            x       y       z     vdW  Elec       q    Type
REMARK                         _______ _______ _______ _____ _____    ______ ____
ROOT
ATOM      1  O   UNL     1     106.789 125.536 146.671  0.00  0.00    +0.000 OA
ATOM      2  O   UNL     1     105.631 124.262 148.992  0.00  0.00    +0.000 OA
ATOM      3  O   UNL     1     108.526 124.608 148.816  0.00  0.00    +0.000 OA
ATOM      4  C   UNL     1     105.373 125.365 146.762  0.00  0.00    +0.000 C 
ATOM      5  C   UNL     1     106.036 125.632 146.349  0.00  0.00    +0.000 C 
ATOM      6  C   UNL     1     105.464 125.002 147.497  0.00  0.00    +0.000 C 
ATOM      7  C   UNL     1     106.218 124.906 147.819  0.00  0.00    +0.000 A 
ATOM      8  C   UNL     1     106.879 125.173 147.406  0.00  0.00    +0.000 A 
ATOM      9  C   UNL     1     106.299 124.526 148.586  0.00  0.00    +0.000 A 
ATOM     10  C   UNL     1     107.669 125.080 147.731  0.00  0.00    +0.000 A 
ATOM     11  C   UNL     1     107.081 124.424 148.926  0.00  0.00    +0.000 A 
ATOM     12  C   UNL     1     107.771 124.702 148.496  0.00  0.00    +0.000 A 
ENDROOT
BRANCH   5  15
ATOM     13  O   UNL     1     106.199 125.527 143.497  0.00  0.00    +0.000 OA
ATOM     14  O   UNL     1     105.668 127.087 143.409  0.00  0.00    +0.000 OA
ATOM     15  C   UNL     1     105.944 125.995 145.614  0.00  0.00    +0.000 A 
ATOM     16  C   UNL     1     106.117 125.579 144.923  0.00  0.00    +0.000 A 
ATOM     17  C   UNL     1     105.678 126.776 145.570  0.00  0.00    +0.000 A 
ATOM     18  C   UNL     1     106.025 125.943 144.188  0.00  0.00    +0.000 A 
ATOM     19  C   UNL     1     105.586 127.139 144.835  0.00  0.00    +0.000 A 
ATOM     20  C   UNL     1     105.760 126.722 144.144  0.00  0.00    +0.000 A 
ENDBRANCH   5  15
BRANCH   4  21
ATOM     21  O   UNL     1     104.619 125.461 146.440  0.00  0.00    +0.000 OA
BRANCH  21  27
ATOM     22  O   UNL     1     104.182 124.126 146.175  0.00  0.00    +0.000 OA
ATOM     23  O   UNL     1     103.241 125.742 147.302  0.00  0.00    +0.000 OA
ATOM     24  O   UNL     1     102.114 124.547 147.469  0.00  0.00    +0.000 OA
ATOM     25  O   UNL     1     102.367 123.073 146.773  0.00  0.00    +0.000 OA
ATOM     26  C   UNL     1     103.367 125.004 146.954  0.00  0.00    +0.000 C 
ATOM     27  C   UNL     1     104.057 124.864 146.523  0.00  0.00    +0.000 C 
ATOM     28  C   UNL     1     102.804 124.407 147.038  0.00  0.00    +0.000 C 
ATOM     29  C   UNL     1     102.930 123.670 146.690  0.00  0.00    +0.000 C 
ATOM     30  C   UNL     1     103.619 123.530 146.259  0.00  0.00    +0.000 C 
BRANCH  30  32
ATOM     31  O   UNL     1     104.126 122.739 145.181  0.00  0.00    +0.000 OA
ATOM     32  C   UNL     1     103.745 122.793 145.911  0.00  0.00    +0.000 C 
ENDBRANCH  30  32
ENDBRANCH  21  27
ENDBRANCH   4  21
TORSDOF 4
ENDMDL
MODEL 4
REMARK VINA RESULT:      -9.2      9.783     12.486
REMARK  Name = 14104301
REMARK  4 active torsions:
REMARK  status: ('A' for Active; 'I' for Inactive)
REMARK    1  A    between atoms: O_2  and  C_13
REMARK    2  A    between atoms: O_2  and  C_17
REMARK    3  A    between atoms: C_16  and  C_20
REMARK    4  A    between atoms: C_18  and  C_22
REMARK                            x       y       z     vdW  Elec       q    Type
REMARK                         _______ _______ _______ _____ _____    ______ ____
ROOT
ATOM      1  O   UNL     1     113.784 127.459 136.249  0.00  0.00    +0.000 OA
ATOM      2  O   UNL     1     111.709 129.470 136.304  0.00  0.00    +0.000 OA
ATOM      3  O   UNL     1     114.201 129.991 134.873  0.00  0.00    +0.000 OA
ATOM      4  C   UNL     1     112.562 127.208 136.949  0.00  0.00    +0.000 C 
ATOM      5  C   UNL     1     113.311 126.960 136.707  0.00  0.00    +0.000 C 
ATOM      6  C   UNL     1     112.286 127.955 136.733  0.00  0.00    +0.000 C 
ATOM      7  C   UNL     1     112.759 128.454 136.276  0.00  0.00    +0.000 A 
ATOM      8  C   UNL     1     113.507 128.206 136.034  0.00  0.00    +0.000 A 
ATOM      9  C   UNL     1     112.459 129.230 136.058  0.00  0.00    +0.000 A 
ATOM     10  C   UNL     1     114.009 128.715 135.558  0.00  0.00    +0.000 A 
ATOM     11  C   UNL     1     112.947 129.753 135.582  0.00  0.00    +0.000 A 
ATOM     12  C   UNL     1     113.727 129.495 135.330  0.00  0.00    +0.000 A 
ENDROOT
BRANCH   5  15
ATOM     13  O   UNL     1     113.677 124.189 136.112  0.00  0.00    +0.000 OA
ATOM     14  O   UNL     1     114.415 123.973 137.572  0.00  0.00    +0.000 OA
ATOM     15  C   UNL     1     113.587 126.213 136.922  0.00  0.00    +0.000 A 
ATOM     16  C   UNL     1     113.494 125.574 136.409  0.00  0.00    +0.000 A 
ATOM     17  C   UNL     1     113.957 126.105 137.653  0.00  0.00    +0.000 A 
ATOM     18  C   UNL     1     113.770 124.828 136.626  0.00  0.00    +0.000 A 
ATOM     19  C   UNL     1     114.232 125.359 137.868  0.00  0.00    +0.000 A 
ATOM     20  C   UNL     1     114.139 124.720 137.355  0.00  0.00    +0.000 A 
ENDBRANCH   5  15
BRANCH   4  21
ATOM     21  O   UNL     1     112.090 126.710 137.406  0.00  0.00    +0.000 OA
BRANCH  21  27
ATOM     22  O   UNL     1     110.947 126.515 136.569  0.00  0.00    +0.000 OA
ATOM     23  O   UNL     1     111.100 127.096 138.668  0.00  0.00    +0.000 OA
ATOM     24  O   UNL     1     109.462 127.094 138.463  0.00  0.00    +0.000 OA
ATOM     25  O   UNL     1     108.816 126.706 136.996  0.00  0.00    +0.000 OA
ATOM     26  C   UNL     1     110.777 126.902 137.934  0.00  0.00    +0.000 C 
ATOM     27  C   UNL     1     111.272 126.709 137.303  0.00  0.00    +0.000 C 
ATOM     28  C   UNL     1     109.957 126.901 137.832  0.00  0.00    +0.000 C 
ATOM     29  C   UNL     1     109.635 126.707 137.098  0.00  0.00    +0.000 C 
ATOM     30  C   UNL     1     110.130 126.514 136.467  0.00  0.00    +0.000 C 
BRANCH  30  32
ATOM     31  O   UNL     1     110.095 125.672 135.313  0.00  0.00    +0.000 OA
ATOM     32  C   UNL     1     109.806 126.320 135.734  0.00  0.00    +0.000 C 
ENDBRANCH  30  32
ENDBRANCH  21  27
ENDBRANCH   4  21
TORSDOF 4
ENDMDL
MODEL 5
REMARK VINA RESULT:      -9.1      9.737     12.439
REMARK  Name = 14104301
REMARK  4 active torsions:
REMARK  status: ('A' for Active; 'I' for Inactive)
REMARK    1  A    between atoms: O_2  and  C_13
REMARK    2  A    between atoms: O_2  and  C_17
REMARK    3  A    between atoms: C_16  and  C_20
REMARK    4  A    between atoms: C_18  and  C_22
REMARK                            x       y       z     vdW  Elec       q    Type
REMARK                         _______ _______ _______ _____ _____    ______ ____
ROOT
ATOM      1  O   UNL     1     113.819 126.871 136.757  0.00  0.00    +0.000 OA
ATOM      2  O   UNL     1     112.130 124.538 136.518  0.00  0.00    +0.000 OA
ATOM      3  O   UNL     1     114.888 124.248 137.436  0.00  0.00    +0.000 OA
ATOM      4  C   UNL     1     112.469 127.007 136.308  0.00  0.00    +0.000 C 
ATOM      5  C   UNL     1     113.197 127.346 136.497  0.00  0.00    +0.000 C 
ATOM      6  C   UNL     1     112.363 126.192 136.380  0.00  0.00    +0.000 C 
ATOM      7  C   UNL     1     112.985 125.716 136.639  0.00  0.00    +0.000 A 
ATOM      8  C   UNL     1     113.713 126.055 136.828  0.00  0.00    +0.000 A 
ATOM      9  C   UNL     1     112.862 124.868 136.709  0.00  0.00    +0.000 A 
ATOM     10  C   UNL     1     114.368 125.571 137.099  0.00  0.00    +0.000 A 
ATOM     11  C   UNL     1     113.506 124.368 136.979  0.00  0.00    +0.000 A 
ATOM     12  C   UNL     1     114.265 124.721 137.176  0.00  0.00    +0.000 A 
ENDROOT
BRANCH   5  15
ATOM     13  O   UNL     1     113.268 129.947 137.680  0.00  0.00    +0.000 OA
ATOM     14  O   UNL     1     113.619 130.607 136.209  0.00  0.00    +0.000 OA
ATOM     15  C   UNL     1     113.303 128.161 136.426  0.00  0.00    +0.000 A 
ATOM     16  C   UNL     1     113.233 128.647 137.089  0.00  0.00    +0.000 A 
ATOM     17  C   UNL     1     113.478 128.491 135.689  0.00  0.00    +0.000 A 
ATOM     18  C   UNL     1     113.338 129.462 137.016  0.00  0.00    +0.000 A 
ATOM     19  C   UNL     1     113.583 129.306 135.618  0.00  0.00    +0.000 A 
ATOM     20  C   UNL     1     113.513 129.791 136.282  0.00  0.00    +0.000 A 
ENDBRANCH   5  15
BRANCH   4  21
ATOM     21  O   UNL     1     111.847 127.483 136.048  0.00  0.00    +0.000 OA
BRANCH  21  27
ATOM     22  O   UNL     1     110.872 127.277 137.073  0.00  0.00    +0.000 OA
ATOM     23  O   UNL     1     110.698 127.196 134.899  0.00  0.00    +0.000 OA
ATOM     24  O   UNL     1     109.149 126.848 135.349  0.00  0.00    +0.000 OA
ATOM     25  O   UNL     1     108.750 126.785 136.948  0.00  0.00    +0.000 OA
ATOM     26  C   UNL     1     110.499 127.165 135.699  0.00  0.00    +0.000 C 
ATOM     27  C   UNL     1     111.073 127.308 136.273  0.00  0.00    +0.000 C 
ATOM     28  C   UNL     1     109.724 126.991 135.924  0.00  0.00    +0.000 C 
ATOM     29  C   UNL     1     109.524 126.960 136.724  0.00  0.00    +0.000 C 
ATOM     30  C   UNL     1     110.099 127.103 137.298  0.00  0.00    +0.000 C 
BRANCH  30  32
ATOM     31  O   UNL     1     110.185 127.644 138.618  0.00  0.00    +0.000 OA
ATOM     32  C   UNL     1     109.899 127.071 138.097  0.00  0.00    +0.000 C 
ENDBRANCH  30  32
ENDBRANCH  21  27
ENDBRANCH   4  21
TORSDOF 4
ENDMDL
MODEL 6
REMARK VINA RESULT:      -9.1     10.080     12.207
REMARK  Name = 14104301
REMARK  4 active torsions:
REMARK  status: ('A' for Active; 'I' for Inactive)
REMARK    1  A    between atoms: O_2  and  C_13
REMARK    2  A    between atoms: O_2  and  C_17
REMARK    3  A    between atoms: C_16  and  C_20
REMARK    4  A    between atoms: C_18  and  C_22
REMARK                            x       y       z     vdW  Elec       q    Type
REMARK                         _______ _______ _______ _____ _____    ______ ____
ROOT
ATOM      1  O   UNL     1     111.599 129.048 135.649  0.00  0.00    +0.000 OA
ATOM      2  O   UNL     1     113.793 127.463 136.661  0.00  0.00    +0.000 OA
ATOM      3  O   UNL     1     114.311 129.605 134.744  0.00  0.00    +0.000 OA
ATOM      4  C   UNL     1     111.351 127.999 136.588  0.00  0.00    +0.000 C 
ATOM      5  C   UNL     1     111.072 128.610 136.108  0.00  0.00    +0.000 C 
ATOM      6  C   UNL     1     112.157 127.827 136.608  0.00  0.00    +0.000 C 
ATOM      7  C   UNL     1     112.685 128.265 136.149  0.00  0.00    +0.000 A 
ATOM      8  C   UNL     1     112.406 128.875 135.670  0.00  0.00    +0.000 A 
ATOM      9  C   UNL     1     113.523 128.076 136.179  0.00  0.00    +0.000 A 
ATOM     10  C   UNL     1     112.944 129.339 135.187  0.00  0.00    +0.000 A 
ATOM     11  C   UNL     1     114.076 128.529 135.703  0.00  0.00    +0.000 A 
ATOM     12  C   UNL     1     113.786 129.165 135.204  0.00  0.00    +0.000 A 
ENDROOT
BRANCH   5  15
ATOM     13  O   UNL     1     108.786 129.899 137.239  0.00  0.00    +0.000 OA
ATOM     14  O   UNL     1     107.845 129.296 136.025  0.00  0.00    +0.000 OA
ATOM     15  C   UNL     1     110.265 128.782 136.088  0.00  0.00    +0.000 A 
ATOM     16  C   UNL     1     109.929 129.255 136.674  0.00  0.00    +0.000 A 
ATOM     17  C   UNL     1     109.794 128.480 135.480  0.00  0.00    +0.000 A 
ATOM     18  C   UNL     1     109.122 129.426 136.653  0.00  0.00    +0.000 A 
ATOM     19  C   UNL     1     108.988 128.652 135.460  0.00  0.00    +0.000 A 
ATOM     20  C   UNL     1     108.652 129.125 136.046  0.00  0.00    +0.000 A 
ENDBRANCH   5  15
BRANCH   4  21
ATOM     21  O   UNL     1     110.824 127.560 137.046  0.00  0.00    +0.000 OA
BRANCH  21  27
ATOM     22  O   UNL     1     111.014 126.237 136.541  0.00  0.00    +0.000 OA
ATOM     23  O   UNL     1     110.992 126.996 138.588  0.00  0.00    +0.000 OA
ATOM     24  O   UNL     1     111.267 125.391 138.853  0.00  0.00    +0.000 OA
ATOM     25  O   UNL     1     111.373 124.351 137.578  0.00  0.00    +0.000 OA
ATOM     26  C   UNL     1     111.045 126.476 137.950  0.00  0.00    +0.000 C 
ATOM     27  C   UNL     1     110.961 126.758 137.179  0.00  0.00    +0.000 C 
ATOM     28  C   UNL     1     111.183 125.673 138.083  0.00  0.00    +0.000 C 
ATOM     29  C   UNL     1     111.236 125.153 137.444  0.00  0.00    +0.000 C 
ATOM     30  C   UNL     1     111.151 125.435 136.674  0.00  0.00    +0.000 C 
BRANCH  30  32
ATOM     31  O   UNL     1     110.691 124.993 135.395  0.00  0.00    +0.000 OA
ATOM     32  C   UNL     1     111.205 124.915 136.036  0.00  0.00    +0.000 C 
ENDBRANCH  30  32
ENDBRANCH  21  27
ENDBRANCH   4  21
TORSDOF 4
ENDMDL
MODEL 7
REMARK VINA RESULT:      -9.0     10.461     11.980
REMARK  Name = 14104301
REMARK  4 active torsions:
REMARK  status: ('A' for Active; 'I' for Inactive)
REMARK    1  A    between atoms: O_2  and  C_13
REMARK    2  A    between atoms: O_2  and  C_17
REMARK    3  A    between atoms: C_16  and  C_20
REMARK    4  A    between atoms: C_18  and  C_22
REMARK                            x       y       z     vdW  Elec       q    Type
REMARK                         _______ _______ _______ _____ _____    ______ ____
ROOT
ATOM      1  O   UNL     1     111.543 125.457 136.514  0.00  0.00    +0.000 OA
ATOM      2  O   UNL     1     114.359 126.109 136.532  0.00  0.00    +0.000 OA
ATOM      3  O   UNL     1     113.494 123.383 137.124  0.00  0.00    +0.000 OA
ATOM      4  C   UNL     1     111.972 126.790 136.224  0.00  0.00    +0.000 C 
ATOM      5  C   UNL     1     111.364 126.238 136.318  0.00  0.00    +0.000 C 
ATOM      6  C   UNL     1     112.757 126.559 136.327  0.00  0.00    +0.000 C 
ATOM      7  C   UNL     1     112.936 125.778 136.523  0.00  0.00    +0.000 A 
ATOM      8  C   UNL     1     112.329 125.228 136.616  0.00  0.00    +0.000 A 
ATOM      9  C   UNL     1     113.758 125.551 136.627  0.00  0.00    +0.000 A 
ATOM     10  C   UNL     1     112.501 124.411 136.820  0.00  0.00    +0.000 A 
ATOM     11  C   UNL     1     113.950 124.739 136.831  0.00  0.00    +0.000 A 
ATOM     12  C   UNL     1     113.318 124.164 136.929  0.00  0.00    +0.000 A 
ENDROOT
BRANCH   5  15
ATOM     13  O   UNL     1     108.858 127.053 137.423  0.00  0.00    +0.000 OA
ATOM     14  O   UNL     1     108.223 127.161 135.904  0.00  0.00    +0.000 OA
ATOM     15  C   UNL     1     110.579 126.469 136.215  0.00  0.00    +0.000 A 
ATOM     16  C   UNL     1     110.111 126.645 136.871  0.00  0.00    +0.000 A 
ATOM     17  C   UNL     1     110.262 126.523 135.455  0.00  0.00    +0.000 A 
ATOM     18  C   UNL     1     109.326 126.876 136.767  0.00  0.00    +0.000 A 
ATOM     19  C   UNL     1     109.477 126.754 135.352  0.00  0.00    +0.000 A 
ATOM     20  C   UNL     1     109.009 126.931 136.008  0.00  0.00    +0.000 A 
ENDBRANCH   5  15
BRANCH   4  21
ATOM     21  O   UNL     1     111.793 127.571 136.028  0.00  0.00    +0.000 OA
BRANCH  21  27
ATOM     22  O   UNL     1     112.316 128.276 137.156  0.00  0.00    +0.000 OA
ATOM     23  O   UNL     1     112.553 128.629 135.015  0.00  0.00    +0.000 OA
ATOM     24  O   UNL     1     113.456 129.862 135.637  0.00  0.00    +0.000 OA
ATOM     25  O   UNL     1     113.598 130.038 137.271  0.00  0.00    +0.000 OA
ATOM     26  C   UNL     1     112.624 128.716 135.833  0.00  0.00    +0.000 C 
ATOM     27  C   UNL     1     112.244 128.187 136.339  0.00  0.00    +0.000 C 
ATOM     28  C   UNL     1     113.076 129.333 136.143  0.00  0.00    +0.000 C 
ATOM     29  C   UNL     1     113.147 129.421 136.961  0.00  0.00    +0.000 C 
ATOM     30  C   UNL     1     112.767 128.892 137.467  0.00  0.00    +0.000 C 
BRANCH  30  32
ATOM     31  O   UNL     1     112.180 128.874 138.770  0.00  0.00    +0.000 OA
ATOM     32  C   UNL     1     112.838 128.980 138.284  0.00  0.00    +0.000 C 
ENDBRANCH  30  32
ENDBRANCH  21  27
ENDBRANCH   4  21
TORSDOF 4
ENDMDL
MODEL 8
REMARK VINA RESULT:      -9.0      9.098     11.848
REMARK  Name = 14104301
REMARK  4 active torsions:
REMARK  status: ('A' for Active; 'I' for Inactive)
REMARK    1  A    between atoms: O_2  and  C_13
REMARK    2  A    between atoms: O_2  and  C_17
REMARK    3  A    between atoms: C_16  and  C_20
REMARK    4  A    between atoms: C_18  and  C_22
REMARK                            x       y       z     vdW  Elec       q    Type
REMARK                         _______ _______ _______ _____ _____    ______ ____
ROOT
ATOM      1  O   UNL     1     113.435 127.302 136.774  0.00  0.00    +0.000 OA
ATOM      2  O   UNL     1     112.539 129.496 138.429  0.00  0.00    +0.000 OA
ATOM      3  O   UNL     1     113.674 130.034 135.792  0.00  0.00    +0.000 OA
ATOM      4  C   UNL     1     112.879 127.044 138.065  0.00  0.00    +0.000 C 
ATOM      5  C   UNL     1     113.212 126.769 137.362  0.00  0.00    +0.000 C 
ATOM      6  C   UNL     1     112.769 127.854 138.179  0.00  0.00    +0.000 C 
ATOM      7  C   UNL     1     112.992 128.388 137.591  0.00  0.00    +0.000 A 
ATOM      8  C   UNL     1     113.325 128.112 136.889  0.00  0.00    +0.000 A 
ATOM      9  C   UNL     1     112.873 129.229 137.722  0.00  0.00    +0.000 A 
ATOM     10  C   UNL     1     113.562 128.657 136.269  0.00  0.00    +0.000 A 
ATOM     11  C   UNL     1     113.103 129.789 137.114  0.00  0.00    +0.000 A 
ATOM     12  C   UNL     1     113.450 129.502 136.382  0.00  0.00    +0.000 A 
ENDROOT
BRANCH   5  15
ATOM     13  O   UNL     1     114.896 124.461 137.450  0.00  0.00    +0.000 OA
ATOM     14  O   UNL     1     113.648 123.529 136.905  0.00  0.00    +0.000 OA
ATOM     15  C   UNL     1     113.322 125.959 137.248  0.00  0.00    +0.000 A 
ATOM     16  C   UNL     1     114.055 125.615 137.406  0.00  0.00    +0.000 A 
ATOM     17  C   UNL     1     112.697 125.493 136.975  0.00  0.00    +0.000 A 
ATOM     18  C   UNL     1     114.163 124.805 137.292  0.00  0.00    +0.000 A 
ATOM     19  C   UNL     1     112.807 124.683 136.861  0.00  0.00    +0.000 A 
ATOM     20  C   UNL     1     113.540 124.339 137.019  0.00  0.00    +0.000 A 
ENDBRANCH   5  15
BRANCH   4  21
ATOM     21  O   UNL     1     112.656 126.511 138.653  0.00  0.00    +0.000 OA
BRANCH  21  27
ATOM     22  O   UNL     1     113.466 126.940 139.749  0.00  0.00    +0.000 OA
ATOM     23  O   UNL     1     111.335 126.480 139.641  0.00  0.00    +0.000 OA
ATOM     24  O   UNL     1     111.484 126.894 141.231  0.00  0.00    +0.000 OA
ATOM     25  O   UNL     1     112.954 127.339 141.833  0.00  0.00    +0.000 OA
ATOM     26  C   UNL     1     112.070 126.702 139.941  0.00  0.00    +0.000 C 
ATOM     27  C   UNL     1     112.730 126.718 139.447  0.00  0.00    +0.000 C 
ATOM     28  C   UNL     1     112.145 126.910 140.737  0.00  0.00    +0.000 C 
ATOM     29  C   UNL     1     112.880 127.132 141.038  0.00  0.00    +0.000 C 
ATOM     30  C   UNL     1     113.540 127.147 140.543  0.00  0.00    +0.000 C 
BRANCH  30  32
ATOM     31  O   UNL     1     114.937 126.895 140.712  0.00  0.00    +0.000 OA
ATOM     32  C   UNL     1     114.275 127.370 140.844  0.00  0.00    +0.000 C 
ENDBRANCH  30  32
ENDBRANCH  21  27
ENDBRANCH   4  21
TORSDOF 4
ENDMDL
MODEL 9
REMARK VINA RESULT:      -9.0      8.886     10.927
REMARK  Name = 14104301
REMARK  4 active torsions:
REMARK  status: ('A' for Active; 'I' for Inactive)
REMARK    1  A    between atoms: O_2  and  C_13
REMARK    2  A    between atoms: O_2  and  C_17
REMARK    3  A    between atoms: C_16  and  C_20
REMARK    4  A    between atoms: C_18  and  C_22
REMARK                            x       y       z     vdW  Elec       q    Type
REMARK                         _______ _______ _______ _____ _____    ______ ____
ROOT
ATOM      1  O   UNL     1     113.839 126.247 138.664  0.00  0.00    +0.000 OA
ATOM      2  O   UNL     1     112.208 124.522 137.017  0.00  0.00    +0.000 OA
ATOM      3  O   UNL     1     115.110 124.525 136.689  0.00  0.00    +0.000 OA
ATOM      4  C   UNL     1     112.418 126.242 138.820  0.00  0.00    +0.000 C 
ATOM      5  C   UNL     1     113.161 126.528 139.040  0.00  0.00    +0.000 C 
ATOM      6  C   UNL     1     112.355 125.675 138.225  0.00  0.00    +0.000 C 
ATOM      7  C   UNL     1     113.034 125.394 137.849  0.00  0.00    +0.000 A 
ATOM      8  C   UNL     1     113.775 125.680 138.068  0.00  0.00    +0.000 A 
ATOM      9  C   UNL     1     112.954 124.803 137.230  0.00  0.00    +0.000 A 
ATOM     10  C   UNL     1     114.489 125.396 137.685  0.00  0.00    +0.000 A 
ATOM     11  C   UNL     1     113.657 124.506 136.835  0.00  0.00    +0.000 A 
ATOM     12  C   UNL     1     114.430 124.804 137.063  0.00  0.00    +0.000 A 
ENDROOT
BRANCH   5  15
ATOM     13  O   UNL     1     113.424 129.259 139.841  0.00  0.00    +0.000 OA
ATOM     14  O   UNL     1     113.413 128.796 141.424  0.00  0.00    +0.000 OA
ATOM     15  C   UNL     1     113.224 127.096 139.635  0.00  0.00    +0.000 A 
ATOM     16  C   UNL     1     113.293 127.894 139.440  0.00  0.00    +0.000 A 
ATOM     17  C   UNL     1     113.218 126.864 140.428  0.00  0.00    +0.000 A 
ATOM     18  C   UNL     1     113.356 128.461 140.036  0.00  0.00    +0.000 A 
ATOM     19  C   UNL     1     113.281 127.431 141.023  0.00  0.00    +0.000 A 
ATOM     20  C   UNL     1     113.350 128.229 140.828  0.00  0.00    +0.000 A 
ENDBRANCH   5  15
BRANCH   4  21
ATOM     21  O   UNL     1     111.740 126.523 139.197  0.00  0.00    +0.000 OA
BRANCH  21  27
ATOM     22  O   UNL     1     111.045 127.118 138.099  0.00  0.00    +0.000 OA
ATOM     23  O   UNL     1     110.350 125.770 139.669  0.00  0.00    +0.000 OA
ATOM     24  O   UNL     1     108.960 125.989 138.807  0.00  0.00    +0.000 OA
ATOM     25  O   UNL     1     108.960 126.960 137.474  0.00  0.00    +0.000 OA
ATOM     26  C   UNL     1     110.350 126.256 139.002  0.00  0.00    +0.000 C 
ATOM     27  C   UNL     1     111.046 126.632 138.766  0.00  0.00    +0.000 C 
ATOM     28  C   UNL     1     109.655 126.365 138.571  0.00  0.00    +0.000 C 
ATOM     29  C   UNL     1     109.655 126.851 137.905  0.00  0.00    +0.000 C 
ATOM     30  C   UNL     1     110.351 127.228 137.669  0.00  0.00    +0.000 C 
BRANCH  30  32
ATOM     31  O   UNL     1     110.750 128.435 137.017  0.00  0.00    +0.000 OA
ATOM     32  C   UNL     1     110.350 127.713 137.002  0.00  0.00    +0.000 C 
ENDBRANCH  30  32
ENDBRANCH  21  27
ENDBRANCH   4  21
TORSDOF 4
ENDMDL
MODEL 10
REMARK VINA RESULT:      -9.0      9.728     12.180
REMARK  Name = 14104301
REMARK  4 active torsions:
REMARK  status: ('A' for Active; 'I' for Inactive)
REMARK    1  A    between atoms: O_2  and  C_13
REMARK    2  A    between atoms: O_2  and  C_17
REMARK    3  A    between atoms: C_16  and  C_20
REMARK    4  A    between atoms: C_18  and  C_22
REMARK                            x       y       z     vdW  Elec       q    Type
REMARK                         _______ _______ _______ _____ _____    ______ ____
ROOT
ATOM      1  O   UNL     1     113.052 128.401 138.263  0.00  0.00    +0.000 OA
ATOM      2  O   UNL     1     112.327 126.116 139.876  0.00  0.00    +0.000 OA
ATOM      3  O   UNL     1     113.192 128.590 141.165  0.00  0.00    +0.000 OA
ATOM      4  C   UNL     1     112.628 127.188 137.637  0.00  0.00    +0.000 C 
ATOM      5  C   UNL     1     112.889 127.969 137.579  0.00  0.00    +0.000 C 
ATOM      6  C   UNL     1     112.531 126.840 138.378  0.00  0.00    +0.000 C 
ATOM      7  C   UNL     1     112.694 127.272 139.062  0.00  0.00    +0.000 A 
ATOM      8  C   UNL     1     112.954 128.052 139.004  0.00  0.00    +0.000 A 
ATOM      9  C   UNL     1     112.588 126.898 139.828  0.00  0.00    +0.000 A 
ATOM     10  C   UNL     1     113.128 128.513 139.708  0.00  0.00    +0.000 A 
ATOM     11  C   UNL     1     112.756 127.343 140.543  0.00  0.00    +0.000 A 
ATOM     12  C   UNL     1     113.028 128.156 140.483  0.00  0.00    +0.000 A 
ENDROOT
BRANCH   5  15
ATOM     13  O   UNL     1     114.572 128.693 135.385  0.00  0.00    +0.000 OA
ATOM     14  O   UNL     1     113.277 129.361 134.612  0.00  0.00    +0.000 OA
ATOM     15  C   UNL     1     112.987 128.317 136.837  0.00  0.00    +0.000 A 
ATOM     16  C   UNL     1     113.731 128.331 136.482  0.00  0.00    +0.000 A 
ATOM     17  C   UNL     1     112.338 128.651 136.450  0.00  0.00    +0.000 A 
ATOM     18  C   UNL     1     113.828 128.679 135.740  0.00  0.00    +0.000 A 
ATOM     19  C   UNL     1     112.436 128.999 135.709  0.00  0.00    +0.000 A 
ATOM     20  C   UNL     1     113.180 129.013 135.354  0.00  0.00    +0.000 A 
ENDBRANCH   5  15
BRANCH   4  21
ATOM     21  O   UNL     1     112.465 126.756 136.953  0.00  0.00    +0.000 OA
BRANCH  21  27
ATOM     22  O   UNL     1     113.386 125.670 137.083  0.00  0.00    +0.000 OA
ATOM     23  O   UNL     1     111.258 125.689 136.598  0.00  0.00    +0.000 OA
ATOM     24  O   UNL     1     111.574 124.070 136.550  0.00  0.00    +0.000 OA
ATOM     25  O   UNL     1     113.098 123.519 136.857  0.00  0.00    +0.000 OA
ATOM     26  C   UNL     1     112.020 125.414 136.751  0.00  0.00    +0.000 C 
ATOM     27  C   UNL     1     112.624 125.947 136.929  0.00  0.00    +0.000 C 
ATOM     28  C   UNL     1     112.178 124.604 136.728  0.00  0.00    +0.000 C 
ATOM     29  C   UNL     1     112.940 124.328 136.881  0.00  0.00    +0.000 C 
ATOM     30  C   UNL     1     113.544 124.862 137.059  0.00  0.00    +0.000 C 
BRANCH  30  32
ATOM     31  O   UNL     1     114.959 124.982 136.903  0.00  0.00    +0.000 OA
ATOM     32  C   UNL     1     114.305 124.586 137.213  0.00  0.00    +0.000 C 
ENDBRANCH  30  32
ENDBRANCH  21  27
ENDBRANCH   4  21
TORSDOF 4
ENDMDL
