MODEL 1
REMARK VINA RESULT:      -9.3      0.000      0.000
REMARK  Name = 74977525
REMARK  8 active torsions:
REMARK  status: ('A' for Active; 'I' for Inactive)
REMARK    1  A    between atoms: O_2  and  C_13
REMARK    2  A    between atoms: O_2  and  C_21
REMARK    3  A    between atoms: O_3  and  C_14
REMARK    4  A    between atoms: O_3  and  C_20
REMARK    5  A    between atoms: O_4  and  C_17
REMARK    6  A    between atoms: O_4  and  C_19
REMARK    7  A    between atoms: C_15  and  C_18
REMARK    8  A    between atoms: C_30  and  C_32
REMARK                            x       y       z     vdW  Elec       q    Type
REMARK                         _______ _______ _______ _____ _____    ______ ____
ROOT
ATOM      1  O   UNL     1     104.750 128.583 143.208  0.00  0.00    +0.000 OA
ATOM      2  O   UNL     1     105.466 126.734 141.106  0.00  0.00    +0.000 OA
ATOM      3  O   UNL     1     104.570 127.838 140.855  0.00  0.00    +0.000 OA
ATOM      4  C   UNL     1     106.089 126.795 143.257  0.00  0.00    +0.000 A 
ATOM      5  C   UNL     1     105.655 127.490 143.515  0.00  0.00    +0.000 A 
ATOM      6  C   UNL     1     106.027 126.536 142.439  0.00  0.00    +0.000 A 
ATOM      7  C   UNL     1     105.165 127.917 142.953  0.00  0.00    +0.000 A 
ATOM      8  C   UNL     1     105.105 127.669 142.170  0.00  0.00    +0.000 A 
ATOM      9  C   UNL     1     105.531 126.976 141.892  0.00  0.00    +0.000 A 
ATOM     10  C   UNL     1     104.630 128.087 141.640  0.00  0.00    +0.000 A 
ATOM     11  C   UNL     1     104.276 129.002 142.678  0.00  0.00    +0.000 A 
ATOM     12  C   UNL     1     104.216 128.753 141.894  0.00  0.00    +0.000 A 
ENDROOT
BRANCH  11  14
ATOM     13  O   UNL     1     102.621 131.668 143.700  0.00  0.00    +0.000 OA
ATOM     14  C   UNL     1     103.862 129.668 142.933  0.00  0.00    +0.000 A 
ATOM     15  C   UNL     1     104.077 130.043 143.637  0.00  0.00    +0.000 A 
ATOM     16  C   UNL     1     103.233 129.960 142.486  0.00  0.00    +0.000 A 
ATOM     17  C   UNL     1     103.663 130.709 143.892  0.00  0.00    +0.000 A 
ATOM     18  C   UNL     1     102.820 130.627 142.741  0.00  0.00    +0.000 A 
ATOM     19  C   UNL     1     103.035 131.001 143.444  0.00  0.00    +0.000 A 
ENDBRANCH  11  14
BRANCH   4  20
ATOM     20  O   UNL     1     106.563 126.379 143.789  0.00  0.00    +0.000 OA
BRANCH  20  27
ATOM     21  O   UNL     1     105.734 125.248 144.064  0.00  0.00    +0.000 OA
ATOM     22  O   UNL     1     106.839 126.569 145.405  0.00  0.00    +0.000 OA
ATOM     23  C   UNL     1     105.526 124.824 145.413  0.00  0.00    +0.000 C 
ATOM     24  C   UNL     1     106.010 125.438 145.680  0.00  0.00    +0.000 C 
ATOM     25  C   UNL     1     105.388 124.729 144.605  0.00  0.00    +0.000 C 
ATOM     26  C   UNL     1     106.355 125.956 145.138  0.00  0.00    +0.000 C 
ATOM     27  C   UNL     1     106.217 125.860 144.330  0.00  0.00    +0.000 C 
BRANCH  25  29
ATOM     28  O   UNL     1     104.994 123.825 143.572  0.00  0.00    +0.000 OA
ATOM     29  C   UNL     1     104.905 124.117 144.339  0.00  0.00    +0.000 C 
ENDBRANCH  25  29
BRANCH  23  30
ATOM     30  O   UNL     1     105.181 124.307 145.954  0.00  0.00    +0.000 OA
BRANCH  30  32
ATOM     31  O   UNL     1     104.022 125.129 146.113  0.00  0.00    +0.000 OA
ATOM     32  C   UNL     1     104.383 124.388 146.151  0.00  0.00    +0.000 C 
ATOM     33  C   UNL     1     103.948 123.728 146.387  0.00  0.00    +0.000 C 
ENDBRANCH  30  32
ENDBRANCH  23  30
BRANCH  24  34
ATOM     34  O   UNL     1     106.148 125.533 146.487  0.00  0.00    +0.000 OA
BRANCH  34  36
ATOM     35  O   UNL     1     107.410 124.869 146.576  0.00  0.00    +0.000 OA
ATOM     36  C   UNL     1     106.918 125.498 146.781  0.00  0.00    +0.000 C 
ATOM     37  C   UNL     1     107.197 126.094 147.279  0.00  0.00    +0.000 C 
ENDBRANCH  34  36
ENDBRANCH  24  34
ENDBRANCH  20  27
ENDBRANCH   4  20
TORSDOF 8
ENDMDL
MODEL 2
REMARK VINA RESULT:      -9.2      2.761      4.209
REMARK  Name = 74977525
REMARK  8 active torsions:
REMARK  status: ('A' for Active; 'I' for Inactive)
REMARK    1  A    between atoms: O_2  and  C_13
REMARK    2  A    between atoms: O_2  and  C_21
REMARK    3  A    between atoms: O_3  and  C_14
REMARK    4  A    between atoms: O_3  and  C_20
REMARK    5  A    between atoms: O_4  and  C_17
REMARK    6  A    between atoms: O_4  and  C_19
REMARK    7  A    between atoms: C_15  and  C_18
REMARK    8  A    between atoms: C_30  and  C_32
REMARK                            x       y       z     vdW  Elec       q    Type
REMARK                         _______ _______ _______ _____ _____    ______ ____
ROOT
ATOM      1  O   UNL     1     102.924 130.386 141.895  0.00  0.00    +0.000 OA
ATOM      2  O   UNL     1     103.367 128.284 139.962  0.00  0.00    +0.000 OA
ATOM      3  O   UNL     1     102.487 129.392 139.671  0.00  0.00    +0.000 OA
ATOM      4  C   UNL     1     104.203 128.557 142.023  0.00  0.00    +0.000 A 
ATOM      5  C   UNL     1     103.819 129.295 142.239  0.00  0.00    +0.000 A 
ATOM      6  C   UNL     1     104.051 128.212 141.250  0.00  0.00    +0.000 A 
ATOM      7  C   UNL     1     103.289 129.677 141.681  0.00  0.00    +0.000 A 
ATOM      8  C   UNL     1     103.144 129.346 140.941  0.00  0.00    +0.000 A 
ATOM      9  C   UNL     1     103.518 128.609 140.706  0.00  0.00    +0.000 A 
ATOM     10  C   UNL     1     102.633 129.723 140.413  0.00  0.00    +0.000 A 
ATOM     11  C   UNL     1     102.414 130.763 141.368  0.00  0.00    +0.000 A 
ATOM     12  C   UNL     1     102.268 130.431 140.627  0.00  0.00    +0.000 A 
ENDROOT
BRANCH  11  14
ATOM     13  O   UNL     1     100.952 133.594 142.228  0.00  0.00    +0.000 OA
ATOM     14  C   UNL     1     102.049 131.471 141.583  0.00  0.00    +0.000 A 
ATOM     15  C   UNL     1     101.301 131.460 141.933  0.00  0.00    +0.000 A 
ATOM     16  C   UNL     1     102.431 132.189 141.449  0.00  0.00    +0.000 A 
ATOM     17  C   UNL     1     100.936 132.167 142.147  0.00  0.00    +0.000 A 
ATOM     18  C   UNL     1     102.065 132.897 141.663  0.00  0.00    +0.000 A 
ATOM     19  C   UNL     1     101.318 132.886 142.013  0.00  0.00    +0.000 A 
ENDBRANCH  11  14
BRANCH   4  20
ATOM     20  O   UNL     1     104.713 128.183 142.552  0.00  0.00    +0.000 OA
BRANCH  20  27
ATOM     21  O   UNL     1     105.953 128.748 142.124  0.00  0.00    +0.000 OA
ATOM     22  O   UNL     1     105.425 126.698 142.652  0.00  0.00    +0.000 OA
ATOM     23  C   UNL     1     107.107 127.918 141.985  0.00  0.00    +0.000 C 
ATOM     24  C   UNL     1     106.665 127.263 142.224  0.00  0.00    +0.000 C 
ATOM     25  C   UNL     1     106.751 128.661 141.935  0.00  0.00    +0.000 C 
ATOM     26  C   UNL     1     105.867 127.352 142.413  0.00  0.00    +0.000 C 
ATOM     27  C   UNL     1     105.511 128.095 142.363  0.00  0.00    +0.000 C 
BRANCH  25  29
ATOM     28  O   UNL     1     106.864 129.869 141.182  0.00  0.00    +0.000 OA
ATOM     29  C   UNL     1     107.193 129.314 141.696  0.00  0.00    +0.000 C 
ENDBRANCH  25  29
BRANCH  23  30
ATOM     30  O   UNL     1     107.905 127.829 141.796  0.00  0.00    +0.000 OA
BRANCH  30  32
ATOM     31  O   UNL     1     108.324 128.035 143.147  0.00  0.00    +0.000 OA
ATOM     32  C   UNL     1     108.485 128.056 142.338  0.00  0.00    +0.000 C 
ATOM     33  C   UNL     1     109.225 128.303 142.071  0.00  0.00    +0.000 C 
ENDBRANCH  30  32
ENDBRANCH  23  30
BRANCH  24  34
ATOM     34  O   UNL     1     107.021 126.521 142.274  0.00  0.00    +0.000 OA
BRANCH  34  36
ATOM     35  O   UNL     1     106.769 126.010 140.963  0.00  0.00    +0.000 OA
ATOM     36  C   UNL     1     106.769 125.909 141.782  0.00  0.00    +0.000 C 
ATOM     37  C   UNL     1     106.515 125.195 142.108  0.00  0.00    +0.000 C 
ENDBRANCH  34  36
ENDBRANCH  24  34
ENDBRANCH  20  27
ENDBRANCH   4  20
TORSDOF 8
ENDMDL
MODEL 3
REMARK VINA RESULT:      -9.2      9.338     11.342
REMARK  Name = 74977525
REMARK  8 active torsions:
REMARK  status: ('A' for Active; 'I' for Inactive)
REMARK    1  A    between atoms: O_2  and  C_13
REMARK    2  A    between atoms: O_2  and  C_21
REMARK    3  A    between atoms: O_3  and  C_14
REMARK    4  A    between atoms: O_3  and  C_20
REMARK    5  A    between atoms: O_4  and  C_17
REMARK    6  A    between atoms: O_4  and  C_19
REMARK    7  A    between atoms: C_15  and  C_18
REMARK    8  A    between atoms: C_30  and  C_32
REMARK                            x       y       z     vdW  Elec       q    Type
REMARK                         _______ _______ _______ _____ _____    ______ ____
ROOT
ATOM      1  O   UNL     1     112.303 126.598 136.052  0.00  0.00    +0.000 OA
ATOM      2  O   UNL     1     109.828 125.895 134.738  0.00  0.00    +0.000 OA
ATOM      3  O   UNL     1     110.607 124.903 135.439  0.00  0.00    +0.000 OA
ATOM      4  C   UNL     1     110.874 127.869 134.896  0.00  0.00    +0.000 A 
ATOM      5  C   UNL     1     111.558 127.635 135.361  0.00  0.00    +0.000 A 
ATOM      6  C   UNL     1     110.285 127.280 134.683  0.00  0.00    +0.000 A 
ATOM      7  C   UNL     1     111.644 126.816 135.606  0.00  0.00    +0.000 A 
ATOM      8  C   UNL     1     111.079 126.252 135.402  0.00  0.00    +0.000 A 
ATOM      9  C   UNL     1     110.388 126.466 134.938  0.00  0.00    +0.000 A 
ATOM     10  C   UNL     1     111.173 125.469 135.643  0.00  0.00    +0.000 A 
ATOM     11  C   UNL     1     112.397 125.815 136.294  0.00  0.00    +0.000 A 
ATOM     12  C   UNL     1     111.832 125.250 136.089  0.00  0.00    +0.000 A 
ENDROOT
BRANCH  11  14
ATOM     13  O   UNL     1     115.034 124.943 138.075  0.00  0.00    +0.000 OA
ATOM     14  C   UNL     1     113.056 125.597 136.740  0.00  0.00    +0.000 A 
ATOM     15  C   UNL     1     113.700 125.234 136.372  0.00  0.00    +0.000 A 
ATOM     16  C   UNL     1     113.072 125.742 137.551  0.00  0.00    +0.000 A 
ATOM     17  C   UNL     1     114.359 125.016 136.818  0.00  0.00    +0.000 A 
ATOM     18  C   UNL     1     113.731 125.524 137.997  0.00  0.00    +0.000 A 
ATOM     19  C   UNL     1     114.375 125.161 137.630  0.00  0.00    +0.000 A 
ENDBRANCH  11  14
BRANCH   4  20
ATOM     20  O   UNL     1     110.784 128.653 134.656  0.00  0.00    +0.000 OA
BRANCH  20  27
ATOM     21  O   UNL     1     109.601 129.117 135.311  0.00  0.00    +0.000 OA
ATOM     22  O   UNL     1     111.641 129.893 135.328  0.00  0.00    +0.000 OA
ATOM     23  C   UNL     1     109.652 130.278 136.142  0.00  0.00    +0.000 C 
ATOM     24  C   UNL     1     110.459 130.357 135.982  0.00  0.00    +0.000 C 
ATOM     25  C   UNL     1     109.224 129.659 135.806  0.00  0.00    +0.000 C 
ATOM     26  C   UNL     1     110.835 129.815 135.487  0.00  0.00    +0.000 C 
ATOM     27  C   UNL     1     110.406 129.195 135.151  0.00  0.00    +0.000 C 
BRANCH  25  29
ATOM     28  O   UNL     1     108.050 128.848 135.879  0.00  0.00    +0.000 OA
ATOM     29  C   UNL     1     108.419 129.581 135.965  0.00  0.00    +0.000 C 
ENDBRANCH  25  29
BRANCH  23  30
ATOM     30  O   UNL     1     109.276 130.820 136.637  0.00  0.00    +0.000 OA
BRANCH  30  32
ATOM     31  O   UNL     1     108.972 131.695 135.548  0.00  0.00    +0.000 OA
ATOM     32  C   UNL     1     108.819 131.426 136.313  0.00  0.00    +0.000 C 
ATOM     33  C   UNL     1     108.209 131.763 136.754  0.00  0.00    +0.000 C 
ENDBRANCH  30  32
ENDBRANCH  23  30
BRANCH  24  34
ATOM     34  O   UNL     1     110.888 130.976 136.318  0.00  0.00    +0.000 OA
BRANCH  34  36
ATOM     35  O   UNL     1     111.310 130.344 137.528  0.00  0.00    +0.000 OA
ATOM     36  C   UNL     1     111.477 130.816 136.873  0.00  0.00    +0.000 C 
ATOM     37  C   UNL     1     112.234 131.129 136.772  0.00  0.00    +0.000 C 
ENDBRANCH  34  36
ENDBRANCH  24  34
ENDBRANCH  20  27
ENDBRANCH   4  20
TORSDOF 8
ENDMDL
MODEL 4
REMARK VINA RESULT:      -9.2      9.711     11.745
REMARK  Name = 74977525
REMARK  8 active torsions:
REMARK  status: ('A' for Active; 'I' for Inactive)
REMARK    1  A    between atoms: O_2  and  C_13
REMARK    2  A    between atoms: O_2  and  C_21
REMARK    3  A    between atoms: O_3  and  C_14
REMARK    4  A    between atoms: O_3  and  C_20
REMARK    5  A    between atoms: O_4  and  C_17
REMARK    6  A    between atoms: O_4  and  C_19
REMARK    7  A    between atoms: C_15  and  C_18
REMARK    8  A    between atoms: C_30  and  C_32
REMARK                            x       y       z     vdW  Elec       q    Type
REMARK                         _______ _______ _______ _____ _____    ______ ____
ROOT
ATOM      1  O   UNL     1     111.608 126.569 135.908  0.00  0.00    +0.000 OA
ATOM      2  O   UNL     1     109.472 128.251 134.932  0.00  0.00    +0.000 OA
ATOM      3  O   UNL     1     109.212 126.907 135.388  0.00  0.00    +0.000 OA
ATOM      4  C   UNL     1     111.663 128.667 135.139  0.00  0.00    +0.000 A 
ATOM      5  C   UNL     1     111.924 127.914 135.461  0.00  0.00    +0.000 A 
ATOM      6  C   UNL     1     110.830 128.784 134.958  0.00  0.00    +0.000 A 
ATOM      7  C   UNL     1     111.351 127.289 135.599  0.00  0.00    +0.000 A 
ATOM      8  C   UNL     1     110.553 127.402 135.425  0.00  0.00    +0.000 A 
ATOM      9  C   UNL     1     110.272 128.147 135.102  0.00  0.00    +0.000 A 
ATOM     10  C   UNL     1     110.011 126.794 135.561  0.00  0.00    +0.000 A 
ATOM     11  C   UNL     1     111.067 125.961 136.045  0.00  0.00    +0.000 A 
ATOM     12  C   UNL     1     110.268 126.074 135.871  0.00  0.00    +0.000 A 
ENDROOT
BRANCH  11  14
ATOM     13  O   UNL     1     112.098 123.083 137.286  0.00  0.00    +0.000 OA
ATOM     14  C   UNL     1     111.325 125.242 136.354  0.00  0.00    +0.000 A 
ATOM     15  C   UNL     1     111.349 125.130 137.172  0.00  0.00    +0.000 A 
ATOM     16  C   UNL     1     111.558 124.634 135.848  0.00  0.00    +0.000 A 
ATOM     17  C   UNL     1     111.607 124.410 137.482  0.00  0.00    +0.000 A 
ATOM     18  C   UNL     1     111.816 123.914 136.158  0.00  0.00    +0.000 A 
ATOM     19  C   UNL     1     111.840 123.802 136.975  0.00  0.00    +0.000 A 
ENDBRANCH  11  14
BRANCH   4  20
ATOM     20  O   UNL     1     112.207 129.272 135.004  0.00  0.00    +0.000 OA
BRANCH  20  27
ATOM     21  O   UNL     1     112.128 129.917 136.277  0.00  0.00    +0.000 OA
ATOM     22  O   UNL     1     113.845 129.468 135.007  0.00  0.00    +0.000 OA
ATOM     23  C   UNL     1     113.317 130.386 136.916  0.00  0.00    +0.000 C 
ATOM     24  C   UNL     1     113.766 130.113 136.279  0.00  0.00    +0.000 C 
ATOM     25  C   UNL     1     112.498 130.289 136.914  0.00  0.00    +0.000 C 
ATOM     26  C   UNL     1     113.396 129.741 135.643  0.00  0.00    +0.000 C 
ATOM     27  C   UNL     1     112.576 129.644 135.642  0.00  0.00    +0.000 C 
BRANCH  25  29
ATOM     28  O   UNL     1     111.300 130.883 137.418  0.00  0.00    +0.000 OA
ATOM     29  C   UNL     1     112.049 130.562 137.550  0.00  0.00    +0.000 C 
ENDBRANCH  25  29
BRANCH  23  30
ATOM     30  O   UNL     1     113.687 130.757 137.552  0.00  0.00    +0.000 OA
BRANCH  30  32
ATOM     31  O   UNL     1     113.753 129.511 138.250  0.00  0.00    +0.000 OA
ATOM     32  C   UNL     1     113.851 130.331 138.240  0.00  0.00    +0.000 C 
ATOM     33  C   UNL     1     114.112 130.724 138.916  0.00  0.00    +0.000 C 
ENDBRANCH  30  32
ENDBRANCH  23  30
BRANCH  24  34
ATOM     34  O   UNL     1     114.585 130.210 136.281  0.00  0.00    +0.000 OA
BRANCH  34  36
ATOM     35  O   UNL     1     114.716 131.459 135.598  0.00  0.00    +0.000 OA
ATOM     36  C   UNL     1     114.946 130.674 135.701  0.00  0.00    +0.000 C 
ATOM     37  C   UNL     1     115.536 130.351 135.224  0.00  0.00    +0.000 C 
ENDBRANCH  34  36
ENDBRANCH  24  34
ENDBRANCH  20  27
ENDBRANCH   4  20
TORSDOF 8
ENDMDL
MODEL 5
REMARK VINA RESULT:      -9.1      7.682     10.516
REMARK  Name = 74977525
REMARK  8 active torsions:
REMARK  status: ('A' for Active; 'I' for Inactive)
REMARK    1  A    between atoms: O_2  and  C_13
REMARK    2  A    between atoms: O_2  and  C_21
REMARK    3  A    between atoms: O_3  and  C_14
REMARK    4  A    between atoms: O_3  and  C_20
REMARK    5  A    between atoms: O_4  and  C_17
REMARK    6  A    between atoms: O_4  and  C_19
REMARK    7  A    between atoms: C_15  and  C_18
REMARK    8  A    between atoms: C_30  and  C_32
REMARK                            x       y       z     vdW  Elec       q    Type
REMARK                         _______ _______ _______ _____ _____    ______ ____
ROOT
ATOM      1  O   UNL     1     111.512 126.226 136.882  0.00  0.00    +0.000 OA
ATOM      2  O   UNL     1     109.273 126.113 135.060  0.00  0.00    +0.000 OA
ATOM      3  O   UNL     1     110.433 125.276 134.867  0.00  0.00    +0.000 OA
ATOM      4  C   UNL     1     109.590 127.367 136.889  0.00  0.00    +0.000 A 
ATOM      5  C   UNL     1     110.369 127.090 137.122  0.00  0.00    +0.000 A 
ATOM      6  C   UNL     1     109.215 127.037 136.189  0.00  0.00    +0.000 A 
ATOM      7  C   UNL     1     110.763 126.488 136.653  0.00  0.00    +0.000 A 
ATOM      8  C   UNL     1     110.404 126.171 135.982  0.00  0.00    +0.000 A 
ATOM      9  C   UNL     1     109.625 126.435 135.732  0.00  0.00    +0.000 A 
ATOM     10  C   UNL     1     110.793 125.593 135.540  0.00  0.00    +0.000 A 
ATOM     11  C   UNL     1     111.901 125.648 136.440  0.00  0.00    +0.000 A 
ATOM     12  C   UNL     1     111.541 125.332 135.769  0.00  0.00    +0.000 A 
ENDROOT
BRANCH  11  14
ATOM     13  O   UNL     1     114.892 124.601 137.360  0.00  0.00    +0.000 OA
ATOM     14  C   UNL     1     112.648 125.387 136.670  0.00  0.00    +0.000 A 
ATOM     15  C   UNL     1     112.736 124.644 137.019  0.00  0.00    +0.000 A 
ATOM     16  C   UNL     1     113.308 125.868 136.551  0.00  0.00    +0.000 A 
ATOM     17  C   UNL     1     113.484 124.383 137.249  0.00  0.00    +0.000 A 
ATOM     18  C   UNL     1     114.056 125.606 136.781  0.00  0.00    +0.000 A 
ATOM     19  C   UNL     1     114.144 124.863 137.130  0.00  0.00    +0.000 A 
ENDBRANCH  11  14
BRANCH   4  20
ATOM     20  O   UNL     1     109.204 127.945 137.333  0.00  0.00    +0.000 OA
BRANCH  20  27
ATOM     21  O   UNL     1     109.712 129.067 136.608  0.00  0.00    +0.000 OA
ATOM     22  O   UNL     1     109.273 128.818 138.731  0.00  0.00    +0.000 OA
ATOM     23  C   UNL     1     110.018 130.283 137.293  0.00  0.00    +0.000 C 
ATOM     24  C   UNL     1     109.781 129.940 138.006  0.00  0.00    +0.000 C 
ATOM     25  C   UNL     1     109.983 129.846 136.594  0.00  0.00    +0.000 C 
ATOM     26  C   UNL     1     109.510 129.161 138.018  0.00  0.00    +0.000 C 
ATOM     27  C   UNL     1     109.476 128.724 137.319  0.00  0.00    +0.000 C 
BRANCH  25  29
ATOM     28  O   UNL     1     109.813 130.016 135.186  0.00  0.00    +0.000 OA
ATOM     29  C   UNL     1     110.220 130.189 135.883  0.00  0.00    +0.000 C 
ENDBRANCH  25  29
BRANCH  23  30
ATOM     30  O   UNL     1     110.288 131.062 137.281  0.00  0.00    +0.000 OA
BRANCH  30  32
ATOM     31  O   UNL     1     111.634 130.628 137.493  0.00  0.00    +0.000 OA
ATOM     32  C   UNL     1     111.100 131.216 137.271  0.00  0.00    +0.000 C 
ATOM     33  C   UNL     1     111.375 131.958 137.039  0.00  0.00    +0.000 C 
ENDBRANCH  30  32
ENDBRANCH  23  30
BRANCH  24  34
ATOM     34  O   UNL     1     109.815 130.376 138.705  0.00  0.00    +0.000 OA
BRANCH  34  36
ATOM     35  O   UNL     1     108.478 130.880 138.740  0.00  0.00    +0.000 OA
ATOM     36  C   UNL     1     109.122 130.538 139.124  0.00  0.00    +0.000 C 
ATOM     37  C   UNL     1     109.076 130.358 139.928  0.00  0.00    +0.000 C 
ENDBRANCH  34  36
ENDBRANCH  24  34
ENDBRANCH  20  27
ENDBRANCH   4  20
TORSDOF 8
ENDMDL
MODEL 6
REMARK VINA RESULT:      -9.1      2.657      4.215
REMARK  Name = 74977525
REMARK  8 active torsions:
REMARK  status: ('A' for Active; 'I' for Inactive)
REMARK    1  A    between atoms: O_2  and  C_13
REMARK    2  A    between atoms: O_2  and  C_21
REMARK    3  A    between atoms: O_3  and  C_14
REMARK    4  A    between atoms: O_3  and  C_20
REMARK    5  A    between atoms: O_4  and  C_17
REMARK    6  A    between atoms: O_4  and  C_19
REMARK    7  A    between atoms: C_15  and  C_18
REMARK    8  A    between atoms: C_30  and  C_32
REMARK                            x       y       z     vdW  Elec       q    Type
REMARK                         _______ _______ _______ _____ _____    ______ ____
ROOT
ATOM      1  O   UNL     1     105.735 125.302 142.584  0.00  0.00    +0.000 OA
ATOM      2  O   UNL     1     107.397 127.445 143.580  0.00  0.00    +0.000 OA
ATOM      3  O   UNL     1     107.618 126.877 142.271  0.00  0.00    +0.000 OA
ATOM      4  C   UNL     1     105.666 126.391 144.535  0.00  0.00    +0.000 A 
ATOM      5  C   UNL     1     105.470 125.837 143.908  0.00  0.00    +0.000 A 
ATOM      6  C   UNL     1     106.320 126.938 144.426  0.00  0.00    +0.000 A 
ATOM      7  C   UNL     1     105.929 125.837 143.182  0.00  0.00    +0.000 A 
ATOM      8  C   UNL     1     106.556 126.361 143.078  0.00  0.00    +0.000 A 
ATOM      9  C   UNL     1     106.768 126.924 143.693  0.00  0.00    +0.000 A 
ATOM     10  C   UNL     1     106.990 126.352 142.376  0.00  0.00    +0.000 A 
ATOM     11  C   UNL     1     106.168 125.292 141.882  0.00  0.00    +0.000 A 
ATOM     12  C   UNL     1     106.796 125.817 141.778  0.00  0.00    +0.000 A 
ENDROOT
BRANCH  11  14
ATOM     13  O   UNL     1     105.390 123.154 139.493  0.00  0.00    +0.000 OA
ATOM     14  C   UNL     1     105.974 124.757 141.286  0.00  0.00    +0.000 A 
ATOM     15  C   UNL     1     105.454 124.981 140.684  0.00  0.00    +0.000 A 
ATOM     16  C   UNL     1     106.299 123.999 141.288  0.00  0.00    +0.000 A 
ATOM     17  C   UNL     1     105.260 124.447 140.088  0.00  0.00    +0.000 A 
ATOM     18  C   UNL     1     106.104 123.464 140.691  0.00  0.00    +0.000 A 
ATOM     19  C   UNL     1     105.585 123.688 140.090  0.00  0.00    +0.000 A 
ENDBRANCH  11  14
BRANCH   4  20
ATOM     20  O   UNL     1     105.231 126.398 145.235  0.00  0.00    +0.000 OA
BRANCH  20  27
ATOM     21  O   UNL     1     106.179 125.850 146.153  0.00  0.00    +0.000 OA
ATOM     22  O   UNL     1     104.073 125.379 145.822  0.00  0.00    +0.000 OA
ATOM     23  C   UNL     1     105.785 124.811 147.052  0.00  0.00    +0.000 C 
ATOM     24  C   UNL     1     105.021 124.830 146.740  0.00  0.00    +0.000 C 
ATOM     25  C   UNL     1     106.364 125.321 146.759  0.00  0.00    +0.000 C 
ATOM     26  C   UNL     1     104.837 125.359 146.134  0.00  0.00    +0.000 C 
ATOM     27  C   UNL     1     105.416 125.869 145.841  0.00  0.00    +0.000 C 
BRANCH  25  29
ATOM     28  O   UNL     1     107.779 125.374 146.571  0.00  0.00    +0.000 OA
ATOM     29  C   UNL     1     107.127 125.301 147.071  0.00  0.00    +0.000 C 
ENDBRANCH  25  29
BRANCH  23  30
ATOM     30  O   UNL     1     105.969 124.282 147.657  0.00  0.00    +0.000 OA
BRANCH  30  32
ATOM     31  O   UNL     1     105.555 125.176 148.693  0.00  0.00    +0.000 OA
ATOM     32  C   UNL     1     106.027 124.551 148.436  0.00  0.00    +0.000 C 
ATOM     33  C   UNL     1     106.557 124.193 148.957  0.00  0.00    +0.000 C 
ENDBRANCH  30  32
ENDBRANCH  23  30
BRANCH  24  34
ATOM     34  O   UNL     1     104.443 124.321 147.033  0.00  0.00    +0.000 OA
BRANCH  34  36
ATOM     35  O   UNL     1     104.524 123.238 146.103  0.00  0.00    +0.000 OA
ATOM     36  C   UNL     1     104.073 123.783 146.528  0.00  0.00    +0.000 C 
ATOM     37  C   UNL     1     103.252 123.790 146.447  0.00  0.00    +0.000 C 
ENDBRANCH  34  36
ENDBRANCH  24  34
ENDBRANCH  20  27
ENDBRANCH   4  20
TORSDOF 8
ENDMDL
MODEL 7
REMARK VINA RESULT:      -9.0      1.540      5.398
REMARK  Name = 74977525
REMARK  8 active torsions:
REMARK  status: ('A' for Active; 'I' for Inactive)
REMARK    1  A    between atoms: O_2  and  C_13
REMARK    2  A    between atoms: O_2  and  C_21
REMARK    3  A    between atoms: O_3  and  C_14
REMARK    4  A    between atoms: O_3  and  C_20
REMARK    5  A    between atoms: O_4  and  C_17
REMARK    6  A    between atoms: O_4  and  C_19
REMARK    7  A    between atoms: C_15  and  C_18
REMARK    8  A    between atoms: C_30  and  C_32
REMARK                            x       y       z     vdW  Elec       q    Type
REMARK                         _______ _______ _______ _____ _____    ______ ____
ROOT
ATOM      1  O   UNL     1     104.539 125.257 145.802  0.00  0.00    +0.000 OA
ATOM      2  O   UNL     1     107.326 125.719 146.403  0.00  0.00    +0.000 OA
ATOM      3  O   UNL     1     106.562 124.731 147.126  0.00  0.00    +0.000 OA
ATOM      4  C   UNL     1     105.991 126.688 144.887  0.00  0.00    +0.000 A 
ATOM      5  C   UNL     1     105.261 126.263 145.043  0.00  0.00    +0.000 A 
ATOM      6  C   UNL     1     106.694 126.505 145.347  0.00  0.00    +0.000 A 
ATOM      7  C   UNL     1     105.243 125.661 145.656  0.00  0.00    +0.000 A 
ATOM      8  C   UNL     1     105.917 125.486 146.098  0.00  0.00    +0.000 A 
ATOM      9  C   UNL     1     106.657 125.901 145.957  0.00  0.00    +0.000 A 
ATOM     10  C   UNL     1     105.887 124.907 146.684  0.00  0.00    +0.000 A 
ATOM     11  C   UNL     1     104.508 124.677 146.388  0.00  0.00    +0.000 A 
ATOM     12  C   UNL     1     105.183 124.502 146.829  0.00  0.00    +0.000 A 
ENDROOT
BRANCH  11  14
ATOM     13  O   UNL     1     101.689 123.062 146.967  0.00  0.00    +0.000 OA
ATOM     14  C   UNL     1     103.804 124.273 146.532  0.00  0.00    +0.000 A 
ATOM     15  C   UNL     1     103.263 124.571 147.080  0.00  0.00    +0.000 A 
ATOM     16  C   UNL     1     103.640 123.572 146.129  0.00  0.00    +0.000 A 
ATOM     17  C   UNL     1     102.559 124.167 147.225  0.00  0.00    +0.000 A 
ATOM     18  C   UNL     1     102.935 123.168 146.275  0.00  0.00    +0.000 A 
ATOM     19  C   UNL     1     102.394 123.466 146.822  0.00  0.00    +0.000 A 
ENDBRANCH  11  14
BRANCH   4  20
ATOM     20  O   UNL     1     106.017 127.267 144.300  0.00  0.00    +0.000 OA
BRANCH  20  27
ATOM     21  O   UNL     1     106.554 126.524 143.203  0.00  0.00    +0.000 OA
ATOM     22  O   UNL     1     104.847 127.880 143.312  0.00  0.00    +0.000 OA
ATOM     23  C   UNL     1     105.945 126.613 141.914  0.00  0.00    +0.000 C 
ATOM     24  C   UNL     1     105.384 127.138 142.215  0.00  0.00    +0.000 C 
ATOM     25  C   UNL     1     106.530 126.306 142.408  0.00  0.00    +0.000 C 
ATOM     26  C   UNL     1     105.408 127.355 143.011  0.00  0.00    +0.000 C 
ATOM     27  C   UNL     1     105.994 127.049 143.505  0.00  0.00    +0.000 C 
BRANCH  25  29
ATOM     28  O   UNL     1     107.885 125.863 142.314  0.00  0.00    +0.000 OA
ATOM     29  C   UNL     1     107.091 125.782 142.107  0.00  0.00    +0.000 C 
ENDBRANCH  25  29
BRANCH  23  30
ATOM     30  O   UNL     1     105.920 126.395 141.119  0.00  0.00    +0.000 OA
BRANCH  30  32
ATOM     31  O   UNL     1     105.068 125.278 141.379  0.00  0.00    +0.000 OA
ATOM     32  C   UNL     1     105.626 125.655 140.903  0.00  0.00    +0.000 C 
ATOM     33  C   UNL     1     105.891 125.292 140.211  0.00  0.00    +0.000 C 
ENDBRANCH  30  32
ENDBRANCH  23  30
BRANCH  24  34
ATOM     34  O   UNL     1     104.798 127.445 141.721  0.00  0.00    +0.000 OA
BRANCH  34  36
ATOM     35  O   UNL     1     105.418 128.658 141.291  0.00  0.00    +0.000 OA
ATOM     36  C   UNL     1     104.760 128.257 141.583  0.00  0.00    +0.000 C 
ATOM     37  C   UNL     1     104.062 128.669 141.738  0.00  0.00    +0.000 C 
ENDBRANCH  34  36
ENDBRANCH  24  34
ENDBRANCH  20  27
ENDBRANCH   4  20
TORSDOF 8
ENDMDL
MODEL 8
REMARK VINA RESULT:      -9.0      8.365     11.141
REMARK  Name = 74977525
REMARK  8 active torsions:
REMARK  status: ('A' for Active; 'I' for Inactive)
REMARK    1  A    between atoms: O_2  and  C_13
REMARK    2  A    between atoms: O_2  and  C_21
REMARK    3  A    between atoms: O_3  and  C_14
REMARK    4  A    between atoms: O_3  and  C_20
REMARK    5  A    between atoms: O_4  and  C_17
REMARK    6  A    between atoms: O_4  and  C_19
REMARK    7  A    between atoms: C_15  and  C_18
REMARK    8  A    between atoms: C_30  and  C_32
REMARK                            x       y       z     vdW  Elec       q    Type
REMARK                         _______ _______ _______ _____ _____    ______ ____
ROOT
ATOM      1  O   UNL     1     112.747 127.202 136.388  0.00  0.00    +0.000 OA
ATOM      2  O   UNL     1     113.175 129.899 135.447  0.00  0.00    +0.000 OA
ATOM      3  O   UNL     1     114.286 129.051 135.809  0.00  0.00    +0.000 OA
ATOM      4  C   UNL     1     111.273 128.757 135.754  0.00  0.00    +0.000 A 
ATOM      5  C   UNL     1     111.594 128.012 136.037  0.00  0.00    +0.000 A 
ATOM      6  C   UNL     1     111.808 129.400 135.552  0.00  0.00    +0.000 A 
ATOM      7  C   UNL     1     112.444 127.920 136.115  0.00  0.00    +0.000 A 
ATOM      8  C   UNL     1     112.957 128.535 135.923  0.00  0.00    +0.000 A 
ATOM      9  C   UNL     1     112.655 129.288 135.637  0.00  0.00    +0.000 A 
ATOM     10  C   UNL     1     113.772 128.434 136.002  0.00  0.00    +0.000 A 
ATOM     11  C   UNL     1     113.561 127.100 136.468  0.00  0.00    +0.000 A 
ATOM     12  C   UNL     1     114.074 127.716 136.275  0.00  0.00    +0.000 A 
ENDROOT
BRANCH  11  14
ATOM     13  O   UNL     1     114.767 124.227 137.556  0.00  0.00    +0.000 OA
ATOM     14  C   UNL     1     113.862 126.382 136.740  0.00  0.00    +0.000 A 
ATOM     15  C   UNL     1     114.230 125.863 136.214  0.00  0.00    +0.000 A 
ATOM     16  C   UNL     1     113.796 126.182 137.538  0.00  0.00    +0.000 A 
ATOM     17  C   UNL     1     114.531 125.145 136.486  0.00  0.00    +0.000 A 
ATOM     18  C   UNL     1     114.098 125.464 137.810  0.00  0.00    +0.000 A 
ATOM     19  C   UNL     1     114.466 124.946 137.284  0.00  0.00    +0.000 A 
ENDBRANCH  11  14
BRANCH   4  20
ATOM     20  O   UNL     1     110.458 128.856 135.675  0.00  0.00    +0.000 OA
BRANCH  20  27
ATOM     21  O   UNL     1     110.026 128.904 137.036  0.00  0.00    +0.000 OA
ATOM     22  O   UNL     1     109.598 130.227 135.354  0.00  0.00    +0.000 OA
ATOM     23  C   UNL     1     109.166 129.956 137.477  0.00  0.00    +0.000 C 
ATOM     24  C   UNL     1     109.166 130.275 136.715  0.00  0.00    +0.000 C 
ATOM     25  C   UNL     1     109.596 129.271 137.637  0.00  0.00    +0.000 C 
ATOM     26  C   UNL     1     109.597 129.908 136.115  0.00  0.00    +0.000 C 
ATOM     27  C   UNL     1     110.027 129.222 136.276  0.00  0.00    +0.000 C 
BRANCH  25  29
ATOM     28  O   UNL     1     109.547 128.136 138.503  0.00  0.00    +0.000 OA
ATOM     29  C   UNL     1     109.595 128.953 138.398  0.00  0.00    +0.000 C 
ENDBRANCH  25  29
BRANCH  23  30
ATOM     30  O   UNL     1     108.735 130.324 138.077  0.00  0.00    +0.000 OA
BRANCH  30  32
ATOM     31  O   UNL     1     109.809 131.197 138.433  0.00  0.00    +0.000 OA
ATOM     32  C   UNL     1     109.124 130.787 138.639  0.00  0.00    +0.000 C 
ATOM     33  C   UNL     1     108.826 130.838 139.407  0.00  0.00    +0.000 C 
ENDBRANCH  30  32
ENDBRANCH  23  30
BRANCH  24  34
ATOM     34  O   UNL     1     108.737 130.961 136.554  0.00  0.00    +0.000 OA
BRANCH  34  36
ATOM     35  O   UNL     1     107.559 130.367 136.005  0.00  0.00    +0.000 OA
ATOM     36  C   UNL     1     108.142 130.950 135.983  0.00  0.00    +0.000 C 
ATOM     37  C   UNL     1     108.131 131.522 135.388  0.00  0.00    +0.000 C 
ENDBRANCH  34  36
ENDBRANCH  24  34
ENDBRANCH  20  27
ENDBRANCH   4  20
TORSDOF 8
ENDMDL
MODEL 9
REMARK VINA RESULT:      -8.9      8.589     10.317
REMARK  Name = 74977525
REMARK  8 active torsions:
REMARK  status: ('A' for Active; 'I' for Inactive)
REMARK    1  A    between atoms: O_2  and  C_13
REMARK    2  A    between atoms: O_2  and  C_21
REMARK    3  A    between atoms: O_3  and  C_14
REMARK    4  A    between atoms: O_3  and  C_20
REMARK    5  A    between atoms: O_4  and  C_17
REMARK    6  A    between atoms: O_4  and  C_19
REMARK    7  A    between atoms: C_15  and  C_18
REMARK    8  A    between atoms: C_30  and  C_32
REMARK                            x       y       z     vdW  Elec       q    Type
REMARK                         _______ _______ _______ _____ _____    ______ ____
ROOT
ATOM      1  O   UNL     1     111.761 130.460 136.748  0.00  0.00    +0.000 OA
ATOM      2  O   UNL     1     114.543 129.854 136.259  0.00  0.00    +0.000 OA
ATOM      3  O   UNL     1     114.146 131.112 136.844  0.00  0.00    +0.000 OA
ATOM      4  C   UNL     1     112.704 128.635 135.870  0.00  0.00    +0.000 A 
ATOM      5  C   UNL     1     112.105 129.179 136.157  0.00  0.00    +0.000 A 
ATOM      6  C   UNL     1     113.533 128.861 135.903  0.00  0.00    +0.000 A 
ATOM      7  C   UNL     1     112.341 129.942 136.474  0.00  0.00    +0.000 A 
ATOM      8  C   UNL     1     113.135 130.159 136.506  0.00  0.00    +0.000 A 
ATOM      9  C   UNL     1     113.750 129.628 136.223  0.00  0.00    +0.000 A 
ATOM     10  C   UNL     1     113.350 130.894 136.812  0.00  0.00    +0.000 A 
ATOM     11  C   UNL     1     111.975 131.196 137.054  0.00  0.00    +0.000 A 
ATOM     12  C   UNL     1     112.770 131.413 137.086  0.00  0.00    +0.000 A 
ENDROOT
BRANCH  11  14
ATOM     13  O   UNL     1     109.650 133.264 138.153  0.00  0.00    +0.000 OA
ATOM     14  C   UNL     1     111.394 131.713 137.328  0.00  0.00    +0.000 A 
ATOM     15  C   UNL     1     111.016 131.565 138.048  0.00  0.00    +0.000 A 
ATOM     16  C   UNL     1     111.190 132.378 136.885  0.00  0.00    +0.000 A 
ATOM     17  C   UNL     1     110.435 132.082 138.322  0.00  0.00    +0.000 A 
ATOM     18  C   UNL     1     110.609 132.895 137.160  0.00  0.00    +0.000 A 
ATOM     19  C   UNL     1     110.232 132.747 137.878  0.00  0.00    +0.000 A 
ENDBRANCH  11  14
BRANCH   4  20
ATOM     20  O   UNL     1     112.486 127.900 135.564  0.00  0.00    +0.000 OA
BRANCH  20  27
ATOM     21  O   UNL     1     112.492 127.133 136.770  0.00  0.00    +0.000 OA
ATOM     22  O   UNL     1     111.070 127.183 135.114  0.00  0.00    +0.000 OA
ATOM     23  C   UNL     1     111.433 126.211 137.035  0.00  0.00    +0.000 C 
ATOM     24  C   UNL     1     111.076 126.416 136.319  0.00  0.00    +0.000 C 
ATOM     25  C   UNL     1     112.141 126.570 137.260  0.00  0.00    +0.000 C 
ATOM     26  C   UNL     1     111.427 126.978 135.830  0.00  0.00    +0.000 C 
ATOM     27  C   UNL     1     112.136 127.337 136.055  0.00  0.00    +0.000 C 
BRANCH  25  29
ATOM     28  O   UNL     1     113.319 126.365 138.041  0.00  0.00    +0.000 OA
ATOM     29  C   UNL     1     112.497 126.366 137.975  0.00  0.00    +0.000 C 
ENDBRANCH  25  29
BRANCH  23  30
ATOM     30  O   UNL     1     111.081 125.649 137.525  0.00  0.00    +0.000 OA
BRANCH  30  32
ATOM     31  O   UNL     1     110.249 126.609 138.180  0.00  0.00    +0.000 OA
ATOM     32  C   UNL     1     110.653 125.890 138.189  0.00  0.00    +0.000 C 
ATOM     33  C   UNL     1     110.629 125.410 138.860  0.00  0.00    +0.000 C 
ENDBRANCH  30  32
ENDBRANCH  23  30
BRANCH  24  34
ATOM     34  O   UNL     1     110.368 126.057 136.094  0.00  0.00    +0.000 OA
BRANCH  34  36
ATOM     35  O   UNL     1     110.840 124.943 135.334  0.00  0.00    +0.000 OA
ATOM     36  C   UNL     1     110.339 125.593 135.412  0.00  0.00    +0.000 C 
ATOM     37  C   UNL     1     109.809 125.780 134.809  0.00  0.00    +0.000 C 
ENDBRANCH  34  36
ENDBRANCH  24  34
ENDBRANCH  20  27
ENDBRANCH   4  20
TORSDOF 8
ENDMDL
MODEL 10
REMARK VINA RESULT:      -8.9      8.847     10.787
REMARK  Name = 74977525
REMARK  8 active torsions:
REMARK  status: ('A' for Active; 'I' for Inactive)
REMARK    1  A    between atoms: O_2  and  C_13
REMARK    2  A    between atoms: O_2  and  C_21
REMARK    3  A    between atoms: O_3  and  C_14
REMARK    4  A    between atoms: O_3  and  C_20
REMARK    5  A    between atoms: O_4  and  C_17
REMARK    6  A    between atoms: O_4  and  C_19
REMARK    7  A    between atoms: C_15  and  C_18
REMARK    8  A    between atoms: C_30  and  C_32
REMARK                            x       y       z     vdW  Elec       q    Type
REMARK                         _______ _______ _______ _____ _____    ______ ____
ROOT
ATOM      1  O   UNL     1     113.304 127.611 137.275  0.00  0.00    +0.000 OA
ATOM      2  O   UNL     1     111.822 129.697 135.935  0.00  0.00    +0.000 OA
ATOM      3  O   UNL     1     111.749 128.326 135.488  0.00  0.00    +0.000 OA
ATOM      4  C   UNL     1     113.194 129.801 137.702  0.00  0.00    +0.000 A 
ATOM      5  C   UNL     1     113.413 128.973 137.766  0.00  0.00    +0.000 A 
ATOM      6  C   UNL     1     112.654 130.050 137.081  0.00  0.00    +0.000 A 
ATOM      7  C   UNL     1     113.090 128.405 137.209  0.00  0.00    +0.000 A 
ATOM      8  C   UNL     1     112.572 128.643 136.614  0.00  0.00    +0.000 A 
ATOM      9  C   UNL     1     112.341 129.467 136.533  0.00  0.00    +0.000 A 
ATOM     10  C   UNL     1     112.268 128.088 136.085  0.00  0.00    +0.000 A 
ATOM     11  C   UNL     1     113.000 127.055 136.747  0.00  0.00    +0.000 A 
ATOM     12  C   UNL     1     112.482 127.294 136.151  0.00  0.00    +0.000 A 
ENDROOT
BRANCH  11  14
ATOM     13  O   UNL     1     113.861 123.881 137.014  0.00  0.00    +0.000 OA
ATOM     14  C   UNL     1     113.215 126.262 136.814  0.00  0.00    +0.000 A 
ATOM     15  C   UNL     1     113.962 126.014 136.563  0.00  0.00    +0.000 A 
ATOM     16  C   UNL     1     112.684 125.715 137.131  0.00  0.00    +0.000 A 
ATOM     17  C   UNL     1     114.177 125.220 136.630  0.00  0.00    +0.000 A 
ATOM     18  C   UNL     1     112.900 124.922 137.198  0.00  0.00    +0.000 A 
ATOM     19  C   UNL     1     113.646 124.674 136.948  0.00  0.00    +0.000 A 
ENDBRANCH  11  14
BRANCH   4  20
ATOM     20  O   UNL     1     113.500 130.354 138.233  0.00  0.00    +0.000 OA
BRANCH  20  27
ATOM     21  O   UNL     1     112.543 130.213 139.284  0.00  0.00    +0.000 OA
ATOM     22  O   UNL     1     114.717 130.398 139.346  0.00  0.00    +0.000 OA
ATOM     23  C   UNL     1     112.976 130.175 140.645  0.00  0.00    +0.000 C 
ATOM     24  C   UNL     1     113.759 130.256 140.398  0.00  0.00    +0.000 C 
ATOM     25  C   UNL     1     112.367 130.154 140.088  0.00  0.00    +0.000 C 
ATOM     26  C   UNL     1     113.933 130.316 139.594  0.00  0.00    +0.000 C 
ATOM     27  C   UNL     1     113.325 130.295 139.037  0.00  0.00    +0.000 C 
BRANCH  25  29
ATOM     28  O   UNL     1     110.980 130.449 139.920  0.00  0.00    +0.000 OA
ATOM     29  C   UNL     1     111.585 130.072 140.335  0.00  0.00    +0.000 C 
ENDBRANCH  25  29
BRANCH  23  30
ATOM     30  O   UNL     1     112.802 130.115 141.449  0.00  0.00    +0.000 OA
BRANCH  30  32
ATOM     31  O   UNL     1     112.949 128.693 141.436  0.00  0.00    +0.000 OA
ATOM     32  C   UNL     1     112.644 129.377 141.783  0.00  0.00    +0.000 C 
ATOM     33  C   UNL     1     112.182 129.323 142.464  0.00  0.00    +0.000 C 
ENDBRANCH  30  32
ENDBRANCH  23  30
BRANCH  24  34
ATOM     34  O   UNL     1     114.368 130.278 140.955  0.00  0.00    +0.000 OA
BRANCH  34  36
ATOM     35  O   UNL     1     114.532 131.675 141.207  0.00  0.00    +0.000 OA
ATOM     36  C   UNL     1     114.854 130.943 141.008  0.00  0.00    +0.000 C 
ATOM     37  C   UNL     1     115.663 130.874 140.863  0.00  0.00    +0.000 C 
ENDBRANCH  34  36
ENDBRANCH  24  34
ENDBRANCH  20  27
ENDBRANCH   4  20
TORSDOF 8
ENDMDL
