MODEL 1
REMARK VINA RESULT:      -8.1      0.000      0.000
REMARK  Name = 13889020
REMARK  4 active torsions:
REMARK  status: ('A' for Active; 'I' for Inactive)
REMARK    1  A    between atoms: O_3  and  C_15
REMARK    2  A    between atoms: O_5  and  C_18
REMARK    3  A    between atoms: O_6  and  C_19
REMARK    4  A    between atoms: C_8  and  C_10
REMARK                            x       y       z     vdW  Elec       q    Type
REMARK                         _______ _______ _______ _____ _____    ______ ____
ROOT
ATOM      1  O   UNL     1     105.424 124.356 147.046  0.00  0.00    +0.000 OA
ATOM      2  O   UNL     1     103.811 125.956 148.165  0.00  0.00    +0.000 OA
ATOM      3  O   UNL     1     102.731 125.348 147.426  0.00  0.00    +0.000 OA
ATOM      4  C   UNL     1     105.724 124.931 147.611  0.00  0.00    +0.000 C 
ATOM      5  C   UNL     1     105.180 125.475 147.992  0.00  0.00    +0.000 C 
ATOM      6  C   UNL     1     104.060 124.857 147.236  0.00  0.00    +0.000 A 
ATOM      7  C   UNL     1     104.342 125.437 147.803  0.00  0.00    +0.000 C 
ATOM      8  C   UNL     1     104.584 124.334 146.870  0.00  0.00    +0.000 A 
ATOM      9  C   UNL     1     103.254 124.826 147.060  0.00  0.00    +0.000 A 
ATOM     10  C   UNL     1     104.301 123.781 146.328  0.00  0.00    +0.000 A 
ATOM     11  C   UNL     1     102.973 124.272 146.517  0.00  0.00    +0.000 A 
ATOM     12  C   UNL     1     103.496 123.749 146.151  0.00  0.00    +0.000 A 
ENDROOT
BRANCH   4  14
ATOM     13  O   UNL     1     106.760 125.722 146.599  0.00  0.00    +0.000 OA
ATOM     14  C   UNL     1     106.530 124.960 147.786  0.00  0.00    +0.000 A 
ATOM     15  C   UNL     1     106.818 124.594 148.467  0.00  0.00    +0.000 A 
ATOM     16  C   UNL     1     107.048 125.355 147.280  0.00  0.00    +0.000 A 
ATOM     17  C   UNL     1     107.624 124.623 148.641  0.00  0.00    +0.000 A 
ATOM     18  C   UNL     1     107.853 125.384 147.454  0.00  0.00    +0.000 A 
ATOM     19  C   UNL     1     108.142 125.018 148.135  0.00  0.00    +0.000 A 
BRANCH  15  20
ATOM     20  O   UNL     1     106.300 124.198 148.973  0.00  0.00    +0.000 OA
ATOM     21  C   UNL     1     106.596 123.768 149.611  0.00  0.00    +0.000 C 
ENDBRANCH  15  20
ENDBRANCH   4  14
BRANCH  11  22
ATOM     22  O   UNL     1     102.167 124.241 146.340  0.00  0.00    +0.000 OA
ATOM     23  C   UNL     1     101.650 123.844 146.845  0.00  0.00    +0.000 C 
ENDBRANCH  11  22
BRANCH  12  24
ATOM     24  O   UNL     1     103.214 123.196 145.608  0.00  0.00    +0.000 OA
ATOM     25  C   UNL     1     103.744 122.758 145.152  0.00  0.00    +0.000 C 
ENDBRANCH  12  24
TORSDOF 4
ENDMDL
MODEL 2
REMARK VINA RESULT:      -8.0      2.232      2.857
REMARK  Name = 13889020
REMARK  4 active torsions:
REMARK  status: ('A' for Active; 'I' for Inactive)
REMARK    1  A    between atoms: O_3  and  C_15
REMARK    2  A    between atoms: O_5  and  C_18
REMARK    3  A    between atoms: O_6  and  C_19
REMARK    4  A    between atoms: C_8  and  C_10
REMARK                            x       y       z     vdW  Elec       q    Type
REMARK                         _______ _______ _______ _____ _____    ______ ____
ROOT
ATOM      1  O   UNL     1     106.607 125.064 146.715  0.00  0.00    +0.000 OA
ATOM      2  O   UNL     1     106.614 127.592 146.588  0.00  0.00    +0.000 OA
ATOM      3  O   UNL     1     106.055 127.504 145.260  0.00  0.00    +0.000 OA
ATOM      4  C   UNL     1     106.898 125.518 147.384  0.00  0.00    +0.000 C 
ATOM      5  C   UNL     1     106.902 126.376 147.344  0.00  0.00    +0.000 C 
ATOM      6  C   UNL     1     106.327 126.297 145.977  0.00  0.00    +0.000 A 
ATOM      7  C   UNL     1     106.614 126.769 146.635  0.00  0.00    +0.000 C 
ATOM      8  C   UNL     1     106.323 125.473 146.016  0.00  0.00    +0.000 A 
ATOM      9  C   UNL     1     106.051 126.680 145.299  0.00  0.00    +0.000 A 
ATOM     10  C   UNL     1     106.045 125.032 145.377  0.00  0.00    +0.000 A 
ATOM     11  C   UNL     1     105.773 126.238 144.661  0.00  0.00    +0.000 A 
ATOM     12  C   UNL     1     105.770 125.414 144.700  0.00  0.00    +0.000 A 
ENDROOT
BRANCH   4  14
ATOM     13  O   UNL     1     108.508 125.197 147.554  0.00  0.00    +0.000 OA
ATOM     14  C   UNL     1     107.173 125.134 148.060  0.00  0.00    +0.000 A 
ATOM     15  C   UNL     1     106.643 124.910 148.652  0.00  0.00    +0.000 A 
ATOM     16  C   UNL     1     107.978 124.973 148.146  0.00  0.00    +0.000 A 
ATOM     17  C   UNL     1     106.918 124.525 149.328  0.00  0.00    +0.000 A 
ATOM     18  C   UNL     1     108.252 124.589 148.821  0.00  0.00    +0.000 A 
ATOM     19  C   UNL     1     107.723 124.364 149.413  0.00  0.00    +0.000 A 
BRANCH  15  20
ATOM     20  O   UNL     1     105.838 125.070 148.567  0.00  0.00    +0.000 OA
ATOM     21  C   UNL     1     105.308 124.842 149.156  0.00  0.00    +0.000 C 
ENDBRANCH  15  20
ENDBRANCH   4  14
BRANCH  11  22
ATOM     22  O   UNL     1     105.498 126.620 143.983  0.00  0.00    +0.000 OA
ATOM     23  C   UNL     1     106.032 126.879 143.411  0.00  0.00    +0.000 C 
ENDBRANCH  11  22
BRANCH  12  24
ATOM     24  O   UNL     1     105.491 124.972 144.061  0.00  0.00    +0.000 OA
ATOM     25  C   UNL     1     105.326 124.170 144.155  0.00  0.00    +0.000 C 
ENDBRANCH  12  24
TORSDOF 4
ENDMDL
MODEL 3
REMARK VINA RESULT:      -7.7     11.418     12.646
REMARK  Name = 13889020
REMARK  4 active torsions:
REMARK  status: ('A' for Active; 'I' for Inactive)
REMARK    1  A    between atoms: O_3  and  C_15
REMARK    2  A    between atoms: O_5  and  C_18
REMARK    3  A    between atoms: O_6  and  C_19
REMARK    4  A    between atoms: C_8  and  C_10
REMARK                            x       y       z     vdW  Elec       q    Type
REMARK                         _______ _______ _______ _____ _____    ______ ____
ROOT
ATOM      1  O   UNL     1     111.486 125.911 137.044  0.00  0.00    +0.000 OA
ATOM      2  O   UNL     1     110.372 125.536 134.802  0.00  0.00    +0.000 OA
ATOM      3  O   UNL     1     109.291 126.396 135.221  0.00  0.00    +0.000 OA
ATOM      4  C   UNL     1     111.867 125.403 136.464  0.00  0.00    +0.000 C 
ATOM      5  C   UNL     1     111.491 125.274 135.702  0.00  0.00    +0.000 C 
ATOM      6  C   UNL     1     110.374 126.158 136.123  0.00  0.00    +0.000 A 
ATOM      7  C   UNL     1     110.739 125.654 135.531  0.00  0.00    +0.000 C 
ATOM      8  C   UNL     1     110.735 126.282 136.855  0.00  0.00    +0.000 A 
ATOM      9  C   UNL     1     109.652 126.520 135.952  0.00  0.00    +0.000 A 
ATOM     10  C   UNL     1     110.374 126.768 137.415  0.00  0.00    +0.000 A 
ATOM     11  C   UNL     1     109.292 127.005 136.513  0.00  0.00    +0.000 A 
ATOM     12  C   UNL     1     109.653 127.129 137.245  0.00  0.00    +0.000 A 
ENDROOT
BRANCH   4  14
ATOM     13  O   UNL     1     113.277 126.233 136.247  0.00  0.00    +0.000 OA
ATOM     14  C   UNL     1     112.588 125.043 136.637  0.00  0.00    +0.000 A 
ATOM     15  C   UNL     1     112.605 124.268 136.919  0.00  0.00    +0.000 A 
ATOM     16  C   UNL     1     113.293 125.458 136.529  0.00  0.00    +0.000 A 
ATOM     17  C   UNL     1     113.327 123.908 137.092  0.00  0.00    +0.000 A 
ATOM     18  C   UNL     1     114.014 125.098 136.702  0.00  0.00    +0.000 A 
ATOM     19  C   UNL     1     114.032 124.322 136.984  0.00  0.00    +0.000 A 
BRANCH  15  20
ATOM     20  O   UNL     1     111.900 123.853 137.028  0.00  0.00    +0.000 OA
ATOM     21  C   UNL     1     111.918 123.078 137.309  0.00  0.00    +0.000 C 
ENDBRANCH  15  20
ENDBRANCH   4  14
BRANCH  11  22
ATOM     22  O   UNL     1     108.570 127.367 136.342  0.00  0.00    +0.000 OA
ATOM     23  C   UNL     1     108.549 128.042 135.868  0.00  0.00    +0.000 C 
ENDBRANCH  11  22
BRANCH  12  24
ATOM     24  O   UNL     1     109.291 127.615 137.805  0.00  0.00    +0.000 OA
ATOM     25  C   UNL     1     109.648 127.733 138.540  0.00  0.00    +0.000 C 
ENDBRANCH  12  24
TORSDOF 4
ENDMDL
MODEL 4
REMARK VINA RESULT:      -7.7      1.180      2.312
REMARK  Name = 13889020
REMARK  4 active torsions:
REMARK  status: ('A' for Active; 'I' for Inactive)
REMARK    1  A    between atoms: O_3  and  C_15
REMARK    2  A    between atoms: O_5  and  C_18
REMARK    3  A    between atoms: O_6  and  C_19
REMARK    4  A    between atoms: C_8  and  C_10
REMARK                            x       y       z     vdW  Elec       q    Type
REMARK                         _______ _______ _______ _____ _____    ______ ____
ROOT
ATOM      1  O   UNL     1     103.947 124.320 147.735  0.00  0.00    +0.000 OA
ATOM      2  O   UNL     1     104.218 124.157 145.223  0.00  0.00    +0.000 OA
ATOM      3  O   UNL     1     102.979 123.419 145.160  0.00  0.00    +0.000 OA
ATOM      4  C   UNL     1     104.634 124.676 147.361  0.00  0.00    +0.000 C 
ATOM      5  C   UNL     1     104.729 124.623 146.509  0.00  0.00    +0.000 C 
ATOM      6  C   UNL     1     103.455 123.863 146.433  0.00  0.00    +0.000 A 
ATOM      7  C   UNL     1     104.135 124.213 146.042  0.00  0.00    +0.000 C 
ATOM      8  C   UNL     1     103.364 123.915 147.251  0.00  0.00    +0.000 A 
ATOM      9  C   UNL     1     102.888 123.471 145.978  0.00  0.00    +0.000 A 
ATOM     10  C   UNL     1     102.706 123.574 147.615  0.00  0.00    +0.000 A 
ATOM     11  C   UNL     1     102.231 123.131 146.343  0.00  0.00    +0.000 A 
ATOM     12  C   UNL     1     102.140 123.183 147.162  0.00  0.00    +0.000 A 
ENDROOT
BRANCH   4  14
ATOM     13  O   UNL     1     105.968 123.866 147.895  0.00  0.00    +0.000 OA
ATOM     14  C   UNL     1     105.199 125.068 147.818  0.00  0.00    +0.000 A 
ATOM     15  C   UNL     1     105.097 125.864 148.007  0.00  0.00    +0.000 A 
ATOM     16  C   UNL     1     105.866 124.662 148.085  0.00  0.00    +0.000 A 
ATOM     17  C   UNL     1     105.663 126.255 148.464  0.00  0.00    +0.000 A 
ATOM     18  C   UNL     1     106.431 125.053 148.541  0.00  0.00    +0.000 A 
ATOM     19  C   UNL     1     106.330 125.849 148.731  0.00  0.00    +0.000 A 
BRANCH  15  20
ATOM     20  O   UNL     1     104.430 126.269 147.740  0.00  0.00    +0.000 OA
ATOM     21  C   UNL     1     104.323 127.062 147.940  0.00  0.00    +0.000 C 
ENDBRANCH  15  20
ENDBRANCH   4  14
BRANCH  11  22
ATOM     22  O   UNL     1     101.664 122.739 145.889  0.00  0.00    +0.000 OA
ATOM     23  C   UNL     1     101.084 123.171 145.491  0.00  0.00    +0.000 C 
ENDBRANCH  11  22
BRANCH  12  24
ATOM     24  O   UNL     1     101.482 122.842 147.525  0.00  0.00    +0.000 OA
ATOM     25  C   UNL     1     101.470 122.742 148.344  0.00  0.00    +0.000 C 
ENDBRANCH  12  24
TORSDOF 4
ENDMDL
MODEL 5
REMARK VINA RESULT:      -7.6     12.646     14.072
REMARK  Name = 13889020
REMARK  4 active torsions:
REMARK  status: ('A' for Active; 'I' for Inactive)
REMARK    1  A    between atoms: O_3  and  C_15
REMARK    2  A    between atoms: O_5  and  C_18
REMARK    3  A    between atoms: O_6  and  C_19
REMARK    4  A    between atoms: C_8  and  C_10
REMARK                            x       y       z     vdW  Elec       q    Type
REMARK                         _______ _______ _______ _____ _____    ______ ____
ROOT
ATOM      1  O   UNL     1     113.517 126.952 136.420  0.00  0.00    +0.000 OA
ATOM      2  O   UNL     1     112.570 127.975 138.533  0.00  0.00    +0.000 OA
ATOM      3  O   UNL     1     112.879 129.285 138.011  0.00  0.00    +0.000 OA
ATOM      4  C   UNL     1     113.203 126.437 137.033  0.00  0.00    +0.000 C 
ATOM      5  C   UNL     1     112.881 126.782 137.751  0.00  0.00    +0.000 C 
ATOM      6  C   UNL     1     113.195 128.134 137.223  0.00  0.00    +0.000 A 
ATOM      7  C   UNL     1     112.877 127.636 137.847  0.00  0.00    +0.000 C 
ATOM      8  C   UNL     1     113.504 127.803 136.534  0.00  0.00    +0.000 A 
ATOM      9  C   UNL     1     113.188 128.954 137.321  0.00  0.00    +0.000 A 
ATOM     10  C   UNL     1     113.807 128.292 135.942  0.00  0.00    +0.000 A 
ATOM     11  C   UNL     1     113.491 129.442 136.729  0.00  0.00    +0.000 A 
ATOM     12  C   UNL     1     113.800 129.111 136.039  0.00  0.00    +0.000 A 
ENDROOT
BRANCH   4  14
ATOM     13  O   UNL     1     114.494 125.555 137.559  0.00  0.00    +0.000 OA
ATOM     14  C   UNL     1     113.211 125.619 136.933  0.00  0.00    +0.000 A 
ATOM     15  C   UNL     1     112.574 125.241 136.570  0.00  0.00    +0.000 A 
ATOM     16  C   UNL     1     113.857 125.177 137.196  0.00  0.00    +0.000 A 
ATOM     17  C   UNL     1     112.583 124.422 136.470  0.00  0.00    +0.000 A 
ATOM     18  C   UNL     1     113.865 124.359 137.096  0.00  0.00    +0.000 A 
ATOM     19  C   UNL     1     113.228 123.980 136.733  0.00  0.00    +0.000 A 
BRANCH  15  20
ATOM     20  O   UNL     1     111.928 125.683 136.307  0.00  0.00    +0.000 OA
ATOM     21  C   UNL     1     111.289 125.304 135.949  0.00  0.00    +0.000 C 
ENDBRANCH  15  20
ENDBRANCH   4  14
BRANCH  11  22
ATOM     22  O   UNL     1     113.484 130.261 136.827  0.00  0.00    +0.000 OA
ATOM     23  C   UNL     1     114.072 130.628 137.274  0.00  0.00    +0.000 C 
ENDBRANCH  11  22
BRANCH  12  24
ATOM     24  O   UNL     1     114.103 129.600 135.447  0.00  0.00    +0.000 OA
ATOM     25  C   UNL     1     114.282 129.287 134.706  0.00  0.00    +0.000 C 
ENDBRANCH  12  24
TORSDOF 4
ENDMDL
MODEL 6
REMARK VINA RESULT:      -7.6     11.634     12.814
REMARK  Name = 13889020
REMARK  4 active torsions:
REMARK  status: ('A' for Active; 'I' for Inactive)
REMARK    1  A    between atoms: O_3  and  C_15
REMARK    2  A    between atoms: O_5  and  C_18
REMARK    3  A    between atoms: O_6  and  C_19
REMARK    4  A    between atoms: C_8  and  C_10
REMARK                            x       y       z     vdW  Elec       q    Type
REMARK                         _______ _______ _______ _____ _____    ______ ____
ROOT
ATOM      1  O   UNL     1     110.641 127.158 136.116  0.00  0.00    +0.000 OA
ATOM      2  O   UNL     1     108.113 127.010 136.115  0.00  0.00    +0.000 OA
ATOM      3  O   UNL     1     108.054 128.408 135.759  0.00  0.00    +0.000 OA
ATOM      4  C   UNL     1     110.263 126.409 136.301  0.00  0.00    +0.000 C 
ATOM      5  C   UNL     1     109.405 126.355 136.301  0.00  0.00    +0.000 C 
ATOM      6  C   UNL     1     109.333 127.793 135.935  0.00  0.00    +0.000 A 
ATOM      7  C   UNL     1     108.937 127.053 136.117  0.00  0.00    +0.000 C 
ATOM      8  C   UNL     1     110.156 127.844 135.934  0.00  0.00    +0.000 A 
ATOM      9  C   UNL     1     108.878 128.459 135.758  0.00  0.00    +0.000 A 
ATOM     10  C   UNL     1     110.525 128.561 135.757  0.00  0.00    +0.000 A 
ATOM     11  C   UNL     1     109.247 129.175 135.582  0.00  0.00    +0.000 A 
ATOM     12  C   UNL     1     110.071 129.226 135.581  0.00  0.00    +0.000 A 
ENDROOT
BRANCH   4  14
ATOM     13  O   UNL     1     110.745 125.395 135.091  0.00  0.00    +0.000 OA
ATOM     14  C   UNL     1     110.720 125.745 136.477  0.00  0.00    +0.000 A 
ATOM     15  C   UNL     1     110.936 125.587 137.257  0.00  0.00    +0.000 A 
ATOM     16  C   UNL     1     110.961 125.238 135.872  0.00  0.00    +0.000 A 
ATOM     17  C   UNL     1     111.393 124.923 137.432  0.00  0.00    +0.000 A 
ATOM     18  C   UNL     1     111.417 124.575 136.047  0.00  0.00    +0.000 A 
ATOM     19  C   UNL     1     111.634 124.416 136.828  0.00  0.00    +0.000 A 
BRANCH  15  20
ATOM     20  O   UNL     1     110.695 126.094 137.862  0.00  0.00    +0.000 OA
ATOM     21  C   UNL     1     110.909 125.935 138.642  0.00  0.00    +0.000 C 
ENDBRANCH  15  20
ENDBRANCH   4  14
BRANCH  11  22
ATOM     22  O   UNL     1     108.792 129.841 135.405  0.00  0.00    +0.000 OA
ATOM     23  C   UNL     1     108.477 130.298 136.016  0.00  0.00    +0.000 C 
ENDBRANCH  11  22
BRANCH  12  24
ATOM     24  O   UNL     1     110.439 129.943 135.404  0.00  0.00    +0.000 OA
ATOM     25  C   UNL     1     111.261 129.980 135.344  0.00  0.00    +0.000 C 
ENDBRANCH  12  24
TORSDOF 4
ENDMDL
MODEL 7
REMARK VINA RESULT:      -7.4     12.590     14.216
REMARK  Name = 13889020
REMARK  4 active torsions:
REMARK  status: ('A' for Active; 'I' for Inactive)
REMARK    1  A    between atoms: O_3  and  C_15
REMARK    2  A    between atoms: O_5  and  C_18
REMARK    3  A    between atoms: O_6  and  C_19
REMARK    4  A    between atoms: C_8  and  C_10
REMARK                            x       y       z     vdW  Elec       q    Type
REMARK                         _______ _______ _______ _____ _____    ______ ____
ROOT
ATOM      1  O   UNL     1     113.832 127.737 136.529  0.00  0.00    +0.000 OA
ATOM      2  O   UNL     1     111.474 127.565 135.624  0.00  0.00    +0.000 OA
ATOM      3  O   UNL     1     111.463 126.167 135.979  0.00  0.00    +0.000 OA
ATOM      4  C   UNL     1     113.456 128.436 136.198  0.00  0.00    +0.000 C 
ATOM      5  C   UNL     1     112.656 128.380 135.890  0.00  0.00    +0.000 C 
ATOM      6  C   UNL     1     112.634 126.940 136.252  0.00  0.00    +0.000 A 
ATOM      7  C   UNL     1     112.242 127.627 135.917  0.00  0.00    +0.000 C 
ATOM      8  C   UNL     1     113.403 126.993 136.548  0.00  0.00    +0.000 A 
ATOM      9  C   UNL     1     112.232 126.220 136.275  0.00  0.00    +0.000 A 
ATOM     10  C   UNL     1     113.768 126.326 136.867  0.00  0.00    +0.000 A 
ATOM     11  C   UNL     1     112.598 125.553 136.594  0.00  0.00    +0.000 A 
ATOM     12  C   UNL     1     113.367 125.606 136.890  0.00  0.00    +0.000 A 
ENDROOT
BRANCH   4  14
ATOM     13  O   UNL     1     114.398 128.813 134.897  0.00  0.00    +0.000 OA
ATOM     14  C   UNL     1     113.860 129.154 136.176  0.00  0.00    +0.000 A 
ATOM     15  C   UNL     1     113.794 129.685 136.805  0.00  0.00    +0.000 A 
ATOM     16  C   UNL     1     114.331 129.343 135.525  0.00  0.00    +0.000 A 
ATOM     17  C   UNL     1     114.199 130.404 136.782  0.00  0.00    +0.000 A 
ATOM     18  C   UNL     1     114.735 130.061 135.503  0.00  0.00    +0.000 A 
ATOM     19  C   UNL     1     114.670 130.592 136.131  0.00  0.00    +0.000 A 
BRANCH  15  20
ATOM     20  O   UNL     1     113.323 129.496 137.455  0.00  0.00    +0.000 OA
ATOM     21  C   UNL     1     113.270 130.020 138.090  0.00  0.00    +0.000 C 
ENDBRANCH  15  20
ENDBRANCH   4  14
BRANCH  11  22
ATOM     22  O   UNL     1     112.196 124.833 136.618  0.00  0.00    +0.000 OA
ATOM     23  C   UNL     1     111.655 124.683 137.222  0.00  0.00    +0.000 C 
ENDBRANCH  11  22
BRANCH  12  24
ATOM     24  O   UNL     1     113.732 124.939 137.209  0.00  0.00    +0.000 OA
ATOM     25  C   UNL     1     114.549 124.933 137.325  0.00  0.00    +0.000 C 
ENDBRANCH  12  24
TORSDOF 4
ENDMDL
MODEL 8
REMARK VINA RESULT:      -7.4     11.532     12.782
REMARK  Name = 13889020
REMARK  4 active torsions:
REMARK  status: ('A' for Active; 'I' for Inactive)
REMARK    1  A    between atoms: O_3  and  C_15
REMARK    2  A    between atoms: O_5  and  C_18
REMARK    3  A    between atoms: O_6  and  C_19
REMARK    4  A    between atoms: C_8  and  C_10
REMARK                            x       y       z     vdW  Elec       q    Type
REMARK                         _______ _______ _______ _____ _____    ______ ____
ROOT
ATOM      1  O   UNL     1     113.183 126.006 138.573  0.00  0.00    +0.000 OA
ATOM      2  O   UNL     1     112.292 128.103 137.470  0.00  0.00    +0.000 OA
ATOM      3  O   UNL     1     112.750 128.867 138.605  0.00  0.00    +0.000 OA
ATOM      4  C   UNL     1     112.802 125.948 137.805  0.00  0.00    +0.000 C 
ATOM      5  C   UNL     1     112.498 126.658 137.428  0.00  0.00    +0.000 C 
ATOM      6  C   UNL     1     112.965 127.454 138.592  0.00  0.00    +0.000 A 
ATOM      7  C   UNL     1     112.581 127.416 137.825  0.00  0.00    +0.000 C 
ATOM      8  C   UNL     1     113.256 126.772 138.954  0.00  0.00    +0.000 A 
ATOM      9  C   UNL     1     113.041 128.186 138.967  0.00  0.00    +0.000 A 
ATOM     10  C   UNL     1     113.624 126.822 139.691  0.00  0.00    +0.000 A 
ATOM     11  C   UNL     1     113.409 128.234 139.704  0.00  0.00    +0.000 A 
ATOM     12  C   UNL     1     113.700 127.552 140.066  0.00  0.00    +0.000 A 
ENDROOT
BRANCH   4  14
ATOM     13  O   UNL     1     111.425 125.060 138.000  0.00  0.00    +0.000 OA
ATOM     14  C   UNL     1     112.727 125.216 137.432  0.00  0.00    +0.000 A 
ATOM     15  C   UNL     1     113.341 124.928 136.962  0.00  0.00    +0.000 A 
ATOM     16  C   UNL     1     112.038 124.772 137.529  0.00  0.00    +0.000 A 
ATOM     17  C   UNL     1     113.265 124.195 136.589  0.00  0.00    +0.000 A 
ATOM     18  C   UNL     1     111.963 124.040 137.157  0.00  0.00    +0.000 A 
ATOM     19  C   UNL     1     112.577 123.751 136.686  0.00  0.00    +0.000 A 
BRANCH  15  20
ATOM     20  O   UNL     1     114.029 125.372 136.865  0.00  0.00    +0.000 OA
ATOM     21  C   UNL     1     114.649 125.076 136.408  0.00  0.00    +0.000 C 
ENDBRANCH  15  20
ENDBRANCH   4  14
BRANCH  11  22
ATOM     22  O   UNL     1     113.485 128.965 140.079  0.00  0.00    +0.000 OA
ATOM     23  C   UNL     1     112.853 129.275 140.510  0.00  0.00    +0.000 C 
ENDBRANCH  11  22
BRANCH  12  24
ATOM     24  O   UNL     1     114.067 127.602 140.803  0.00  0.00    +0.000 OA
ATOM     25  C   UNL     1     114.636 127.044 141.019  0.00  0.00    +0.000 C 
ENDBRANCH  12  24
TORSDOF 4
ENDMDL
