MODEL 1
REMARK VINA RESULT:     -10.8      0.000      0.000
REMARK  Name = 44259480
REMARK  11 active torsions:
REMARK  status: ('A' for Active; 'I' for Inactive)
REMARK    1  A    between atoms: O_4  and  C_36
REMARK    2  A    between atoms: O_4  and  C_42
REMARK    3  A    between atoms: O_5  and  C_38
REMARK    4  A    between atoms: O_5  and  C_43
REMARK    5  A    between atoms: O_8  and  C_37
REMARK    6  A    between atoms: O_8  and  C_45
REMARK    7  A    between atoms: O_23  and  C_56
REMARK    8  A    between atoms: C_27  and  C_39
REMARK    9  A    between atoms: C_34  and  C_40
REMARK   10  A    between atoms: C_35  and  C_41
REMARK   11  A    between atoms: C_44  and  C_48
REMARK                            x       y       z     vdW  Elec       q    Type
REMARK                         _______ _______ _______ _____ _____    ______ ____
ROOT
ATOM      1  O   UNL     1     112.757 128.373 138.248  0.00  0.00    +0.000 OA
ATOM      2  O   UNL     1     112.086 126.030 138.684  0.00  0.00    +0.000 OA
ATOM      3  O   UNL     1     112.474 126.147 140.069  0.00  0.00    +0.000 OA
ATOM      4  C   UNL     1     112.225 127.130 137.783  0.00  0.00    +0.000 A 
ATOM      5  C   UNL     1     113.252 128.218 140.421  0.00  0.00    +0.000 A 
ATOM      6  C   UNL     1     112.449 127.911 137.637  0.00  0.00    +0.000 A 
ATOM      7  C   UNL     1     112.617 127.273 139.149  0.00  0.00    +0.000 A 
ATOM      8  C   UNL     1     112.310 126.811 138.539  0.00  0.00    +0.000 A 
ATOM      9  C   UNL     1     112.840 128.053 139.004  0.00  0.00    +0.000 A 
ATOM     10  C   UNL     1     113.162 128.544 139.631  0.00  0.00    +0.000 A 
ATOM     11  C   UNL     1     113.019 127.404 140.573  0.00  0.00    +0.000 A 
ATOM     12  C   UNL     1     112.700 126.929 139.933  0.00  0.00    +0.000 A 
ENDROOT
BRANCH   6  15
ATOM     13  O   UNL     1     112.109 129.185 134.612  0.00  0.00    +0.000 OA
ATOM     14  C   UNL     1     111.528 128.713 135.829  0.00  0.00    +0.000 A 
ATOM     15  C   UNL     1     112.365 128.230 136.881  0.00  0.00    +0.000 A 
ATOM     16  C   UNL     1     111.612 128.395 136.585  0.00  0.00    +0.000 A 
ATOM     17  C   UNL     1     112.195 128.867 135.368  0.00  0.00    +0.000 A 
ATOM     18  C   UNL     1     113.032 128.384 136.421  0.00  0.00    +0.000 A 
ATOM     19  C   UNL     1     112.946 128.702 135.664  0.00  0.00    +0.000 A 
BRANCH  19  20
ATOM     20  O   UNL     1     113.614 128.856 135.204  0.00  0.00    +0.000 OA
ATOM     21  C   UNL     1     114.319 129.090 135.565  0.00  0.00    +0.000 C 
ENDBRANCH  19  20
BRANCH  14  22
ATOM     22  O   UNL     1     110.775 128.878 135.532  0.00  0.00    +0.000 OA
BRANCH  22  31
ATOM     23  O   UNL     1     110.503 130.053 136.298  0.00  0.00    +0.000 OA
ATOM     24  O   UNL     1     108.172 129.294 136.637  0.00  0.00    +0.000 OA
ATOM     25  O   UNL     1     108.677 130.723 137.290  0.00  0.00    +0.000 OA
ATOM     26  O   UNL     1     109.221 128.372 135.758  0.00  0.00    +0.000 OA
ATOM     27  C   UNL     1     108.949 129.546 136.524  0.00  0.00    +0.000 C 
ATOM     28  C   UNL     1     109.202 130.261 136.850  0.00  0.00    +0.000 C 
ATOM     29  C   UNL     1     109.473 129.085 136.084  0.00  0.00    +0.000 C 
ATOM     30  C   UNL     1     109.979 130.514 136.737  0.00  0.00    +0.000 C 
ATOM     31  C   UNL     1     110.250 129.339 135.972  0.00  0.00    +0.000 C 
BRANCH  30  33
ATOM     32  O   UNL     1     110.666 131.760 136.606  0.00  0.00    +0.000 OA
ATOM     33  C   UNL     1     110.231 131.229 137.064  0.00  0.00    +0.000 C 
ENDBRANCH  30  33
ENDBRANCH  22  31
ENDBRANCH  14  22
ENDBRANCH   6  15
BRANCH   4  34
ATOM     34  O   UNL     1     111.918 126.668 137.172  0.00  0.00    +0.000 OA
BRANCH  34  43
ATOM     35  O   UNL     1     113.106 125.895 136.995  0.00  0.00    +0.000 OA
ATOM     36  O   UNL     1     111.740 123.954 136.295  0.00  0.00    +0.000 OA
ATOM     37  O   UNL     1     113.384 123.828 136.352  0.00  0.00    +0.000 OA
ATOM     38  O   UNL     1     111.007 125.374 136.705  0.00  0.00    +0.000 OA
ATOM     39  C   UNL     1     112.195 124.601 136.528  0.00  0.00    +0.000 C 
ATOM     40  C   UNL     1     113.017 124.538 136.557  0.00  0.00    +0.000 C 
ATOM     41  C   UNL     1     111.829 125.312 136.733  0.00  0.00    +0.000 C 
ATOM     42  C   UNL     1     113.473 125.185 136.791  0.00  0.00    +0.000 C 
ATOM     43  C   UNL     1     112.284 125.959 136.967  0.00  0.00    +0.000 C 
BRANCH  42  45
ATOM     44  O   UNL     1     114.764 125.616 136.355  0.00  0.00    +0.000 OA
ATOM     45  C   UNL     1     114.295 125.121 136.819  0.00  0.00    +0.000 C 
ENDBRANCH  42  45
ENDBRANCH  34  43
ENDBRANCH   4  34
BRANCH   5  46
ATOM     46  O   UNL     1     113.560 128.682 141.030  0.00  0.00    +0.000 OA
BRANCH  46  55
ATOM     47  O   UNL     1     112.379 128.889 141.808  0.00  0.00    +0.000 OA
ATOM     48  O   UNL     1     112.946 131.287 142.032  0.00  0.00    +0.000 OA
ATOM     49  O   UNL     1     111.576 130.695 142.735  0.00  0.00    +0.000 OA
ATOM     50  O   UNL     1     113.939 130.281 141.179  0.00  0.00    +0.000 OA
ATOM     51  C   UNL     1     112.757 130.488 141.957  0.00  0.00    +0.000 C 
ATOM     52  C   UNL     1     112.072 130.191 142.309  0.00  0.00    +0.000 C 
ATOM     53  C   UNL     1     113.254 129.985 141.531  0.00  0.00    +0.000 C 
ATOM     54  C   UNL     1     111.884 129.392 142.234  0.00  0.00    +0.000 C 
ATOM     55  C   UNL     1     113.064 129.185 141.456  0.00  0.00    +0.000 C 
BRANCH  54  57
ATOM     56  O   UNL     1     111.242 128.438 143.083  0.00  0.00    +0.000 OA
ATOM     57  C   UNL     1     111.199 129.096 142.585  0.00  0.00    +0.000 C 
ENDBRANCH  54  57
ENDBRANCH  46  55
ENDBRANCH   5  46
TORSDOF 11
ENDMDL
MODEL 2
REMARK VINA RESULT:     -10.6      1.384      5.126
REMARK  Name = 44259480
REMARK  11 active torsions:
REMARK  status: ('A' for Active; 'I' for Inactive)
REMARK    1  A    between atoms: O_4  and  C_36
REMARK    2  A    between atoms: O_4  and  C_42
REMARK    3  A    between atoms: O_5  and  C_38
REMARK    4  A    between atoms: O_5  and  C_43
REMARK    5  A    between atoms: O_8  and  C_37
REMARK    6  A    between atoms: O_8  and  C_45
REMARK    7  A    between atoms: O_23  and  C_56
REMARK    8  A    between atoms: C_27  and  C_39
REMARK    9  A    between atoms: C_34  and  C_40
REMARK   10  A    between atoms: C_35  and  C_41
REMARK   11  A    between atoms: C_44  and  C_48
REMARK                            x       y       z     vdW  Elec       q    Type
REMARK                         _______ _______ _______ _____ _____    ______ ____
ROOT
ATOM      1  O   UNL     1     112.688 128.633 138.327  0.00  0.00    +0.000 OA
ATOM      2  O   UNL     1     114.169 128.696 140.310  0.00  0.00    +0.000 OA
ATOM      3  O   UNL     1     113.923 127.298 140.574  0.00  0.00    +0.000 OA
ATOM      4  C   UNL     1     113.559 129.357 139.200  0.00  0.00    +0.000 A 
ATOM      5  C   UNL     1     112.523 126.512 139.011  0.00  0.00    +0.000 A 
ATOM      6  C   UNL     1     113.065 129.336 138.539  0.00  0.00    +0.000 A 
ATOM      7  C   UNL     1     113.298 127.972 139.438  0.00  0.00    +0.000 A 
ATOM      8  C   UNL     1     113.675 128.675 139.649  0.00  0.00    +0.000 A 
ATOM      9  C   UNL     1     112.805 127.952 138.777  0.00  0.00    +0.000 A 
ATOM     10  C   UNL     1     112.406 127.226 138.547  0.00  0.00    +0.000 A 
ATOM     11  C   UNL     1     113.038 126.534 139.700  0.00  0.00    +0.000 A 
ATOM     12  C   UNL     1     113.427 127.268 139.914  0.00  0.00    +0.000 A 
ENDROOT
BRANCH   6  15
ATOM     13  O   UNL     1     112.599 132.066 136.744  0.00  0.00    +0.000 OA
ATOM     14  C   UNL     1     112.139 131.139 137.730  0.00  0.00    +0.000 A 
ATOM     15  C   UNL     1     112.949 130.018 138.090  0.00  0.00    +0.000 A 
ATOM     16  C   UNL     1     112.255 130.457 138.178  0.00  0.00    +0.000 A 
ATOM     17  C   UNL     1     112.716 131.383 137.192  0.00  0.00    +0.000 A 
ATOM     18  C   UNL     1     113.526 130.262 137.553  0.00  0.00    +0.000 A 
ATOM     19  C   UNL     1     113.409 130.945 137.104  0.00  0.00    +0.000 A 
BRANCH  19  20
ATOM     20  O   UNL     1     113.985 131.189 136.567  0.00  0.00    +0.000 OA
ATOM     21  C   UNL     1     114.359 130.635 136.082  0.00  0.00    +0.000 C 
ENDBRANCH  19  20
BRANCH  14  22
ATOM     22  O   UNL     1     111.445 131.578 137.818  0.00  0.00    +0.000 OA
BRANCH  22  31
ATOM     23  O   UNL     1     110.574 130.723 137.077  0.00  0.00    +0.000 OA
ATOM     24  O   UNL     1     108.787 131.096 138.749  0.00  0.00    +0.000 OA
ATOM     25  O   UNL     1     108.510 130.116 137.450  0.00  0.00    +0.000 OA
ATOM     26  O   UNL     1     110.254 131.827 138.933  0.00  0.00    +0.000 OA
ATOM     27  C   UNL     1     109.383 130.972 138.192  0.00  0.00    +0.000 C 
ATOM     28  C   UNL     1     109.244 130.481 137.542  0.00  0.00    +0.000 C 
ATOM     29  C   UNL     1     110.116 131.337 138.284  0.00  0.00    +0.000 C 
ATOM     30  C   UNL     1     109.840 130.357 136.985  0.00  0.00    +0.000 C 
ATOM     31  C   UNL     1     110.712 131.212 137.726  0.00  0.00    +0.000 C 
BRANCH  30  33
ATOM     32  O   UNL     1     109.940 130.104 135.583  0.00  0.00    +0.000 OA
ATOM     33  C   UNL     1     109.701 129.867 136.336  0.00  0.00    +0.000 C 
ENDBRANCH  30  33
ENDBRANCH  22  31
ENDBRANCH  14  22
ENDBRANCH   6  15
BRANCH   4  34
ATOM     34  O   UNL     1     113.936 130.060 139.412  0.00  0.00    +0.000 OA
BRANCH  34  43
ATOM     35  O   UNL     1     113.089 130.292 140.539  0.00  0.00    +0.000 OA
ATOM     36  O   UNL     1     114.919 131.527 141.658  0.00  0.00    +0.000 OA
ATOM     37  O   UNL     1     113.462 131.348 142.412  0.00  0.00    +0.000 OA
ATOM     38  O   UNL     1     115.156 130.883 140.158  0.00  0.00    +0.000 OA
ATOM     39  C   UNL     1     114.309 131.116 141.285  0.00  0.00    +0.000 C 
ATOM     40  C   UNL     1     113.581 131.026 141.661  0.00  0.00    +0.000 C 
ATOM     41  C   UNL     1     114.427 130.793 140.534  0.00  0.00    +0.000 C 
ATOM     42  C   UNL     1     112.971 130.614 141.288  0.00  0.00    +0.000 C 
ATOM     43  C   UNL     1     113.818 130.381 140.161  0.00  0.00    +0.000 C 
BRANCH  42  45
ATOM     44  O   UNL     1     111.587 130.952 141.405  0.00  0.00    +0.000 OA
ATOM     45  C   UNL     1     112.242 130.525 141.666  0.00  0.00    +0.000 C 
ENDBRANCH  42  45
ENDBRANCH  34  43
ENDBRANCH   4  34
BRANCH   5  46
ATOM     46  O   UNL     1     112.145 125.811 138.797  0.00  0.00    +0.000 OA
BRANCH  46  55
ATOM     47  O   UNL     1     113.207 125.351 137.959  0.00  0.00    +0.000 OA
ATOM     48  O   UNL     1     111.566 124.193 136.513  0.00  0.00    +0.000 OA
ATOM     49  O   UNL     1     113.175 124.119 136.157  0.00  0.00    +0.000 OA
ATOM     50  O   UNL     1     111.050 125.039 137.833  0.00  0.00    +0.000 OA
ATOM     51  C   UNL     1     112.113 124.579 136.995  0.00  0.00    +0.000 C 
ATOM     52  C   UNL     1     112.918 124.542 136.817  0.00  0.00    +0.000 C 
ATOM     53  C   UNL     1     111.855 125.002 137.655  0.00  0.00    +0.000 C 
ATOM     54  C   UNL     1     113.464 124.928 137.299  0.00  0.00    +0.000 C 
ATOM     55  C   UNL     1     112.402 125.388 138.137  0.00  0.00    +0.000 C 
BRANCH  54  57
ATOM     56  O   UNL     1     114.803 124.604 137.683  0.00  0.00    +0.000 OA
ATOM     57  C   UNL     1     114.269 124.891 137.121  0.00  0.00    +0.000 C 
ENDBRANCH  54  57
ENDBRANCH  46  55
ENDBRANCH   5  46
TORSDOF 11
ENDMDL
MODEL 3
REMARK VINA RESULT:     -10.5      0.889      1.690
REMARK  Name = 44259480
REMARK  11 active torsions:
REMARK  status: ('A' for Active; 'I' for Inactive)
REMARK    1  A    between atoms: O_4  and  C_36
REMARK    2  A    between atoms: O_4  and  C_42
REMARK    3  A    between atoms: O_5  and  C_38
REMARK    4  A    between atoms: O_5  and  C_43
REMARK    5  A    between atoms: O_8  and  C_37
REMARK    6  A    between atoms: O_8  and  C_45
REMARK    7  A    between atoms: O_23  and  C_56
REMARK    8  A    between atoms: C_27  and  C_39
REMARK    9  A    between atoms: C_34  and  C_40
REMARK   10  A    between atoms: C_35  and  C_41
REMARK   11  A    between atoms: C_44  and  C_48
REMARK                            x       y       z     vdW  Elec       q    Type
REMARK                         _______ _______ _______ _____ _____    ______ ____
ROOT
ATOM      1  O   UNL     1     111.753 128.238 138.215  0.00  0.00    +0.000 OA
ATOM      2  O   UNL     1     113.136 126.232 138.654  0.00  0.00    +0.000 OA
ATOM      3  O   UNL     1     112.688 126.187 140.024  0.00  0.00    +0.000 OA
ATOM      4  C   UNL     1     112.675 127.245 137.758  0.00  0.00    +0.000 A 
ATOM      5  C   UNL     1     111.267 127.885 140.367  0.00  0.00    +0.000 A 
ATOM      6  C   UNL     1     112.214 127.914 137.612  0.00  0.00    +0.000 A 
ATOM      7  C   UNL     1     112.215 127.225 139.111  0.00  0.00    +0.000 A 
ATOM      8  C   UNL     1     112.675 126.901 138.508  0.00  0.00    +0.000 A 
ATOM      9  C   UNL     1     111.754 127.892 138.965  0.00  0.00    +0.000 A 
ATOM     10  C   UNL     1     111.271 128.239 139.584  0.00  0.00    +0.000 A 
ATOM     11  C   UNL     1     111.747 127.188 140.520  0.00  0.00    +0.000 A 
ATOM     12  C   UNL     1     112.224 126.856 139.887  0.00  0.00    +0.000 A 
ENDROOT
BRANCH   6  15
ATOM     13  O   UNL     1     112.211 129.291 134.613  0.00  0.00    +0.000 OA
ATOM     14  C   UNL     1     111.544 128.545 135.633  0.00  0.00    +0.000 A 
ATOM     15  C   UNL     1     112.214 128.258 136.862  0.00  0.00    +0.000 A 
ATOM     16  C   UNL     1     111.544 128.201 136.382  0.00  0.00    +0.000 A 
ATOM     17  C   UNL     1     112.212 128.947 135.363  0.00  0.00    +0.000 A 
ATOM     18  C   UNL     1     112.882 128.660 136.592  0.00  0.00    +0.000 A 
ATOM     19  C   UNL     1     112.880 129.004 135.842  0.00  0.00    +0.000 A 
BRANCH  19  20
ATOM     20  O   UNL     1     113.548 129.406 135.572  0.00  0.00    +0.000 OA
ATOM     21  C   UNL     1     113.878 130.012 136.026  0.00  0.00    +0.000 C 
ENDBRANCH  19  20
BRANCH  14  22
ATOM     22  O   UNL     1     110.875 128.487 135.153  0.00  0.00    +0.000 OA
BRANCH  22  31
ATOM     23  O   UNL     1     110.088 129.548 135.698  0.00  0.00    +0.000 OA
ATOM     24  O   UNL     1     108.093 128.084 135.670  0.00  0.00    +0.000 OA
ATOM     25  O   UNL     1     107.972 129.633 136.225  0.00  0.00    +0.000 OA
ATOM     26  O   UNL     1     109.544 127.511 135.134  0.00  0.00    +0.000 OA
ATOM     27  C   UNL     1     108.758 128.572 135.679  0.00  0.00    +0.000 C 
ATOM     28  C   UNL     1     108.697 129.347 135.957  0.00  0.00    +0.000 C 
ATOM     29  C   UNL     1     109.484 128.285 135.411  0.00  0.00    +0.000 C 
ATOM     30  C   UNL     1     109.363 129.834 135.966  0.00  0.00    +0.000 C 
ATOM     31  C   UNL     1     110.149 128.774 135.421  0.00  0.00    +0.000 C 
BRANCH  30  33
ATOM     32  O   UNL     1     109.701 131.218 135.857  0.00  0.00    +0.000 OA
ATOM     33  C   UNL     1     109.302 130.609 136.244  0.00  0.00    +0.000 C 
ENDBRANCH  30  33
ENDBRANCH  22  31
ENDBRANCH  14  22
ENDBRANCH   6  15
BRANCH   4  34
ATOM     34  O   UNL     1     113.135 126.921 137.155  0.00  0.00    +0.000 OA
BRANCH  34  43
ATOM     35  O   UNL     1     112.279 125.798 136.937  0.00  0.00    +0.000 OA
ATOM     36  O   UNL     1     114.236 124.434 136.279  0.00  0.00    +0.000 OA
ATOM     37  O   UNL     1     112.728 123.765 136.281  0.00  0.00    +0.000 OA
ATOM     38  O   UNL     1     114.440 126.012 136.716  0.00  0.00    +0.000 OA
ATOM     39  C   UNL     1     113.584 124.889 136.498  0.00  0.00    +0.000 C 
ATOM     40  C   UNL     1     112.830 124.555 136.500  0.00  0.00    +0.000 C 
ATOM     41  C   UNL     1     113.686 125.678 136.717  0.00  0.00    +0.000 C 
ATOM     42  C   UNL     1     112.177 125.010 136.719  0.00  0.00    +0.000 C 
ATOM     43  C   UNL     1     113.033 126.133 136.937  0.00  0.00    +0.000 C 
BRANCH  42  45
ATOM     44  O   UNL     1     110.846 124.955 136.202  0.00  0.00    +0.000 OA
ATOM     45  C   UNL     1     111.423 124.675 136.720  0.00  0.00    +0.000 C 
ENDBRANCH  42  45
ENDBRANCH  34  43
ENDBRANCH   4  34
BRANCH   5  46
ATOM     46  O   UNL     1     110.806 128.211 140.969  0.00  0.00    +0.000 OA
BRANCH  46  55
ATOM     47  O   UNL     1     111.702 129.238 141.397  0.00  0.00    +0.000 OA
ATOM     48  O   UNL     1     111.158 128.731 143.757  0.00  0.00    +0.000 OA
ATOM     49  O   UNL     1     112.236 129.928 143.398  0.00  0.00    +0.000 OA
ATOM     50  O   UNL     1     110.442 127.872 142.543  0.00  0.00    +0.000 OA
ATOM     51  C   UNL     1     111.339 128.900 142.970  0.00  0.00    +0.000 C 
ATOM     52  C   UNL     1     111.878 129.499 142.791  0.00  0.00    +0.000 C 
ATOM     53  C   UNL     1     110.981 128.471 142.363  0.00  0.00    +0.000 C 
ATOM     54  C   UNL     1     112.059 129.667 142.004  0.00  0.00    +0.000 C 
ATOM     55  C   UNL     1     111.163 128.640 141.576  0.00  0.00    +0.000 C 
BRANCH  54  57
ATOM     56  O   UNL     1     112.373 130.890 141.333  0.00  0.00    +0.000 OA
ATOM     57  C   UNL     1     112.598 130.266 141.824  0.00  0.00    +0.000 C 
ENDBRANCH  54  57
ENDBRANCH  46  55
ENDBRANCH   5  46
TORSDOF 11
ENDMDL
MODEL 4
REMARK VINA RESULT:     -10.5      1.027      5.194
REMARK  Name = 44259480
REMARK  11 active torsions:
REMARK  status: ('A' for Active; 'I' for Inactive)
REMARK    1  A    between atoms: O_4  and  C_36
REMARK    2  A    between atoms: O_4  and  C_42
REMARK    3  A    between atoms: O_5  and  C_38
REMARK    4  A    between atoms: O_5  and  C_43
REMARK    5  A    between atoms: O_8  and  C_37
REMARK    6  A    between atoms: O_8  and  C_45
REMARK    7  A    between atoms: O_23  and  C_56
REMARK    8  A    between atoms: C_27  and  C_39
REMARK    9  A    between atoms: C_34  and  C_40
REMARK   10  A    between atoms: C_35  and  C_41
REMARK   11  A    between atoms: C_44  and  C_48
REMARK                            x       y       z     vdW  Elec       q    Type
REMARK                         _______ _______ _______ _____ _____    ______ ____
ROOT
ATOM      1  O   UNL     1     111.986 128.356 138.145  0.00  0.00    +0.000 OA
ATOM      2  O   UNL     1     113.383 127.113 136.523  0.00  0.00    +0.000 OA
ATOM      3  O   UNL     1     112.878 127.911 135.433  0.00  0.00    +0.000 OA
ATOM      4  C   UNL     1     112.942 127.332 137.865  0.00  0.00    +0.000 A 
ATOM      5  C   UNL     1     111.414 129.397 136.252  0.00  0.00    +0.000 A 
ATOM      6  C   UNL     1     112.476 127.747 138.406  0.00  0.00    +0.000 A 
ATOM      7  C   UNL     1     112.426 128.137 136.804  0.00  0.00    +0.000 A 
ATOM      8  C   UNL     1     112.917 127.527 137.064  0.00  0.00    +0.000 A 
ATOM      9  C   UNL     1     111.961 128.551 137.344  0.00  0.00    +0.000 A 
ATOM     10  C   UNL     1     111.445 129.188 137.086  0.00  0.00    +0.000 A 
ATOM     11  C   UNL     1     111.900 128.965 135.689  0.00  0.00    +0.000 A 
ATOM     12  C   UNL     1     112.408 128.331 135.966  0.00  0.00    +0.000 A 
ENDROOT
BRANCH   6  15
ATOM     13  O   UNL     1     112.582 126.965 141.610  0.00  0.00    +0.000 OA
ATOM     14  C   UNL     1     113.116 127.675 140.492  0.00  0.00    +0.000 A 
ATOM     15  C   UNL     1     112.502 127.551 139.207  0.00  0.00    +0.000 A 
ATOM     16  C   UNL     1     113.090 127.871 139.691  0.00  0.00    +0.000 A 
ATOM     17  C   UNL     1     112.555 127.160 140.809  0.00  0.00    +0.000 A 
ATOM     18  C   UNL     1     111.942 127.036 139.524  0.00  0.00    +0.000 A 
ATOM     19  C   UNL     1     111.968 126.841 140.326  0.00  0.00    +0.000 A 
BRANCH  19  20
ATOM     20  O   UNL     1     111.408 126.326 140.643  0.00  0.00    +0.000 OA
ATOM     21  C   UNL     1     110.605 126.442 140.488  0.00  0.00    +0.000 C 
ENDBRANCH  19  20
BRANCH  14  22
ATOM     22  O   UNL     1     113.703 127.995 140.975  0.00  0.00    +0.000 OA
BRANCH  22  31
ATOM     23  O   UNL     1     113.164 129.276 141.304  0.00  0.00    +0.000 OA
ATOM     24  O   UNL     1     115.303 130.343 140.663  0.00  0.00    +0.000 OA
ATOM     25  O   UNL     1     114.049 131.269 141.206  0.00  0.00    +0.000 OA
ATOM     26  O   UNL     1     115.130 128.706 140.548  0.00  0.00    +0.000 OA
ATOM     27  C   UNL     1     114.590 129.987 140.877  0.00  0.00    +0.000 C 
ATOM     28  C   UNL     1     113.963 130.451 141.148  0.00  0.00    +0.000 C 
ATOM     29  C   UNL     1     114.503 129.169 140.819  0.00  0.00    +0.000 C 
ATOM     30  C   UNL     1     113.250 130.095 141.362  0.00  0.00    +0.000 C 
ATOM     31  C   UNL     1     113.790 128.814 141.033  0.00  0.00    +0.000 C 
BRANCH  30  33
ATOM     32  O   UNL     1     112.190 130.319 142.293  0.00  0.00    +0.000 OA
ATOM     33  C   UNL     1     112.623 130.558 141.633  0.00  0.00    +0.000 C 
ENDBRANCH  30  33
ENDBRANCH  22  31
ENDBRANCH  14  22
ENDBRANCH   6  15
BRANCH   4  34
ATOM     34  O   UNL     1     113.433 126.722 138.126  0.00  0.00    +0.000 OA
BRANCH  34  43
ATOM     35  O   UNL     1     112.619 125.687 137.571  0.00  0.00    +0.000 OA
ATOM     36  O   UNL     1     114.623 124.260 137.293  0.00  0.00    +0.000 OA
ATOM     37  O   UNL     1     113.141 123.701 136.831  0.00  0.00    +0.000 OA
ATOM     38  O   UNL     1     114.769 125.771 137.940  0.00  0.00    +0.000 OA
ATOM     39  C   UNL     1     113.955 124.736 137.386  0.00  0.00    +0.000 C 
ATOM     40  C   UNL     1     113.214 124.457 137.155  0.00  0.00    +0.000 C 
ATOM     41  C   UNL     1     114.028 125.492 137.709  0.00  0.00    +0.000 C 
ATOM     42  C   UNL     1     112.546 124.932 137.248  0.00  0.00    +0.000 C 
ATOM     43  C   UNL     1     113.360 125.967 137.802  0.00  0.00    +0.000 C 
BRANCH  42  45
ATOM     44  O   UNL     1     111.211 124.544 137.577  0.00  0.00    +0.000 OA
ATOM     45  C   UNL     1     111.805 124.652 137.016  0.00  0.00    +0.000 C 
ENDBRANCH  42  45
ENDBRANCH  34  43
ENDBRANCH   4  34
BRANCH   5  46
ATOM     46  O   UNL     1     110.922 130.007 135.994  0.00  0.00    +0.000 OA
BRANCH  46  55
ATOM     47  O   UNL     1     109.784 129.160 135.829  0.00  0.00    +0.000 OA
ATOM     48  O   UNL     1     108.290 131.077 136.298  0.00  0.00    +0.000 OA
ATOM     49  O   UNL     1     107.648 129.591 135.976  0.00  0.00    +0.000 OA
ATOM     50  O   UNL     1     109.927 131.285 136.307  0.00  0.00    +0.000 OA
ATOM     51  C   UNL     1     108.787 130.438 136.142  0.00  0.00    +0.000 C 
ATOM     52  C   UNL     1     108.467 129.695 135.981  0.00  0.00    +0.000 C 
ATOM     53  C   UNL     1     109.606 130.542 136.146  0.00  0.00    +0.000 C 
ATOM     54  C   UNL     1     108.965 129.056 135.825  0.00  0.00    +0.000 C 
ATOM     55  C   UNL     1     110.104 129.903 135.990  0.00  0.00    +0.000 C 
BRANCH  54  57
ATOM     56  O   UNL     1     108.660 127.724 136.242  0.00  0.00    +0.000 OA
ATOM     57  C   UNL     1     108.645 128.313 135.664  0.00  0.00    +0.000 C 
ENDBRANCH  54  57
ENDBRANCH  46  55
ENDBRANCH   5  46
TORSDOF 11
ENDMDL
MODEL 5
REMARK VINA RESULT:     -10.3      1.706      4.474
REMARK  Name = 44259480
REMARK  11 active torsions:
REMARK  status: ('A' for Active; 'I' for Inactive)
REMARK    1  A    between atoms: O_4  and  C_36
REMARK    2  A    between atoms: O_4  and  C_42
REMARK    3  A    between atoms: O_5  and  C_38
REMARK    4  A    between atoms: O_5  and  C_43
REMARK    5  A    between atoms: O_8  and  C_37
REMARK    6  A    between atoms: O_8  and  C_45
REMARK    7  A    between atoms: O_23  and  C_56
REMARK    8  A    between atoms: C_27  and  C_39
REMARK    9  A    between atoms: C_34  and  C_40
REMARK   10  A    between atoms: C_35  and  C_41
REMARK   11  A    between atoms: C_44  and  C_48
REMARK                            x       y       z     vdW  Elec       q    Type
REMARK                         _______ _______ _______ _____ _____    ______ ____
ROOT
ATOM      1  O   UNL     1     111.673 128.284 138.568  0.00  0.00    +0.000 OA
ATOM      2  O   UNL     1     111.205 126.787 136.652  0.00  0.00    +0.000 OA
ATOM      3  O   UNL     1     111.022 127.919 135.776  0.00  0.00    +0.000 OA
ATOM      4  C   UNL     1     111.527 126.966 138.033  0.00  0.00    +0.000 A 
ATOM      5  C   UNL     1     111.327 129.797 136.961  0.00  0.00    +0.000 A 
ATOM      6  C   UNL     1     111.683 127.465 138.672  0.00  0.00    +0.000 A 
ATOM      7  C   UNL     1     111.351 128.105 137.188  0.00  0.00    +0.000 A 
ATOM      8  C   UNL     1     111.361 127.286 137.291  0.00  0.00    +0.000 A 
ATOM      9  C   UNL     1     111.507 128.603 137.826  0.00  0.00    +0.000 A 
ATOM     10  C   UNL     1     111.500 129.457 137.731  0.00  0.00    +0.000 A 
ATOM     11  C   UNL     1     111.165 129.277 136.295  0.00  0.00    +0.000 A 
ATOM     12  C   UNL     1     111.177 128.426 136.410  0.00  0.00    +0.000 A 
ENDROOT
BRANCH   6  15
ATOM     13  O   UNL     1     112.344 126.183 141.640  0.00  0.00    +0.000 OA
ATOM     14  C   UNL     1     111.417 126.452 140.587  0.00  0.00    +0.000 A 
ATOM     15  C   UNL     1     111.849 127.145 139.414  0.00  0.00    +0.000 A 
ATOM     16  C   UNL     1     111.251 126.772 139.845  0.00  0.00    +0.000 A 
ATOM     17  C   UNL     1     112.180 126.504 140.898  0.00  0.00    +0.000 A 
ATOM     18  C   UNL     1     112.611 127.196 139.725  0.00  0.00    +0.000 A 
ATOM     19  C   UNL     1     112.776 126.875 140.467  0.00  0.00    +0.000 A 
BRANCH  19  20
ATOM     20  O   UNL     1     113.538 126.927 140.778  0.00  0.00    +0.000 OA
ATOM     21  C   UNL     1     114.032 127.553 140.561  0.00  0.00    +0.000 C 
ENDBRANCH  19  20
BRANCH  14  22
ATOM     22  O   UNL     1     110.820 126.080 141.018  0.00  0.00    +0.000 OA
BRANCH  22  31
ATOM     23  O   UNL     1     110.137 127.215 141.552  0.00  0.00    +0.000 OA
ATOM     24  O   UNL     1     107.966 126.210 140.919  0.00  0.00    +0.000 OA
ATOM     25  O   UNL     1     108.008 127.681 141.664  0.00  0.00    +0.000 OA
ATOM     26  O   UNL     1     109.372 125.409 140.596  0.00  0.00    +0.000 OA
ATOM     27  C   UNL     1     108.690 126.545 141.130  0.00  0.00    +0.000 C 
ATOM     28  C   UNL     1     108.711 127.281 141.503  0.00  0.00    +0.000 C 
ATOM     29  C   UNL     1     109.393 126.144 140.968  0.00  0.00    +0.000 C 
ATOM     30  C   UNL     1     109.434 127.616 141.713  0.00  0.00    +0.000 C 
ATOM     31  C   UNL     1     110.117 126.480 141.179  0.00  0.00    +0.000 C 
BRANCH  30  33
ATOM     32  O   UNL     1     109.920 128.460 142.759  0.00  0.00    +0.000 OA
ATOM     33  C   UNL     1     109.455 128.352 142.086  0.00  0.00    +0.000 C 
ENDBRANCH  30  33
ENDBRANCH  22  31
ENDBRANCH  14  22
ENDBRANCH   6  15
BRANCH   4  34
ATOM     34  O   UNL     1     111.537 126.148 138.137  0.00  0.00    +0.000 OA
BRANCH  34  43
ATOM     35  O   UNL     1     112.799 125.957 137.493  0.00  0.00    +0.000 OA
ATOM     36  O   UNL     1     112.062 123.728 136.710  0.00  0.00    +0.000 OA
ATOM     37  O   UNL     1     113.569 124.280 136.327  0.00  0.00    +0.000 OA
ATOM     38  O   UNL     1     111.047 124.661 137.615  0.00  0.00    +0.000 OA
ATOM     39  C   UNL     1     112.308 124.471 136.971  0.00  0.00    +0.000 C 
ATOM     40  C   UNL     1     113.061 124.748 136.780  0.00  0.00    +0.000 C 
ATOM     41  C   UNL     1     111.800 124.938 137.424  0.00  0.00    +0.000 C 
ATOM     42  C   UNL     1     113.306 125.491 137.040  0.00  0.00    +0.000 C 
ATOM     43  C   UNL     1     112.045 125.681 137.685  0.00  0.00    +0.000 C 
BRANCH  42  45
ATOM     44  O   UNL     1     114.625 125.869 137.440  0.00  0.00    +0.000 OA
ATOM     45  C   UNL     1     114.060 125.767 136.848  0.00  0.00    +0.000 C 
ENDBRANCH  42  45
ENDBRANCH  34  43
ENDBRANCH   4  34
BRANCH   5  46
ATOM     46  O   UNL     1     111.318 130.615 136.860  0.00  0.00    +0.000 OA
BRANCH  46  55
ATOM     47  O   UNL     1     109.923 130.816 137.097  0.00  0.00    +0.000 OA
ATOM     48  O   UNL     1     110.431 132.904 138.324  0.00  0.00    +0.000 OA
ATOM     49  O   UNL     1     108.866 132.408 138.152  0.00  0.00    +0.000 OA
ATOM     50  O   UNL     1     111.657 132.008 137.679  0.00  0.00    +0.000 OA
ATOM     51  C   UNL     1     110.261 132.208 137.915  0.00  0.00    +0.000 C 
ATOM     52  C   UNL     1     109.479 131.960 137.829  0.00  0.00    +0.000 C 
ATOM     53  C   UNL     1     110.875 131.760 137.592  0.00  0.00    +0.000 C 
ATOM     54  C   UNL     1     109.310 131.264 137.420  0.00  0.00    +0.000 C 
ATOM     55  C   UNL     1     110.705 131.064 137.183  0.00  0.00    +0.000 C 
BRANCH  54  57
ATOM     56  O   UNL     1     108.241 130.809 136.587  0.00  0.00    +0.000 OA
ATOM     57  C   UNL     1     108.528 131.016 137.334  0.00  0.00    +0.000 C 
ENDBRANCH  54  57
ENDBRANCH  46  55
ENDBRANCH   5  46
TORSDOF 11
ENDMDL
MODEL 6
REMARK VINA RESULT:     -10.3      2.145      5.311
REMARK  Name = 44259480
REMARK  11 active torsions:
REMARK  status: ('A' for Active; 'I' for Inactive)
REMARK    1  A    between atoms: O_4  and  C_36
REMARK    2  A    between atoms: O_4  and  C_42
REMARK    3  A    between atoms: O_5  and  C_38
REMARK    4  A    between atoms: O_5  and  C_43
REMARK    5  A    between atoms: O_8  and  C_37
REMARK    6  A    between atoms: O_8  and  C_45
REMARK    7  A    between atoms: O_23  and  C_56
REMARK    8  A    between atoms: C_27  and  C_39
REMARK    9  A    between atoms: C_34  and  C_40
REMARK   10  A    between atoms: C_35  and  C_41
REMARK   11  A    between atoms: C_44  and  C_48
REMARK                            x       y       z     vdW  Elec       q    Type
REMARK                         _______ _______ _______ _____ _____    ______ ____
ROOT
ATOM      1  O   UNL     1     110.126 127.111 137.814  0.00  0.00    +0.000 OA
ATOM      2  O   UNL     1     110.617 125.187 136.336  0.00  0.00    +0.000 OA
ATOM      3  O   UNL     1     109.832 125.766 135.273  0.00  0.00    +0.000 OA
ATOM      4  C   UNL     1     110.764 125.851 137.593  0.00  0.00    +0.000 A 
ATOM      5  C   UNL     1     108.998 127.721 135.984  0.00  0.00    +0.000 A 
ATOM      6  C   UNL     1     110.600 126.493 138.086  0.00  0.00    +0.000 A 
ATOM      7  C   UNL     1     109.980 126.447 136.557  0.00  0.00    +0.000 A 
ATOM      8  C   UNL     1     110.453 125.829 136.829  0.00  0.00    +0.000 A 
ATOM      9  C   UNL     1     109.816 127.088 137.050  0.00  0.00    +0.000 A 
ATOM     10  C   UNL     1     109.325 127.738 136.779  0.00  0.00    +0.000 A 
ATOM     11  C   UNL     1     109.169 127.052 135.470  0.00  0.00    +0.000 A 
ATOM     12  C   UNL     1     109.663 126.412 135.759  0.00  0.00    +0.000 A 
ENDROOT
BRANCH   6  15
ATOM     13  O   UNL     1     111.839 126.580 141.143  0.00  0.00    +0.000 OA
ATOM     14  C   UNL     1     110.823 126.159 140.231  0.00  0.00    +0.000 A 
ATOM     15  C   UNL     1     110.910 126.515 138.850  0.00  0.00    +0.000 A 
ATOM     16  C   UNL     1     110.513 126.137 139.467  0.00  0.00    +0.000 A 
ATOM     17  C   UNL     1     111.530 126.559 140.379  0.00  0.00    +0.000 A 
ATOM     18  C   UNL     1     111.616 126.915 138.997  0.00  0.00    +0.000 A 
ATOM     19  C   UNL     1     111.926 126.936 139.762  0.00  0.00    +0.000 A 
BRANCH  19  20
ATOM     20  O   UNL     1     112.632 127.336 139.910  0.00  0.00    +0.000 OA
ATOM     21  C   UNL     1     112.709 128.131 139.699  0.00  0.00    +0.000 C 
ENDBRANCH  19  20
BRANCH  14  22
ATOM     22  O   UNL     1     110.426 125.780 140.848  0.00  0.00    +0.000 OA
BRANCH  22  31
ATOM     23  O   UNL     1     109.430 126.762 141.137  0.00  0.00    +0.000 OA
ATOM     24  O   UNL     1     107.715 124.983 141.271  0.00  0.00    +0.000 OA
ATOM     25  O   UNL     1     107.289 126.559 141.516  0.00  0.00    +0.000 OA
ATOM     26  O   UNL     1     109.283 124.594 140.938  0.00  0.00    +0.000 OA
ATOM     27  C   UNL     1     108.287 125.576 141.227  0.00  0.00    +0.000 C 
ATOM     28  C   UNL     1     108.074 126.364 141.349  0.00  0.00    +0.000 C 
ATOM     29  C   UNL     1     109.071 125.381 141.060  0.00  0.00    +0.000 C 
ATOM     30  C   UNL     1     108.646 126.957 141.304  0.00  0.00    +0.000 C 
ATOM     31  C   UNL     1     109.642 125.975 141.015  0.00  0.00    +0.000 C 
BRANCH  30  33
ATOM     32  O   UNL     1     108.908 128.232 141.892  0.00  0.00    +0.000 OA
ATOM     33  C   UNL     1     108.433 127.745 141.426  0.00  0.00    +0.000 C 
ENDBRANCH  30  33
ENDBRANCH  22  31
ENDBRANCH  14  22
ENDBRANCH   6  15
BRANCH   4  34
ATOM     34  O   UNL     1     111.237 125.233 137.865  0.00  0.00    +0.000 OA
BRANCH  34  43
ATOM     35  O   UNL     1     112.382 125.597 137.091  0.00  0.00    +0.000 OA
ATOM     36  O   UNL     1     113.011 123.211 136.899  0.00  0.00    +0.000 OA
ATOM     37  O   UNL     1     113.946 124.370 136.189  0.00  0.00    +0.000 OA
ATOM     38  O   UNL     1     111.657 123.642 137.737  0.00  0.00    +0.000 OA
ATOM     39  C   UNL     1     112.802 124.006 136.963  0.00  0.00    +0.000 C 
ATOM     40  C   UNL     1     113.269 124.586 136.608  0.00  0.00    +0.000 C 
ATOM     41  C   UNL     1     112.124 124.222 137.382  0.00  0.00    +0.000 C 
ATOM     42  C   UNL     1     113.059 125.382 136.672  0.00  0.00    +0.000 C 
ATOM     43  C   UNL     1     111.914 125.017 137.446  0.00  0.00    +0.000 C 
BRANCH  42  45
ATOM     44  O   UNL     1     113.839 126.574 136.770  0.00  0.00    +0.000 OA
ATOM     45  C   UNL     1     113.527 125.961 136.317  0.00  0.00    +0.000 C 
ENDBRANCH  42  45
ENDBRANCH  34  43
ENDBRANCH   4  34
BRANCH   5  46
ATOM     46  O   UNL     1     108.525 128.341 135.715  0.00  0.00    +0.000 OA
BRANCH  46  55
ATOM     47  O   UNL     1     109.597 129.108 135.164  0.00  0.00    +0.000 OA
ATOM     48  O   UNL     1     108.414 131.196 135.766  0.00  0.00    +0.000 OA
ATOM     49  O   UNL     1     109.881 131.267 135.014  0.00  0.00    +0.000 OA
ATOM     50  O   UNL     1     107.736 129.733 136.117  0.00  0.00    +0.000 OA
ATOM     51  C   UNL     1     108.809 130.500 135.565  0.00  0.00    +0.000 C 
ATOM     52  C   UNL     1     109.542 130.536 135.189  0.00  0.00    +0.000 C 
ATOM     53  C   UNL     1     108.469 129.768 135.741  0.00  0.00    +0.000 C 
ATOM     54  C   UNL     1     109.936 129.839 134.989  0.00  0.00    +0.000 C 
ATOM     55  C   UNL     1     108.864 129.072 135.540  0.00  0.00    +0.000 C 
BRANCH  54  57
ATOM     56  O   UNL     1     111.338 129.559 134.981  0.00  0.00    +0.000 OA
ATOM     57  C   UNL     1     110.669 129.875 134.613  0.00  0.00    +0.000 C 
ENDBRANCH  54  57
ENDBRANCH  46  55
ENDBRANCH   5  46
TORSDOF 11
ENDMDL
MODEL 7
REMARK VINA RESULT:     -10.2      1.359      5.951
REMARK  Name = 44259480
REMARK  11 active torsions:
REMARK  status: ('A' for Active; 'I' for Inactive)
REMARK    1  A    between atoms: O_4  and  C_36
REMARK    2  A    between atoms: O_4  and  C_42
REMARK    3  A    between atoms: O_5  and  C_38
REMARK    4  A    between atoms: O_5  and  C_43
REMARK    5  A    between atoms: O_8  and  C_37
REMARK    6  A    between atoms: O_8  and  C_45
REMARK    7  A    between atoms: O_23  and  C_56
REMARK    8  A    between atoms: C_27  and  C_39
REMARK    9  A    between atoms: C_34  and  C_40
REMARK   10  A    between atoms: C_35  and  C_41
REMARK   11  A    between atoms: C_44  and  C_48
REMARK                            x       y       z     vdW  Elec       q    Type
REMARK                         _______ _______ _______ _____ _____    ______ ____
ROOT
ATOM      1  O   UNL     1     112.987 128.598 138.149  0.00  0.00    +0.000 OA
ATOM      2  O   UNL     1     111.931 130.066 136.458  0.00  0.00    +0.000 OA
ATOM      3  O   UNL     1     112.157 129.085 135.424  0.00  0.00    +0.000 OA
ATOM      4  C   UNL     1     112.341 129.827 137.806  0.00  0.00    +0.000 A 
ATOM      5  C   UNL     1     113.182 127.311 136.333  0.00  0.00    +0.000 A 
ATOM      6  C   UNL     1     112.694 129.337 138.370  0.00  0.00    +0.000 A 
ATOM      7  C   UNL     1     112.577 128.838 136.802  0.00  0.00    +0.000 A 
ATOM      8  C   UNL     1     112.283 129.576 137.022  0.00  0.00    +0.000 A 
ATOM      9  C   UNL     1     112.929 128.349 137.365  0.00  0.00    +0.000 A 
ATOM     10  C   UNL     1     113.239 127.578 137.149  0.00  0.00    +0.000 A 
ATOM     11  C   UNL     1     112.815 127.821 135.745  0.00  0.00    +0.000 A 
ATOM     12  C   UNL     1     112.511 128.589 135.982  0.00  0.00    +0.000 A 
ENDROOT
BRANCH   6  15
ATOM     13  O   UNL     1     112.923 130.337 141.506  0.00  0.00    +0.000 OA
ATOM     14  C   UNL     1     112.273 129.559 140.500  0.00  0.00    +0.000 A 
ATOM     15  C   UNL     1     112.751 129.588 139.154  0.00  0.00    +0.000 A 
ATOM     16  C   UNL     1     112.215 129.309 139.716  0.00  0.00    +0.000 A 
ATOM     17  C   UNL     1     112.866 130.087 140.722  0.00  0.00    +0.000 A 
ATOM     18  C   UNL     1     113.345 130.116 139.376  0.00  0.00    +0.000 A 
ATOM     19  C   UNL     1     113.402 130.365 140.160  0.00  0.00    +0.000 A 
BRANCH  19  20
ATOM     20  O   UNL     1     113.995 130.893 140.383  0.00  0.00    +0.000 OA
ATOM     21  C   UNL     1     114.788 130.701 140.256  0.00  0.00    +0.000 C 
ENDBRANCH  19  20
BRANCH  14  22
ATOM     22  O   UNL     1     111.736 129.281 141.062  0.00  0.00    +0.000 OA
BRANCH  22  31
ATOM     23  O   UNL     1     112.244 127.947 141.126  0.00  0.00    +0.000 OA
ATOM     24  O   UNL     1     109.943 127.084 141.419  0.00  0.00    +0.000 OA
ATOM     25  O   UNL     1     111.218 126.038 141.386  0.00  0.00    +0.000 OA
ATOM     26  O   UNL     1     110.202 128.706 141.258  0.00  0.00    +0.000 OA
ATOM     27  C   UNL     1     110.710 127.372 141.322  0.00  0.00    +0.000 C 
ATOM     28  C   UNL     1     111.348 126.848 141.305  0.00  0.00    +0.000 C 
ATOM     29  C   UNL     1     110.839 128.183 141.241  0.00  0.00    +0.000 C 
ATOM     30  C   UNL     1     112.114 127.137 141.207  0.00  0.00    +0.000 C 
ATOM     31  C   UNL     1     111.606 128.470 141.143  0.00  0.00    +0.000 C 
BRANCH  30  33
ATOM     32  O   UNL     1     113.494 126.858 141.457  0.00  0.00    +0.000 OA
ATOM     33  C   UNL     1     112.753 126.613 141.190  0.00  0.00    +0.000 C 
ENDBRANCH  30  33
ENDBRANCH  22  31
ENDBRANCH  14  22
ENDBRANCH   6  15
BRANCH   4  34
ATOM     34  O   UNL     1     112.047 130.565 138.026  0.00  0.00    +0.000 OA
BRANCH  34  43
ATOM     35  O   UNL     1     110.678 130.171 137.919  0.00  0.00    +0.000 OA
ATOM     36  O   UNL     1     110.052 132.498 137.357  0.00  0.00    +0.000 OA
ATOM     37  O   UNL     1     108.891 131.328 137.438  0.00  0.00    +0.000 OA
ATOM     38  O   UNL     1     111.630 132.117 137.651  0.00  0.00    +0.000 OA
ATOM     39  C   UNL     1     110.261 131.723 137.545  0.00  0.00    +0.000 C 
ATOM     40  C   UNL     1     109.681 131.137 137.585  0.00  0.00    +0.000 C 
ATOM     41  C   UNL     1     111.050 131.532 137.692  0.00  0.00    +0.000 C 
ATOM     42  C   UNL     1     109.890 130.361 137.772  0.00  0.00    +0.000 C 
ATOM     43  C   UNL     1     111.259 130.756 137.879  0.00  0.00    +0.000 C 
BRANCH  42  45
ATOM     44  O   UNL     1     109.142 129.409 138.531  0.00  0.00    +0.000 OA
ATOM     45  C   UNL     1     109.309 129.777 137.813  0.00  0.00    +0.000 C 
ENDBRANCH  42  45
ENDBRANCH  34  43
ENDBRANCH   4  34
BRANCH   5  46
ATOM     46  O   UNL     1     113.476 126.572 136.115  0.00  0.00    +0.000 OA
BRANCH  46  55
ATOM     47  O   UNL     1     112.231 125.871 136.126  0.00  0.00    +0.000 OA
ATOM     48  O   UNL     1     113.358 123.884 137.078  0.00  0.00    +0.000 OA
ATOM     49  O   UNL     1     111.737 123.845 136.771  0.00  0.00    +0.000 OA
ATOM     50  O   UNL     1     114.228 125.247 136.750  0.00  0.00    +0.000 OA
ATOM     51  C   UNL     1     112.982 124.546 136.761  0.00  0.00    +0.000 C 
ATOM     52  C   UNL     1     112.172 124.527 136.607  0.00  0.00    +0.000 C 
ATOM     53  C   UNL     1     113.418 125.228 136.597  0.00  0.00    +0.000 C 
ATOM     54  C   UNL     1     111.797 125.189 136.290  0.00  0.00    +0.000 C 
ATOM     55  C   UNL     1     113.042 125.890 136.280  0.00  0.00    +0.000 C 
BRANCH  54  57
ATOM     56  O   UNL     1     110.707 125.323 135.375  0.00  0.00    +0.000 OA
ATOM     57  C   UNL     1     110.986 125.170 136.137  0.00  0.00    +0.000 C 
ENDBRANCH  54  57
ENDBRANCH  46  55
ENDBRANCH   5  46
TORSDOF 11
ENDMDL
MODEL 8
REMARK VINA RESULT:     -10.2      0.884      2.326
REMARK  Name = 44259480
REMARK  11 active torsions:
REMARK  status: ('A' for Active; 'I' for Inactive)
REMARK    1  A    between atoms: O_4  and  C_36
REMARK    2  A    between atoms: O_4  and  C_42
REMARK    3  A    between atoms: O_5  and  C_38
REMARK    4  A    between atoms: O_5  and  C_43
REMARK    5  A    between atoms: O_8  and  C_37
REMARK    6  A    between atoms: O_8  and  C_45
REMARK    7  A    between atoms: O_23  and  C_56
REMARK    8  A    between atoms: C_27  and  C_39
REMARK    9  A    between atoms: C_34  and  C_40
REMARK   10  A    between atoms: C_35  and  C_41
REMARK   11  A    between atoms: C_44  and  C_48
REMARK                            x       y       z     vdW  Elec       q    Type
REMARK                         _______ _______ _______ _____ _____    ______ ____
ROOT
ATOM      1  O   UNL     1     112.317 128.353 138.650  0.00  0.00    +0.000 OA
ATOM      2  O   UNL     1     112.154 125.934 139.148  0.00  0.00    +0.000 OA
ATOM      3  O   UNL     1     112.728 126.135 140.456  0.00  0.00    +0.000 OA
ATOM      4  C   UNL     1     111.950 127.030 138.254  0.00  0.00    +0.000 A 
ATOM      5  C   UNL     1     113.169 128.316 140.715  0.00  0.00    +0.000 A 
ATOM      6  C   UNL     1     112.005 127.837 138.088  0.00  0.00    +0.000 A 
ATOM      7  C   UNL     1     112.521 127.257 139.544  0.00  0.00    +0.000 A 
ATOM      8  C   UNL     1     112.208 126.741 138.982  0.00  0.00    +0.000 A 
ATOM      9  C   UNL     1     112.575 128.063 139.378  0.00  0.00    +0.000 A 
ATOM     10  C   UNL     1     112.898 128.612 139.954  0.00  0.00    +0.000 A 
ATOM     11  C   UNL     1     113.113 127.476 140.888  0.00  0.00    +0.000 A 
ATOM     12  C   UNL     1     112.786 126.943 140.298  0.00  0.00    +0.000 A 
ENDROOT
BRANCH   6  15
ATOM     13  O   UNL     1     110.974 128.993 135.174  0.00  0.00    +0.000 OA
ATOM     14  C   UNL     1     112.038 128.643 136.060  0.00  0.00    +0.000 A 
ATOM     15  C   UNL     1     111.746 128.126 137.360  0.00  0.00    +0.000 A 
ATOM     16  C   UNL     1     112.297 128.354 136.788  0.00  0.00    +0.000 A 
ATOM     17  C   UNL     1     111.231 128.704 135.903  0.00  0.00    +0.000 A 
ATOM     18  C   UNL     1     110.939 128.186 137.202  0.00  0.00    +0.000 A 
ATOM     19  C   UNL     1     110.682 128.475 136.473  0.00  0.00    +0.000 A 
BRANCH  19  20
ATOM     20  O   UNL     1     109.874 128.536 136.316  0.00  0.00    +0.000 OA
ATOM     21  C   UNL     1     109.382 128.952 136.832  0.00  0.00    +0.000 C 
ENDBRANCH  19  20
BRANCH  14  22
ATOM     22  O   UNL     1     112.589 128.872 135.489  0.00  0.00    +0.000 OA
BRANCH  22  31
ATOM     23  O   UNL     1     113.014 130.065 136.150  0.00  0.00    +0.000 OA
ATOM     24  O   UNL     1     115.319 129.700 135.326  0.00  0.00    +0.000 OA
ATOM     25  O   UNL     1     114.977 131.015 136.262  0.00  0.00    +0.000 OA
ATOM     26  O   UNL     1     114.125 128.629 134.939  0.00  0.00    +0.000 OA
ATOM     27  C   UNL     1     114.551 129.821 135.600  0.00  0.00    +0.000 C 
ATOM     28  C   UNL     1     114.380 130.479 136.069  0.00  0.00    +0.000 C 
ATOM     29  C   UNL     1     113.954 129.286 135.407  0.00  0.00    +0.000 C 
ATOM     30  C   UNL     1     113.611 130.600 136.343  0.00  0.00    +0.000 C 
ATOM     31  C   UNL     1     113.186 129.408 135.682  0.00  0.00    +0.000 C 
BRANCH  30  33
ATOM     32  O   UNL     1     112.726 131.658 136.714  0.00  0.00    +0.000 OA
ATOM     33  C   UNL     1     113.440 131.258 136.812  0.00  0.00    +0.000 C 
ENDBRANCH  30  33
ENDBRANCH  22  31
ENDBRANCH  14  22
ENDBRANCH   6  15
BRANCH   4  34
ATOM     34  O   UNL     1     111.638 126.513 137.691  0.00  0.00    +0.000 OA
BRANCH  34  43
ATOM     35  O   UNL     1     112.904 125.952 137.341  0.00  0.00    +0.000 OA
ATOM     36  O   UNL     1     111.799 123.810 136.778  0.00  0.00    +0.000 OA
ATOM     37  O   UNL     1     113.434 123.962 136.616  0.00  0.00    +0.000 OA
ATOM     38  O   UNL     1     110.901 125.085 137.316  0.00  0.00    +0.000 OA
ATOM     39  C   UNL     1     112.168 124.524 136.966  0.00  0.00    +0.000 C 
ATOM     40  C   UNL     1     112.985 124.601 136.885  0.00  0.00    +0.000 C 
ATOM     41  C   UNL     1     111.718 125.162 137.235  0.00  0.00    +0.000 C 
ATOM     42  C   UNL     1     113.353 125.315 137.072  0.00  0.00    +0.000 C 
ATOM     43  C   UNL     1     112.087 125.876 137.423  0.00  0.00    +0.000 C 
BRANCH  42  45
ATOM     44  O   UNL     1     114.484 125.954 136.477  0.00  0.00    +0.000 OA
ATOM     45  C   UNL     1     114.171 125.390 136.991  0.00  0.00    +0.000 C 
ENDBRANCH  42  45
ENDBRANCH  34  43
ENDBRANCH   4  34
BRANCH   5  46
ATOM     46  O   UNL     1     113.481 128.835 141.275  0.00  0.00    +0.000 OA
BRANCH  46  55
ATOM     47  O   UNL     1     112.348 128.983 142.133  0.00  0.00    +0.000 OA
ATOM     48  O   UNL     1     112.725 131.428 142.212  0.00  0.00    +0.000 OA
ATOM     49  O   UNL     1     111.466 130.760 143.044  0.00  0.00    +0.000 OA
ATOM     50  O   UNL     1     113.733 130.465 141.327  0.00  0.00    +0.000 OA
ATOM     51  C   UNL     1     112.599 130.613 142.186  0.00  0.00    +0.000 C 
ATOM     52  C   UNL     1     111.970 130.279 142.602  0.00  0.00    +0.000 C 
ATOM     53  C   UNL     1     113.104 130.132 141.743  0.00  0.00    +0.000 C 
ATOM     54  C   UNL     1     111.845 129.464 142.575  0.00  0.00    +0.000 C 
ATOM     55  C   UNL     1     112.978 129.317 141.717  0.00  0.00    +0.000 C 
BRANCH  54  57
ATOM     56  O   UNL     1     111.339 128.462 143.461  0.00  0.00    +0.000 OA
ATOM     57  C   UNL     1     111.215 129.130 142.992  0.00  0.00    +0.000 C 
ENDBRANCH  54  57
ENDBRANCH  46  55
ENDBRANCH   5  46
TORSDOF 11
ENDMDL
MODEL 9
REMARK VINA RESULT:     -10.0      1.391      5.094
REMARK  Name = 44259480
REMARK  11 active torsions:
REMARK  status: ('A' for Active; 'I' for Inactive)
REMARK    1  A    between atoms: O_4  and  C_36
REMARK    2  A    between atoms: O_4  and  C_42
REMARK    3  A    between atoms: O_5  and  C_38
REMARK    4  A    between atoms: O_5  and  C_43
REMARK    5  A    between atoms: O_8  and  C_37
REMARK    6  A    between atoms: O_8  and  C_45
REMARK    7  A    between atoms: O_23  and  C_56
REMARK    8  A    between atoms: C_27  and  C_39
REMARK    9  A    between atoms: C_34  and  C_40
REMARK   10  A    between atoms: C_35  and  C_41
REMARK   11  A    between atoms: C_44  and  C_48
REMARK                            x       y       z     vdW  Elec       q    Type
REMARK                         _______ _______ _______ _____ _____    ______ ____
ROOT
ATOM      1  O   UNL     1     111.154 128.953 138.165  0.00  0.00    +0.000 OA
ATOM      2  O   UNL     1     111.770 127.635 136.162  0.00  0.00    +0.000 OA
ATOM      3  O   UNL     1     110.592 128.092 135.464  0.00  0.00    +0.000 OA
ATOM      4  C   UNL     1     112.048 128.060 137.498  0.00  0.00    +0.000 A 
ATOM      5  C   UNL     1     109.446 129.462 136.817  0.00  0.00    +0.000 A 
ATOM      6  C   UNL     1     111.843 128.500 138.166  0.00  0.00    +0.000 A 
ATOM      7  C   UNL     1     110.875 128.528 136.830  0.00  0.00    +0.000 A 
ATOM      8  C   UNL     1     111.564 128.075 136.830  0.00  0.00    +0.000 A 
ATOM      9  C   UNL     1     110.670 128.967 137.497  0.00  0.00    +0.000 A 
ATOM     10  C   UNL     1     109.955 129.443 137.510  0.00  0.00    +0.000 A 
ATOM     11  C   UNL     1     109.660 129.004 136.121  0.00  0.00    +0.000 A 
ATOM     12  C   UNL     1     110.379 128.534 136.128  0.00  0.00    +0.000 A 
ENDROOT
BRANCH   6  15
ATOM     13  O   UNL     1     113.779 128.439 140.838  0.00  0.00    +0.000 OA
ATOM     14  C   UNL     1     112.625 127.975 140.135  0.00  0.00    +0.000 A 
ATOM     15  C   UNL     1     112.327 128.485 138.833  0.00  0.00    +0.000 A 
ATOM     16  C   UNL     1     112.141 127.990 139.467  0.00  0.00    +0.000 A 
ATOM     17  C   UNL     1     113.295 128.455 140.169  0.00  0.00    +0.000 A 
ATOM     18  C   UNL     1     112.997 128.965 138.868  0.00  0.00    +0.000 A 
ATOM     19  C   UNL     1     113.481 128.949 139.536  0.00  0.00    +0.000 A 
BRANCH  19  20
ATOM     20  O   UNL     1     114.151 129.429 139.571  0.00  0.00    +0.000 OA
ATOM     21  C   UNL     1     114.096 130.231 139.380  0.00  0.00    +0.000 C 
ENDBRANCH  19  20
BRANCH  14  22
ATOM     22  O   UNL     1     112.438 127.480 140.768  0.00  0.00    +0.000 OA
BRANCH  22  31
ATOM     23  O   UNL     1     111.385 128.253 141.345  0.00  0.00    +0.000 OA
ATOM     24  O   UNL     1     110.076 126.188 141.725  0.00  0.00    +0.000 OA
ATOM     25  O   UNL     1     109.458 127.650 142.175  0.00  0.00    +0.000 OA
ATOM     26  O   UNL     1     111.566 126.102 141.022  0.00  0.00    +0.000 OA
ATOM     27  C   UNL     1     110.512 126.876 141.598  0.00  0.00    +0.000 C 
ATOM     28  C   UNL     1     110.203 127.607 141.823  0.00  0.00    +0.000 C 
ATOM     29  C   UNL     1     111.257 126.833 141.246  0.00  0.00    +0.000 C 
ATOM     30  C   UNL     1     110.640 128.296 141.696  0.00  0.00    +0.000 C 
ATOM     31  C   UNL     1     111.693 127.522 141.120  0.00  0.00    +0.000 C 
BRANCH  30  33
ATOM     32  O   UNL     1     110.795 129.556 142.352  0.00  0.00    +0.000 OA
ATOM     33  C   UNL     1     110.331 129.027 141.922  0.00  0.00    +0.000 C 
ENDBRANCH  30  33
ENDBRANCH  22  31
ENDBRANCH  14  22
ENDBRANCH   6  15
BRANCH   4  34
ATOM     34  O   UNL     1     112.738 127.607 137.498  0.00  0.00    +0.000 OA
BRANCH  34  43
ATOM     35  O   UNL     1     112.046 126.358 137.560  0.00  0.00    +0.000 OA
ATOM     36  O   UNL     1     113.903 125.269 136.338  0.00  0.00    +0.000 OA
ATOM     37  O   UNL     1     112.593 124.383 136.808  0.00  0.00    +0.000 OA
ATOM     38  O   UNL     1     113.976 126.881 136.684  0.00  0.00    +0.000 OA
ATOM     39  C   UNL     1     113.284 125.632 136.746  0.00  0.00    +0.000 C 
ATOM     40  C   UNL     1     112.629 125.190 136.981  0.00  0.00    +0.000 C 
ATOM     41  C   UNL     1     113.320 126.439 136.919  0.00  0.00    +0.000 C 
ATOM     42  C   UNL     1     112.010 125.552 137.388  0.00  0.00    +0.000 C 
ATOM     43  C   UNL     1     112.701 126.801 137.326  0.00  0.00    +0.000 C 
BRANCH  42  45
ATOM     44  O   UNL     1     111.227 124.952 138.421  0.00  0.00    +0.000 OA
ATOM     45  C   UNL     1     111.355 125.109 137.622  0.00  0.00    +0.000 C 
ENDBRANCH  42  45
ENDBRANCH  34  43
ENDBRANCH   4  34
BRANCH   5  46
ATOM     46  O   UNL     1     108.757 129.916 136.819  0.00  0.00    +0.000 OA
BRANCH  46  55
ATOM     47  O   UNL     1     109.346 131.184 136.523  0.00  0.00    +0.000 OA
ATOM     48  O   UNL     1     107.460 131.706 135.008  0.00  0.00    +0.000 OA
ATOM     49  O   UNL     1     108.678 132.800 135.216  0.00  0.00    +0.000 OA
ATOM     50  O   UNL     1     107.500 130.264 135.809  0.00  0.00    +0.000 OA
ATOM     51  C   UNL     1     108.089 131.532 135.513  0.00  0.00    +0.000 C 
ATOM     52  C   UNL     1     108.698 132.079 135.617  0.00  0.00    +0.000 C 
ATOM     53  C   UNL     1     108.109 130.811 135.913  0.00  0.00    +0.000 C 
ATOM     54  C   UNL     1     109.326 131.905 136.122  0.00  0.00    +0.000 C 
ATOM     55  C   UNL     1     108.737 130.637 136.419  0.00  0.00    +0.000 C 
BRANCH  54  57
ATOM     56  O   UNL     1     110.112 132.733 136.982  0.00  0.00    +0.000 OA
ATOM     57  C   UNL     1     109.935 132.452 136.226  0.00  0.00    +0.000 C 
ENDBRANCH  54  57
ENDBRANCH  46  55
ENDBRANCH   5  46
TORSDOF 11
ENDMDL
MODEL 10
REMARK VINA RESULT:     -10.0      1.279      4.237
REMARK  Name = 44259480
REMARK  11 active torsions:
REMARK  status: ('A' for Active; 'I' for Inactive)
REMARK    1  A    between atoms: O_4  and  C_36
REMARK    2  A    between atoms: O_4  and  C_42
REMARK    3  A    between atoms: O_5  and  C_38
REMARK    4  A    between atoms: O_5  and  C_43
REMARK    5  A    between atoms: O_8  and  C_37
REMARK    6  A    between atoms: O_8  and  C_45
REMARK    7  A    between atoms: O_23  and  C_56
REMARK    8  A    between atoms: C_27  and  C_39
REMARK    9  A    between atoms: C_34  and  C_40
REMARK   10  A    between atoms: C_35  and  C_41
REMARK   11  A    between atoms: C_44  and  C_48
REMARK                            x       y       z     vdW  Elec       q    Type
REMARK                         _______ _______ _______ _____ _____    ______ ____
ROOT
ATOM      1  O   UNL     1     111.714 127.988 138.907  0.00  0.00    +0.000 OA
ATOM      2  O   UNL     1     109.268 128.278 138.663  0.00  0.00    +0.000 OA
ATOM      3  O   UNL     1     109.097 128.291 140.095  0.00  0.00    +0.000 OA
ATOM      4  C   UNL     1     110.561 128.128 138.074  0.00  0.00    +0.000 A 
ATOM      5  C   UNL     1     111.106 128.048 141.057  0.00  0.00    +0.000 A 
ATOM      6  C   UNL     1     111.377 128.031 138.156  0.00  0.00    +0.000 A 
ATOM      7  C   UNL     1     110.421 128.137 139.496  0.00  0.00    +0.000 A 
ATOM      8  C   UNL     1     110.084 128.181 138.744  0.00  0.00    +0.000 A 
ATOM      9  C   UNL     1     111.235 128.041 139.577  0.00  0.00    +0.000 A 
ATOM     10  C   UNL     1     111.599 127.994 140.354  0.00  0.00    +0.000 A 
ATOM     11  C   UNL     1     110.256 128.149 140.972  0.00  0.00    +0.000 A 
ATOM     12  C   UNL     1     109.912 128.194 140.186  0.00  0.00    +0.000 A 
ENDROOT
BRANCH   6  15
ATOM     13  O   UNL     1     113.287 127.817 135.473  0.00  0.00    +0.000 OA
ATOM     14  C   UNL     1     112.325 127.238 136.357  0.00  0.00    +0.000 A 
ATOM     15  C   UNL     1     111.855 127.978 137.485  0.00  0.00    +0.000 A 
ATOM     16  C   UNL     1     111.848 127.291 137.027  0.00  0.00    +0.000 A 
ATOM     17  C   UNL     1     112.810 127.871 136.144  0.00  0.00    +0.000 A 
ATOM     18  C   UNL     1     112.340 128.611 137.272  0.00  0.00    +0.000 A 
ATOM     19  C   UNL     1     112.817 128.557 136.601  0.00  0.00    +0.000 A 
BRANCH  19  20
ATOM     20  O   UNL     1     113.301 129.190 136.388  0.00  0.00    +0.000 OA
ATOM     21  C   UNL     1     113.624 129.677 136.971  0.00  0.00    +0.000 C 
ENDBRANCH  19  20
BRANCH  14  22
ATOM     22  O   UNL     1     112.318 126.551 135.899  0.00  0.00    +0.000 OA
BRANCH  22  31
ATOM     23  O   UNL     1     113.208 125.740 136.666  0.00  0.00    +0.000 OA
ATOM     24  O   UNL     1     111.670 123.817 136.419  0.00  0.00    +0.000 OA
ATOM     25  O   UNL     1     113.073 123.646 137.270  0.00  0.00    +0.000 OA
ATOM     26  O   UNL     1     111.292 125.270 135.734  0.00  0.00    +0.000 OA
ATOM     27  C   UNL     1     112.182 124.458 136.501  0.00  0.00    +0.000 C 
ATOM     28  C   UNL     1     112.884 124.372 136.927  0.00  0.00    +0.000 C 
ATOM     29  C   UNL     1     111.993 125.184 136.159  0.00  0.00    +0.000 C 
ATOM     30  C   UNL     1     113.397 125.013 137.009  0.00  0.00    +0.000 C 
ATOM     31  C   UNL     1     112.507 125.825 136.242  0.00  0.00    +0.000 C 
BRANCH  30  33
ATOM     32  O   UNL     1     114.805 125.227 137.129  0.00  0.00    +0.000 OA
ATOM     33  C   UNL     1     114.099 124.928 137.435  0.00  0.00    +0.000 C 
ENDBRANCH  30  33
ENDBRANCH  22  31
ENDBRANCH  14  22
ENDBRANCH   6  15
BRANCH   4  34
ATOM     34  O   UNL     1     110.224 128.172 137.322  0.00  0.00    +0.000 OA
BRANCH  34  43
ATOM     35  O   UNL     1     110.008 129.583 137.379  0.00  0.00    +0.000 OA
ATOM     36  O   UNL     1     108.040 129.341 135.898  0.00  0.00    +0.000 OA
ATOM     37  O   UNL     1     108.479 130.833 136.449  0.00  0.00    +0.000 OA
ATOM     38  O   UNL     1     108.913 128.011 136.334  0.00  0.00    +0.000 OA
ATOM     39  C   UNL     1     108.696 129.422 136.392  0.00  0.00    +0.000 C 
ATOM     40  C   UNL     1     108.916 130.167 136.667  0.00  0.00    +0.000 C 
ATOM     41  C   UNL     1     109.133 128.756 136.610  0.00  0.00    +0.000 C 
ATOM     42  C   UNL     1     109.572 130.248 137.161  0.00  0.00    +0.000 C 
ATOM     43  C   UNL     1     109.789 128.837 137.104  0.00  0.00    +0.000 C 
BRANCH  42  45
ATOM     44  O   UNL     1     110.520 131.315 137.225  0.00  0.00    +0.000 OA
ATOM     45  C   UNL     1     109.791 130.995 137.437  0.00  0.00    +0.000 C 
ENDBRANCH  42  45
ENDBRANCH  34  43
ENDBRANCH   4  34
BRANCH   5  46
ATOM     46  O   UNL     1     111.446 128.004 141.807  0.00  0.00    +0.000 OA
BRANCH  46  55
ATOM     47  O   UNL     1     112.054 129.296 141.859  0.00  0.00    +0.000 OA
ATOM     48  O   UNL     1     111.280 129.569 144.193  0.00  0.00    +0.000 OA
ATOM     49  O   UNL     1     112.146 130.770 143.466  0.00  0.00    +0.000 OA
ATOM     50  O   UNL     1     110.930 128.185 143.364  0.00  0.00    +0.000 OA
ATOM     51  C   UNL     1     111.538 129.478 143.415  0.00  0.00    +0.000 C 
ATOM     52  C   UNL     1     111.971 130.079 143.051  0.00  0.00    +0.000 C 
ATOM     53  C   UNL     1     111.363 128.786 143.001  0.00  0.00    +0.000 C 
ATOM     54  C   UNL     1     112.229 129.988 142.273  0.00  0.00    +0.000 C 
ATOM     55  C   UNL     1     111.621 128.695 142.222  0.00  0.00    +0.000 C 
BRANCH  54  57
ATOM     56  O   UNL     1     113.416 130.431 141.612  0.00  0.00    +0.000 OA
ATOM     57  C   UNL     1     112.662 130.588 141.910  0.00  0.00    +0.000 C 
ENDBRANCH  54  57
ENDBRANCH  46  55
ENDBRANCH   5  46
TORSDOF 11
ENDMDL
