MODEL 1
REMARK VINA RESULT:      -8.9      0.000      0.000
REMARK  Name = 131836786
REMARK  5 active torsions:
REMARK  status: ('A' for Active; 'I' for Inactive)
REMARK    1  A    between atoms: O_2  and  C_14
REMARK    2  A    between atoms: O_2  and  C_16
REMARK    3  A    between atoms: O_9  and  C_28
REMARK    4  A    between atoms: C_15  and  C_18
REMARK    5  A    between atoms: C_17  and  C_20
REMARK                            x       y       z     vdW  Elec       q    Type
REMARK                         _______ _______ _______ _____ _____    ______ ____
ROOT
ATOM      1  O   UNL     1     113.624 127.794 136.026  0.00  0.00    +0.000 OA
ATOM      2  O   UNL     1     112.478 129.408 138.280  0.00  0.00    +0.000 OA
ATOM      3  O   UNL     1     113.365 130.824 137.765  0.00  0.00    +0.000 OA
ATOM      4  O   UNL     1     115.453 130.602 134.914  0.00  0.00    +0.000 OA
ATOM      5  C   UNL     1     112.604 127.909 137.422  0.00  0.00    +0.000 C 
ATOM      6  C   UNL     1     112.986 127.371 136.670  0.00  0.00    +0.000 C 
ATOM      7  C   UNL     1     112.860 128.870 137.529  0.00  0.00    +0.000 C 
ATOM      8  C   UNL     1     113.497 129.293 136.884  0.00  0.00    +0.000 A 
ATOM      9  C   UNL     1     113.879 128.755 136.133  0.00  0.00    +0.000 A 
ATOM     10  C   UNL     1     113.753 130.295 137.009  0.00  0.00    +0.000 A 
ATOM     11  C   UNL     1     114.544 129.182 135.455  0.00  0.00    +0.000 A 
ATOM     12  C   UNL     1     114.417 130.742 136.343  0.00  0.00    +0.000 A 
ATOM     13  C   UNL     1     114.814 130.182 135.560  0.00  0.00    +0.000 A 
ENDROOT
BRANCH   6  15
ATOM     14  O   UNL     1     111.960 123.528 136.241  0.00  0.00    +0.000 OA
ATOM     15  C   UNL     1     112.730 126.410 136.563  0.00  0.00    +0.000 A 
ATOM     16  C   UNL     1     111.839 126.171 136.179  0.00  0.00    +0.000 A 
ATOM     17  C   UNL     1     113.366 125.689 136.839  0.00  0.00    +0.000 A 
ATOM     18  C   UNL     1     111.582 125.210 136.072  0.00  0.00    +0.000 A 
ATOM     19  C   UNL     1     113.109 124.729 136.732  0.00  0.00    +0.000 A 
ATOM     20  C   UNL     1     112.218 124.489 136.348  0.00  0.00    +0.000 A 
BRANCH  18  21
ATOM     21  O   UNL     1     110.690 124.971 135.689  0.00  0.00    +0.000 OA
ATOM     22  C   UNL     1     110.146 125.664 135.216  0.00  0.00    +0.000 C 
ENDBRANCH  18  21
ENDBRANCH   6  15
BRANCH   5  23
ATOM     23  O   UNL     1     111.966 127.486 138.066  0.00  0.00    +0.000 OA
BRANCH  23  29
ATOM     24  O   UNL     1     113.178 127.424 139.371  0.00  0.00    +0.000 OA
ATOM     25  O   UNL     1     110.776 126.488 139.589  0.00  0.00    +0.000 OA
ATOM     26  O   UNL     1     112.012 126.258 141.364  0.00  0.00    +0.000 OA
ATOM     27  C   UNL     1     111.725 126.788 139.687  0.00  0.00    +0.000 C 
ATOM     28  C   UNL     1     112.293 126.682 140.503  0.00  0.00    +0.000 C 
ATOM     29  C   UNL     1     112.272 127.247 138.987  0.00  0.00    +0.000 C 
ATOM     30  C   UNL     1     113.191 127.075 140.308  0.00  0.00    +0.000 C 
BRANCH  30  32
ATOM     31  O   UNL     1     114.675 127.808 140.819  0.00  0.00    +0.000 OA
ATOM     32  C   UNL     1     113.966 127.113 140.938  0.00  0.00    +0.000 C 
ENDBRANCH  30  32
ENDBRANCH  23  29
ENDBRANCH   5  23
TORSDOF 5
ENDMDL
MODEL 2
REMARK VINA RESULT:      -8.5      2.115      5.243
REMARK  Name = 131836786
REMARK  5 active torsions:
REMARK  status: ('A' for Active; 'I' for Inactive)
REMARK    1  A    between atoms: O_2  and  C_14
REMARK    2  A    between atoms: O_2  and  C_16
REMARK    3  A    between atoms: O_9  and  C_28
REMARK    4  A    between atoms: C_15  and  C_18
REMARK    5  A    between atoms: C_17  and  C_20
REMARK                            x       y       z     vdW  Elec       q    Type
REMARK                         _______ _______ _______ _____ _____    ______ ____
ROOT
ATOM      1  O   UNL     1     113.375 126.944 136.477  0.00  0.00    +0.000 OA
ATOM      2  O   UNL     1     110.581 126.753 135.401  0.00  0.00    +0.000 OA
ATOM      3  O   UNL     1     110.520 125.043 135.765  0.00  0.00    +0.000 OA
ATOM      4  O   UNL     1     113.340 123.499 137.247  0.00  0.00    +0.000 OA
ATOM      5  C   UNL     1     111.991 127.694 135.752  0.00  0.00    +0.000 C 
ATOM      6  C   UNL     1     112.923 127.757 136.111  0.00  0.00    +0.000 C 
ATOM      7  C   UNL     1     111.512 126.816 135.759  0.00  0.00    +0.000 C 
ATOM      8  C   UNL     1     111.964 126.003 136.126  0.00  0.00    +0.000 A 
ATOM      9  C   UNL     1     112.895 126.067 136.484  0.00  0.00    +0.000 A 
ATOM     10  C   UNL     1     111.451 125.096 136.126  0.00  0.00    +0.000 A 
ATOM     11  C   UNL     1     113.378 125.228 136.868  0.00  0.00    +0.000 A 
ATOM     12  C   UNL     1     111.915 124.244 136.506  0.00  0.00    +0.000 A 
ATOM     13  C   UNL     1     112.885 124.311 136.879  0.00  0.00    +0.000 A 
ENDROOT
BRANCH   6  15
ATOM     14  O   UNL     1     114.839 131.269 136.083  0.00  0.00    +0.000 OA
ATOM     15  C   UNL     1     113.402 128.635 136.103  0.00  0.00    +0.000 A 
ATOM     16  C   UNL     1     113.489 129.164 136.947  0.00  0.00    +0.000 A 
ATOM     17  C   UNL     1     113.794 128.984 135.252  0.00  0.00    +0.000 A 
ATOM     18  C   UNL     1     113.968 130.042 136.940  0.00  0.00    +0.000 A 
ATOM     19  C   UNL     1     114.273 129.862 135.245  0.00  0.00    +0.000 A 
ATOM     20  C   UNL     1     114.360 130.391 136.089  0.00  0.00    +0.000 A 
BRANCH  18  21
ATOM     21  O   UNL     1     114.055 130.571 137.785  0.00  0.00    +0.000 OA
ATOM     22  C   UNL     1     113.570 130.280 138.609  0.00  0.00    +0.000 C 
ENDBRANCH  18  21
ENDBRANCH   6  15
BRANCH   5  23
ATOM     23  O   UNL     1     111.540 128.508 135.386  0.00  0.00    +0.000 OA
BRANCH  23  29
ATOM     24  O   UNL     1     110.611 128.809 136.876  0.00  0.00    +0.000 OA
ATOM     25  O   UNL     1     110.117 129.961 134.612  0.00  0.00    +0.000 OA
ATOM     26  O   UNL     1     108.799 130.545 136.242  0.00  0.00    +0.000 OA
ATOM     27  C   UNL     1     110.158 129.621 135.552  0.00  0.00    +0.000 C 
ATOM     28  C   UNL     1     109.552 129.890 136.301  0.00  0.00    +0.000 C 
ATOM     29  C   UNL     1     110.812 128.953 135.907  0.00  0.00    +0.000 C 
ATOM     30  C   UNL     1     109.832 129.388 137.119  0.00  0.00    +0.000 C 
BRANCH  30  32
ATOM     31  O   UNL     1     109.396 128.658 138.628  0.00  0.00    +0.000 OA
ATOM     32  C   UNL     1     109.408 129.453 138.022  0.00  0.00    +0.000 C 
ENDBRANCH  30  32
ENDBRANCH  23  29
ENDBRANCH   5  23
TORSDOF 5
ENDMDL
MODEL 3
REMARK VINA RESULT:      -8.4      2.024      4.681
REMARK  Name = 131836786
REMARK  5 active torsions:
REMARK  status: ('A' for Active; 'I' for Inactive)
REMARK    1  A    between atoms: O_2  and  C_14
REMARK    2  A    between atoms: O_2  and  C_16
REMARK    3  A    between atoms: O_9  and  C_28
REMARK    4  A    between atoms: C_15  and  C_18
REMARK    5  A    between atoms: C_17  and  C_20
REMARK                            x       y       z     vdW  Elec       q    Type
REMARK                         _______ _______ _______ _____ _____    ______ ____
ROOT
ATOM      1  O   UNL     1     111.151 126.161 136.331  0.00  0.00    +0.000 OA
ATOM      2  O   UNL     1     114.051 126.928 136.371  0.00  0.00    +0.000 OA
ATOM      3  O   UNL     1     114.516 125.289 136.762  0.00  0.00    +0.000 OA
ATOM      4  O   UNL     1     111.998 122.826 137.121  0.00  0.00    +0.000 OA
ATOM      5  C   UNL     1     112.387 127.362 136.157  0.00  0.00    +0.000 C 
ATOM      6  C   UNL     1     111.421 127.105 136.144  0.00  0.00    +0.000 C 
ATOM      7  C   UNL     1     113.084 126.673 136.358  0.00  0.00    +0.000 C 
ATOM      8  C   UNL     1     112.814 125.728 136.545  0.00  0.00    +0.000 A 
ATOM      9  C   UNL     1     111.847 125.473 136.532  0.00  0.00    +0.000 A 
ATOM     10  C   UNL     1     113.551 125.022 136.752  0.00  0.00    +0.000 A 
ATOM     11  C   UNL     1     111.551 124.493 136.725  0.00  0.00    +0.000 A 
ATOM     12  C   UNL     1     113.278 124.037 136.948  0.00  0.00    +0.000 A 
ATOM     13  C   UNL     1     112.271 123.770 136.934  0.00  0.00    +0.000 A 
ENDROOT
BRANCH   6  15
ATOM     14  O   UNL     1     108.635 129.863 135.345  0.00  0.00    +0.000 OA
ATOM     15  C   UNL     1     110.724 127.795 135.944  0.00  0.00    +0.000 A 
ATOM     16  C   UNL     1     110.207 128.214 136.690  0.00  0.00    +0.000 A 
ATOM     17  C   UNL     1     110.545 128.065 134.998  0.00  0.00    +0.000 A 
ATOM     18  C   UNL     1     109.511 128.903 136.490  0.00  0.00    +0.000 A 
ATOM     19  C   UNL     1     109.849 128.755 134.798  0.00  0.00    +0.000 A 
ATOM     20  C   UNL     1     109.332 129.173 135.544  0.00  0.00    +0.000 A 
BRANCH  18  21
ATOM     21  O   UNL     1     108.993 129.322 137.237  0.00  0.00    +0.000 OA
ATOM     22  C   UNL     1     109.440 129.509 138.111  0.00  0.00    +0.000 C 
ENDBRANCH  18  21
ENDBRANCH   6  15
BRANCH   5  23
ATOM     23  O   UNL     1     112.657 128.307 135.970  0.00  0.00    +0.000 OA
BRANCH  23  29
ATOM     24  O   UNL     1     112.889 128.701 137.692  0.00  0.00    +0.000 OA
ATOM     25  O   UNL     1     113.665 130.222 135.748  0.00  0.00    +0.000 OA
ATOM     26  O   UNL     1     114.097 130.989 137.738  0.00  0.00    +0.000 OA
ATOM     27  C   UNL     1     113.440 129.773 136.613  0.00  0.00    +0.000 C 
ATOM     28  C   UNL     1     113.638 130.125 137.527  0.00  0.00    +0.000 C 
ATOM     29  C   UNL     1     112.977 128.892 136.715  0.00  0.00    +0.000 C 
ATOM     30  C   UNL     1     113.298 129.463 138.194  0.00  0.00    +0.000 C 
BRANCH  30  32
ATOM     31  O   UNL     1     112.946 128.848 139.775  0.00  0.00    +0.000 OA
ATOM     32  C   UNL     1     113.356 129.547 139.189  0.00  0.00    +0.000 C 
ENDBRANCH  30  32
ENDBRANCH  23  29
ENDBRANCH   5  23
TORSDOF 5
ENDMDL
MODEL 4
REMARK VINA RESULT:      -8.4      1.946      4.720
REMARK  Name = 131836786
REMARK  5 active torsions:
REMARK  status: ('A' for Active; 'I' for Inactive)
REMARK    1  A    between atoms: O_2  and  C_14
REMARK    2  A    between atoms: O_2  and  C_16
REMARK    3  A    between atoms: O_9  and  C_28
REMARK    4  A    between atoms: C_15  and  C_18
REMARK    5  A    between atoms: C_17  and  C_20
REMARK                            x       y       z     vdW  Elec       q    Type
REMARK                         _______ _______ _______ _____ _____    ______ ____
ROOT
ATOM      1  O   UNL     1     111.362 129.174 135.801  0.00  0.00    +0.000 OA
ATOM      2  O   UNL     1     111.397 126.177 135.921  0.00  0.00    +0.000 OA
ATOM      3  O   UNL     1     109.649 126.120 135.904  0.00  0.00    +0.000 OA
ATOM      4  O   UNL     1     107.832 129.155 135.762  0.00  0.00    +0.000 OA
ATOM      5  C   UNL     1     112.246 127.686 135.870  0.00  0.00    +0.000 C 
ATOM      6  C   UNL     1     112.234 128.685 135.830  0.00  0.00    +0.000 C 
ATOM      7  C   UNL     1     111.386 127.176 135.881  0.00  0.00    +0.000 C 
ATOM      8  C   UNL     1     110.514 127.665 135.852  0.00  0.00    +0.000 A 
ATOM      9  C   UNL     1     110.502 128.664 135.812  0.00  0.00    +0.000 A 
ATOM     10  C   UNL     1     109.626 127.120 135.864  0.00  0.00    +0.000 A 
ATOM     11  C   UNL     1     109.603 129.187 135.780  0.00  0.00    +0.000 A 
ATOM     12  C   UNL     1     108.715 127.622 135.833  0.00  0.00    +0.000 A 
ATOM     13  C   UNL     1     108.702 128.663 135.791  0.00  0.00    +0.000 A 
ENDROOT
BRANCH   6  15
ATOM     14  O   UNL     1     115.676 130.724 135.790  0.00  0.00    +0.000 OA
ATOM     15  C   UNL     1     113.095 129.195 135.819  0.00  0.00    +0.000 A 
ATOM     16  C   UNL     1     113.405 129.668 136.644  0.00  0.00    +0.000 A 
ATOM     17  C   UNL     1     113.644 129.231 134.985  0.00  0.00    +0.000 A 
ATOM     18  C   UNL     1     114.265 130.178 136.634  0.00  0.00    +0.000 A 
ATOM     19  C   UNL     1     114.505 129.741 134.975  0.00  0.00    +0.000 A 
ATOM     20  C   UNL     1     114.815 130.214 135.799  0.00  0.00    +0.000 A 
BRANCH  18  21
ATOM     21  O   UNL     1     114.576 130.651 137.458  0.00  0.00    +0.000 OA
ATOM     22  C   UNL     1     114.019 130.627 138.288  0.00  0.00    +0.000 C 
ENDBRANCH  18  21
ENDBRANCH   6  15
BRANCH   5  23
ATOM     23  O   UNL     1     113.118 127.197 135.900  0.00  0.00    +0.000 OA
BRANCH  23  29
ATOM     24  O   UNL     1     112.991 126.859 137.645  0.00  0.00    +0.000 OA
ATOM     25  O   UNL     1     114.785 125.813 136.100  0.00  0.00    +0.000 OA
ATOM     26  O   UNL     1     114.900 125.197 138.184  0.00  0.00    +0.000 OA
ATOM     27  C   UNL     1     114.178 126.113 136.837  0.00  0.00    +0.000 C 
ATOM     28  C   UNL     1     114.231 125.830 137.794  0.00  0.00    +0.000 C 
ATOM     29  C   UNL     1     113.412 126.749 136.744  0.00  0.00    +0.000 C 
ATOM     30  C   UNL     1     113.498 126.291 138.294  0.00  0.00    +0.000 C 
BRANCH  30  32
ATOM     31  O   UNL     1     112.361 126.237 139.599  0.00  0.00    +0.000 OA
ATOM     32  C   UNL     1     113.304 126.200 139.271  0.00  0.00    +0.000 C 
ENDBRANCH  30  32
ENDBRANCH  23  29
ENDBRANCH   5  23
TORSDOF 5
ENDMDL
MODEL 5
REMARK VINA RESULT:      -8.3      1.972      3.068
REMARK  Name = 131836786
REMARK  5 active torsions:
REMARK  status: ('A' for Active; 'I' for Inactive)
REMARK    1  A    between atoms: O_2  and  C_14
REMARK    2  A    between atoms: O_2  and  C_16
REMARK    3  A    between atoms: O_9  and  C_28
REMARK    4  A    between atoms: C_15  and  C_18
REMARK    5  A    between atoms: C_17  and  C_20
REMARK                            x       y       z     vdW  Elec       q    Type
REMARK                         _______ _______ _______ _____ _____    ______ ____
ROOT
ATOM      1  O   UNL     1     112.861 128.587 135.262  0.00  0.00    +0.000 OA
ATOM      2  O   UNL     1     112.725 129.648 138.065  0.00  0.00    +0.000 OA
ATOM      3  O   UNL     1     114.124 130.661 137.787  0.00  0.00    +0.000 OA
ATOM      4  O   UNL     1     115.690 130.596 134.612  0.00  0.00    +0.000 OA
ATOM      5  C   UNL     1     112.099 128.622 136.818  0.00  0.00    +0.000 C 
ATOM      6  C   UNL     1     112.145 128.269 135.883  0.00  0.00    +0.000 C 
ATOM      7  C   UNL     1     112.770 129.295 137.130  0.00  0.00    +0.000 C 
ATOM      8  C   UNL     1     113.486 129.613 136.509  0.00  0.00    +0.000 A 
ATOM      9  C   UNL     1     113.532 129.259 135.575  0.00  0.00    +0.000 A 
ATOM     10  C   UNL     1     114.178 130.313 136.850  0.00  0.00    +0.000 A 
ATOM     11  C   UNL     1     114.272 129.580 134.917  0.00  0.00    +0.000 A 
ATOM     12  C   UNL     1     114.927 130.649 136.209  0.00  0.00    +0.000 A 
ATOM     13  C   UNL     1     114.974 130.280 135.236  0.00  0.00    +0.000 A 
ENDROOT
BRANCH   6  15
ATOM     14  O   UNL     1     109.460 125.578 134.635  0.00  0.00    +0.000 OA
ATOM     15  C   UNL     1     111.473 127.597 135.571  0.00  0.00    +0.000 A 
ATOM     16  C   UNL     1     111.539 126.646 135.874  0.00  0.00    +0.000 A 
ATOM     17  C   UNL     1     110.736 127.875 134.955  0.00  0.00    +0.000 A 
ATOM     18  C   UNL     1     110.868 125.974 135.562  0.00  0.00    +0.000 A 
ATOM     19  C   UNL     1     110.065 127.202 134.643  0.00  0.00    +0.000 A 
ATOM     20  C   UNL     1     110.131 126.252 134.947  0.00  0.00    +0.000 A 
BRANCH  18  21
ATOM     21  O   UNL     1     110.934 125.023 135.866  0.00  0.00    +0.000 OA
ATOM     22  C   UNL     1     111.752 124.708 136.347  0.00  0.00    +0.000 C 
ENDBRANCH  18  21
ENDBRANCH   6  15
BRANCH   5  23
ATOM     23  O   UNL     1     111.382 128.304 137.439  0.00  0.00    +0.000 OA
BRANCH  23  29
ATOM     24  O   UNL     1     110.415 129.791 137.269  0.00  0.00    +0.000 OA
ATOM     25  O   UNL     1     109.984 127.989 139.075  0.00  0.00    +0.000 OA
ATOM     26  O   UNL     1     108.625 129.688 139.134  0.00  0.00    +0.000 OA
ATOM     27  C   UNL     1     109.999 128.776 138.458  0.00  0.00    +0.000 C 
ATOM     28  C   UNL     1     109.375 129.557 138.486  0.00  0.00    +0.000 C 
ATOM     29  C   UNL     1     110.642 128.921 137.706  0.00  0.00    +0.000 C 
ATOM     30  C   UNL     1     109.632 130.184 137.751  0.00  0.00    +0.000 C 
BRANCH  30  32
ATOM     31  O   UNL     1     109.367 131.506 136.663  0.00  0.00    +0.000 OA
ATOM     32  C   UNL     1     109.184 131.052 137.535  0.00  0.00    +0.000 C 
ENDBRANCH  30  32
ENDBRANCH  23  29
ENDBRANCH   5  23
TORSDOF 5
ENDMDL
MODEL 6
REMARK VINA RESULT:      -8.2      1.765      4.839
REMARK  Name = 131836786
REMARK  5 active torsions:
REMARK  status: ('A' for Active; 'I' for Inactive)
REMARK    1  A    between atoms: O_2  and  C_14
REMARK    2  A    between atoms: O_2  and  C_16
REMARK    3  A    between atoms: O_9  and  C_28
REMARK    4  A    between atoms: C_15  and  C_18
REMARK    5  A    between atoms: C_17  and  C_20
REMARK                            x       y       z     vdW  Elec       q    Type
REMARK                         _______ _______ _______ _____ _____    ______ ____
ROOT
ATOM      1  O   UNL     1     112.958 126.803 139.415  0.00  0.00    +0.000 OA
ATOM      2  O   UNL     1     110.248 125.529 139.243  0.00  0.00    +0.000 OA
ATOM      3  O   UNL     1     109.780 126.232 140.774  0.00  0.00    +0.000 OA
ATOM      4  O   UNL     1     112.101 128.263 142.513  0.00  0.00    +0.000 OA
ATOM      5  C   UNL     1     111.818 125.810 138.569  0.00  0.00    +0.000 C 
ATOM      6  C   UNL     1     112.722 126.235 138.627  0.00  0.00    +0.000 C 
ATOM      7  C   UNL     1     111.151 125.953 139.300  0.00  0.00    +0.000 C 
ATOM      8  C   UNL     1     111.387 126.521 140.089  0.00  0.00    +0.000 A 
ATOM      9  C   UNL     1     112.291 126.946 140.146  0.00  0.00    +0.000 A 
ATOM     10  C   UNL     1     110.681 126.661 140.842  0.00  0.00    +0.000 A 
ATOM     11  C   UNL     1     112.551 127.540 140.961  0.00  0.00    +0.000 A 
ATOM     12  C   UNL     1     110.920 127.252 141.666  0.00  0.00    +0.000 A 
ATOM     13  C   UNL     1     111.861 127.694 141.726  0.00  0.00    +0.000 A 
ENDROOT
BRANCH   6  15
ATOM     14  O   UNL     1     115.389 125.663 135.701  0.00  0.00    +0.000 OA
ATOM     15  C   UNL     1     113.389 126.091 137.896  0.00  0.00    +0.000 A 
ATOM     16  C   UNL     1     113.555 126.812 137.222  0.00  0.00    +0.000 A 
ATOM     17  C   UNL     1     113.890 125.228 137.837  0.00  0.00    +0.000 A 
ATOM     18  C   UNL     1     114.221 126.669 136.491  0.00  0.00    +0.000 A 
ATOM     19  C   UNL     1     114.556 125.085 137.106  0.00  0.00    +0.000 A 
ATOM     20  C   UNL     1     114.722 125.805 136.433  0.00  0.00    +0.000 A 
BRANCH  18  21
ATOM     21  O   UNL     1     114.387 127.389 135.818  0.00  0.00    +0.000 OA
ATOM     22  C   UNL     1     113.847 128.230 135.842  0.00  0.00    +0.000 C 
ENDBRANCH  18  21
ENDBRANCH   6  15
BRANCH   5  23
ATOM     23  O   UNL     1     111.582 125.242 137.780  0.00  0.00    +0.000 OA
BRANCH  23  29
ATOM     24  O   UNL     1     110.443 126.443 137.121  0.00  0.00    +0.000 OA
ATOM     25  O   UNL     1     111.214 124.331 135.839  0.00  0.00    +0.000 OA
ATOM     26  O   UNL     1     109.816 125.599 134.756  0.00  0.00    +0.000 OA
ATOM     27  C   UNL     1     110.811 125.183 136.175  0.00  0.00    +0.000 C 
ATOM     28  C   UNL     1     110.169 125.766 135.677  0.00  0.00    +0.000 C 
ATOM     29  C   UNL     1     110.981 125.601 137.067  0.00  0.00    +0.000 C 
ATOM     30  C   UNL     1     109.941 126.544 136.262  0.00  0.00    +0.000 C 
BRANCH  30  32
ATOM     31  O   UNL     1     108.803 127.756 136.747  0.00  0.00    +0.000 OA
ATOM     32  C   UNL     1     109.321 127.293 136.028  0.00  0.00    +0.000 C 
ENDBRANCH  30  32
ENDBRANCH  23  29
ENDBRANCH   5  23
TORSDOF 5
ENDMDL
MODEL 7
REMARK VINA RESULT:      -8.0      1.634      4.293
REMARK  Name = 131836786
REMARK  5 active torsions:
REMARK  status: ('A' for Active; 'I' for Inactive)
REMARK    1  A    between atoms: O_2  and  C_14
REMARK    2  A    between atoms: O_2  and  C_16
REMARK    3  A    between atoms: O_9  and  C_28
REMARK    4  A    between atoms: C_15  and  C_18
REMARK    5  A    between atoms: C_17  and  C_20
REMARK                            x       y       z     vdW  Elec       q    Type
REMARK                         _______ _______ _______ _____ _____    ______ ____
ROOT
ATOM      1  O   UNL     1     112.428 126.734 139.791  0.00  0.00    +0.000 OA
ATOM      2  O   UNL     1     113.203 129.513 138.971  0.00  0.00    +0.000 OA
ATOM      3  O   UNL     1     112.648 130.157 140.499  0.00  0.00    +0.000 OA
ATOM      4  O   UNL     1     111.283 127.945 142.903  0.00  0.00    +0.000 OA
ATOM      5  C   UNL     1     113.095 127.821 138.619  0.00  0.00    +0.000 C 
ATOM      6  C   UNL     1     112.837 126.894 138.893  0.00  0.00    +0.000 C 
ATOM      7  C   UNL     1     112.944 128.587 139.244  0.00  0.00    +0.000 C 
ATOM      8  C   UNL     1     112.536 128.426 140.143  0.00  0.00    +0.000 A 
ATOM      9  C   UNL     1     112.278 127.500 140.416  0.00  0.00    +0.000 A 
ATOM     10  C   UNL     1     112.386 129.234 140.783  0.00  0.00    +0.000 A 
ATOM     11  C   UNL     1     111.852 127.317 141.348  0.00  0.00    +0.000 A 
ATOM     12  C   UNL     1     111.961 129.075 141.720  0.00  0.00    +0.000 A 
ATOM     13  C   UNL     1     111.692 128.110 142.005  0.00  0.00    +0.000 A 
ENDROOT
BRANCH   6  15
ATOM     14  O   UNL     1     113.436 123.832 136.390  0.00  0.00    +0.000 OA
ATOM     15  C   UNL     1     112.987 126.128 138.267  0.00  0.00    +0.000 A 
ATOM     16  C   UNL     1     112.221 125.750 137.748  0.00  0.00    +0.000 A 
ATOM     17  C   UNL     1     113.903 125.742 138.161  0.00  0.00    +0.000 A 
ATOM     18  C   UNL     1     112.371 124.985 137.122  0.00  0.00    +0.000 A 
ATOM     19  C   UNL     1     114.053 124.976 137.536  0.00  0.00    +0.000 A 
ATOM     20  C   UNL     1     113.287 124.598 137.016  0.00  0.00    +0.000 A 
BRANCH  18  21
ATOM     21  O   UNL     1     111.605 124.606 136.603  0.00  0.00    +0.000 OA
ATOM     22  C   UNL     1     110.900 125.214 136.236  0.00  0.00    +0.000 C 
ENDBRANCH  18  21
ENDBRANCH   6  15
BRANCH   5  23
ATOM     23  O   UNL     1     113.504 127.981 137.720  0.00  0.00    +0.000 OA
BRANCH  23  29
ATOM     24  O   UNL     1     111.995 128.654 137.051  0.00  0.00    +0.000 OA
ATOM     25  O   UNL     1     114.204 128.460 135.717  0.00  0.00    +0.000 OA
ATOM     26  O   UNL     1     112.542 129.326 134.612  0.00  0.00    +0.000 OA
ATOM     27  C   UNL     1     113.280 128.612 136.068  0.00  0.00    +0.000 C 
ATOM     28  C   UNL     1     112.517 129.010 135.561  0.00  0.00    +0.000 C 
ATOM     29  C   UNL     1     112.958 128.392 136.989  0.00  0.00    +0.000 C 
ATOM     30  C   UNL     1     111.722 129.036 136.168  0.00  0.00    +0.000 C 
BRANCH  30  32
ATOM     31  O   UNL     1     110.079 129.358 136.610  0.00  0.00    +0.000 OA
ATOM     32  C   UNL     1     110.815 129.384 135.933  0.00  0.00    +0.000 C 
ENDBRANCH  30  32
ENDBRANCH  23  29
ENDBRANCH   5  23
TORSDOF 5
ENDMDL
MODEL 8
REMARK VINA RESULT:      -8.0      2.408      5.269
REMARK  Name = 131836786
REMARK  5 active torsions:
REMARK  status: ('A' for Active; 'I' for Inactive)
REMARK    1  A    between atoms: O_2  and  C_14
REMARK    2  A    between atoms: O_2  and  C_16
REMARK    3  A    between atoms: O_9  and  C_28
REMARK    4  A    between atoms: C_15  and  C_18
REMARK    5  A    between atoms: C_17  and  C_20
REMARK                            x       y       z     vdW  Elec       q    Type
REMARK                         _______ _______ _______ _____ _____    ______ ____
ROOT
ATOM      1  O   UNL     1     113.571 127.142 139.042  0.00  0.00    +0.000 OA
ATOM      2  O   UNL     1     110.808 126.388 138.150  0.00  0.00    +0.000 OA
ATOM      3  O   UNL     1     111.431 125.015 137.263  0.00  0.00    +0.000 OA
ATOM      4  O   UNL     1     114.916 124.394 137.280  0.00  0.00    +0.000 OA
ATOM      5  C   UNL     1     111.864 127.440 139.031  0.00  0.00    +0.000 C 
ATOM      6  C   UNL     1     112.786 127.691 139.328  0.00  0.00    +0.000 C 
ATOM      7  C   UNL     1     111.729 126.639 138.448  0.00  0.00    +0.000 C 
ATOM      8  C   UNL     1     112.514 126.089 138.162  0.00  0.00    +0.000 A 
ATOM      9  C   UNL     1     113.435 126.341 138.460  0.00  0.00    +0.000 A 
ATOM     10  C   UNL     1     112.357 125.258 137.555  0.00  0.00    +0.000 A 
ATOM     11  C   UNL     1     114.262 125.778 138.171  0.00  0.00    +0.000 A 
ATOM     12  C   UNL     1     113.169 124.681 137.254  0.00  0.00    +0.000 A 
ATOM     13  C   UNL     1     114.128 124.942 137.563  0.00  0.00    +0.000 A 
ENDROOT
BRANCH   6  15
ATOM     14  O   UNL     1     113.326 130.895 141.662  0.00  0.00    +0.000 OA
ATOM     15  C   UNL     1     112.921 128.493 139.911  0.00  0.00    +0.000 A 
ATOM     16  C   UNL     1     112.614 128.476 140.862  0.00  0.00    +0.000 A 
ATOM     17  C   UNL     1     113.364 129.311 139.543  0.00  0.00    +0.000 A 
ATOM     18  C   UNL     1     112.749 129.276 141.446  0.00  0.00    +0.000 A 
ATOM     19  C   UNL     1     113.498 130.111 140.126  0.00  0.00    +0.000 A 
ATOM     20  C   UNL     1     113.191 130.094 141.078  0.00  0.00    +0.000 A 
BRANCH  18  21
ATOM     21  O   UNL     1     112.442 129.259 142.397  0.00  0.00    +0.000 OA
ATOM     22  C   UNL     1     111.785 128.569 142.698  0.00  0.00    +0.000 C 
ENDBRANCH  18  21
ENDBRANCH   6  15
BRANCH   5  23
ATOM     23  O   UNL     1     111.079 127.990 139.316  0.00  0.00    +0.000 OA
BRANCH  23  29
ATOM     24  O   UNL     1     110.979 128.859 137.763  0.00  0.00    +0.000 OA
ATOM     25  O   UNL     1     109.138 128.935 139.581  0.00  0.00    +0.000 OA
ATOM     26  O   UNL     1     108.712 130.106 137.797  0.00  0.00    +0.000 OA
ATOM     27  C   UNL     1     109.730 129.024 138.780  0.00  0.00    +0.000 C 
ATOM     28  C   UNL     1     109.535 129.562 137.960  0.00  0.00    +0.000 C 
ATOM     29  C   UNL     1     110.623 128.589 138.658  0.00  0.00    +0.000 C 
ATOM     30  C   UNL     1     110.306 129.460 137.332  0.00  0.00    +0.000 C 
BRANCH  30  32
ATOM     31  O   UNL     1     111.177 129.676 135.851  0.00  0.00    +0.000 OA
ATOM     32  C   UNL     1     110.390 129.885 136.431  0.00  0.00    +0.000 C 
ENDBRANCH  30  32
ENDBRANCH  23  29
ENDBRANCH   5  23
TORSDOF 5
ENDMDL
MODEL 9
REMARK VINA RESULT:      -7.9      1.723      4.519
REMARK  Name = 131836786
REMARK  5 active torsions:
REMARK  status: ('A' for Active; 'I' for Inactive)
REMARK    1  A    between atoms: O_2  and  C_14
REMARK    2  A    between atoms: O_2  and  C_16
REMARK    3  A    between atoms: O_9  and  C_28
REMARK    4  A    between atoms: C_15  and  C_18
REMARK    5  A    between atoms: C_17  and  C_20
REMARK                            x       y       z     vdW  Elec       q    Type
REMARK                         _______ _______ _______ _____ _____    ______ ____
ROOT
ATOM      1  O   UNL     1     111.481 126.367 139.641  0.00  0.00    +0.000 OA
ATOM      2  O   UNL     1     110.356 128.701 138.130  0.00  0.00    +0.000 OA
ATOM      3  O   UNL     1     109.169 128.985 139.383  0.00  0.00    +0.000 OA
ATOM      4  O   UNL     1     109.121 126.866 142.218  0.00  0.00    +0.000 OA
ATOM      5  C   UNL     1     111.500 127.407 138.256  0.00  0.00    +0.000 C 
ATOM      6  C   UNL     1     111.875 126.629 138.760  0.00  0.00    +0.000 C 
ATOM      7  C   UNL     1     110.731 127.923 138.634  0.00  0.00    +0.000 C 
ATOM      8  C   UNL     1     110.338 127.661 139.515  0.00  0.00    +0.000 A 
ATOM      9  C   UNL     1     110.713 126.883 140.019  0.00  0.00    +0.000 A 
ATOM     10  C   UNL     1     109.537 128.209 139.895  0.00  0.00    +0.000 A 
ATOM     11  C   UNL     1     110.313 126.598 140.937  0.00  0.00    +0.000 A 
ATOM     12  C   UNL     1     109.122 127.941 140.812  0.00  0.00    +0.000 A 
ATOM     13  C   UNL     1     109.512 127.131 141.336  0.00  0.00    +0.000 A 
ENDROOT
BRANCH   6  15
ATOM     14  O   UNL     1     114.949 124.564 137.247  0.00  0.00    +0.000 OA
ATOM     15  C   UNL     1     112.644 126.113 138.382  0.00  0.00    +0.000 A 
ATOM     16  C   UNL     1     112.484 125.427 137.673  0.00  0.00    +0.000 A 
ATOM     17  C   UNL     1     113.572 126.283 138.714  0.00  0.00    +0.000 A 
ATOM     18  C   UNL     1     113.253 124.910 137.294  0.00  0.00    +0.000 A 
ATOM     19  C   UNL     1     114.340 125.766 138.335  0.00  0.00    +0.000 A 
ATOM     20  C   UNL     1     114.181 125.080 137.626  0.00  0.00    +0.000 A 
BRANCH  18  21
ATOM     21  O   UNL     1     113.093 124.224 136.585  0.00  0.00    +0.000 OA
ATOM     22  C   UNL     1     112.192 123.800 136.493  0.00  0.00    +0.000 C 
ENDBRANCH  18  21
ENDBRANCH   6  15
BRANCH   5  23
ATOM     23  O   UNL     1     111.894 127.669 137.375  0.00  0.00    +0.000 OA
BRANCH  23  29
ATOM     24  O   UNL     1     112.685 129.115 138.052  0.00  0.00    +0.000 OA
ATOM     25  O   UNL     1     112.785 128.454 135.552  0.00  0.00    +0.000 OA
ATOM     26  O   UNL     1     113.857 130.278 136.059  0.00  0.00    +0.000 OA
ATOM     27  C   UNL     1     112.856 128.860 136.463  0.00  0.00    +0.000 C 
ATOM     28  C   UNL     1     113.348 129.699 136.696  0.00  0.00    +0.000 C 
ATOM     29  C   UNL     1     112.446 128.499 137.301  0.00  0.00    +0.000 C 
ATOM     30  C   UNL     1     113.242 129.856 137.678  0.00  0.00    +0.000 C 
BRANCH  30  32
ATOM     31  O   UNL     1     113.453 130.698 139.177  0.00  0.00    +0.000 OA
ATOM     32  C   UNL     1     113.627 130.621 138.195  0.00  0.00    +0.000 C 
ENDBRANCH  30  32
ENDBRANCH  23  29
ENDBRANCH   5  23
TORSDOF 5
ENDMDL
MODEL 10
REMARK VINA RESULT:      -7.9      2.290      2.975
REMARK  Name = 131836786
REMARK  5 active torsions:
REMARK  status: ('A' for Active; 'I' for Inactive)
REMARK    1  A    between atoms: O_2  and  C_14
REMARK    2  A    between atoms: O_2  and  C_16
REMARK    3  A    between atoms: O_9  and  C_28
REMARK    4  A    between atoms: C_15  and  C_18
REMARK    5  A    between atoms: C_17  and  C_20
REMARK                            x       y       z     vdW  Elec       q    Type
REMARK                         _______ _______ _______ _____ _____    ______ ____
ROOT
ATOM      1  O   UNL     1     111.269 128.012 136.044  0.00  0.00    +0.000 OA
ATOM      2  O   UNL     1     110.001 128.405 138.734  0.00  0.00    +0.000 OA
ATOM      3  O   UNL     1     108.862 129.553 138.069  0.00  0.00    +0.000 OA
ATOM      4  O   UNL     1     109.010 130.318 134.615  0.00  0.00    +0.000 OA
ATOM      5  C   UNL     1     111.192 127.642 137.735  0.00  0.00    +0.000 C 
ATOM      6  C   UNL     1     111.614 127.511 136.837  0.00  0.00    +0.000 C 
ATOM      7  C   UNL     1     110.424 128.274 137.837  0.00  0.00    +0.000 C 
ATOM      8  C   UNL     1     110.079 128.775 137.044  0.00  0.00    +0.000 A 
ATOM      9  C   UNL     1     110.501 128.644 136.147  0.00  0.00    +0.000 A 
ATOM     10  C   UNL     1     109.278 129.430 137.167  0.00  0.00    +0.000 A 
ATOM     11  C   UNL     1     110.152 129.158 135.312  0.00  0.00    +0.000 A 
ATOM     12  C   UNL     1     108.913 129.955 136.345  0.00  0.00    +0.000 A 
ATOM     13  C   UNL     1     109.352 129.818 135.411  0.00  0.00    +0.000 A 
ENDROOT
BRANCH   6  15
ATOM     14  O   UNL     1     114.685 124.980 136.428  0.00  0.00    +0.000 OA
ATOM     15  C   UNL     1     112.383 126.879 136.735  0.00  0.00    +0.000 A 
ATOM     16  C   UNL     1     112.227 125.892 136.777  0.00  0.00    +0.000 A 
ATOM     17  C   UNL     1     113.307 127.233 136.590  0.00  0.00    +0.000 A 
ATOM     18  C   UNL     1     112.994 125.260 136.675  0.00  0.00    +0.000 A 
ATOM     19  C   UNL     1     114.074 126.600 136.488  0.00  0.00    +0.000 A 
ATOM     20  C   UNL     1     113.918 125.614 136.530  0.00  0.00    +0.000 A 
BRANCH  18  21
ATOM     21  O   UNL     1     112.838 124.273 136.717  0.00  0.00    +0.000 OA
ATOM     22  C   UNL     1     111.927 123.903 136.536  0.00  0.00    +0.000 C 
ENDBRANCH  18  21
ENDBRANCH   6  15
BRANCH   5  23
ATOM     23  O   UNL     1     111.538 127.141 138.528  0.00  0.00    +0.000 OA
BRANCH  23  29
ATOM     24  O   UNL     1     112.389 128.564 139.181  0.00  0.00    +0.000 OA
ATOM     25  O   UNL     1     112.179 126.309 140.433  0.00  0.00    +0.000 OA
ATOM     26  O   UNL     1     113.283 127.850 141.502  0.00  0.00    +0.000 OA
ATOM     27  C   UNL     1     112.360 127.237 140.106  0.00  0.00    +0.000 C 
ATOM     28  C   UNL     1     112.867 127.945 140.598  0.00  0.00    +0.000 C 
ATOM     29  C   UNL     1     112.065 127.619 139.231  0.00  0.00    +0.000 C 
ATOM     30  C   UNL     1     112.885 128.765 140.026  0.00  0.00    +0.000 C 
BRANCH  30  32
ATOM     31  O   UNL     1     113.015 130.480 139.823  0.00  0.00    +0.000 OA
ATOM     32  C   UNL     1     113.322 129.634 140.258  0.00  0.00    +0.000 C 
ENDBRANCH  30  32
ENDBRANCH  23  29
ENDBRANCH   5  23
TORSDOF 5
ENDMDL
