MODEL 1
REMARK VINA RESULT:      -9.1      0.000      0.000
REMARK  Name = 44258361
REMARK  5 active torsions:
REMARK  status: ('A' for Active; 'I' for Inactive)
REMARK    1  A    between atoms: O_7  and  C_19
REMARK    2  A    between atoms: O_10  and  C_32
REMARK    3  A    between atoms: C_13  and  C_16
REMARK    4  A    between atoms: C_15  and  C_17
REMARK    5  A    between atoms: C_24  and  C_26
REMARK                            x       y       z     vdW  Elec       q    Type
REMARK                         _______ _______ _______ _____ _____    ______ ____
ROOT
ATOM      1  O   UNL     1     112.401 126.915 136.333  0.00  0.00    +0.000 OA
ATOM      2  O   UNL     1     110.303 125.292 135.174  0.00  0.00    +0.000 OA
ATOM      3  O   UNL     1     110.397 126.683 134.802  0.00  0.00    +0.000 OA
ATOM      4  C   UNL     1     112.262 125.510 136.673  0.00  0.00    +0.000 A 
ATOM      5  C   UNL     1     111.992 126.164 136.247  0.00  0.00    +0.000 A 
ATOM      6  C   UNL     1     111.877 124.783 136.598  0.00  0.00    +0.000 A 
ATOM      7  C   UNL     1     111.340 126.091 135.748  0.00  0.00    +0.000 A 
ATOM      8  C   UNL     1     111.225 124.711 136.099  0.00  0.00    +0.000 A 
ATOM      9  C   UNL     1     110.956 125.364 135.674  0.00  0.00    +0.000 A 
ATOM     10  C   UNL     1     111.050 126.764 135.300  0.00  0.00    +0.000 A 
ATOM     11  C   UNL     1     112.125 127.600 135.892  0.00  0.00    +0.000 A 
ATOM     12  C   UNL     1     111.446 127.524 135.372  0.00  0.00    +0.000 A 
ENDROOT
BRANCH   4  19
ATOM     13  O   UNL     1     112.819 125.886 137.933  0.00  0.00    +0.000 OA
ATOM     14  O   UNL     1     113.756 125.047 136.148  0.00  0.00    +0.000 OA
ATOM     15  O   UNL     1     115.061 125.193 137.147  0.00  0.00    +0.000 OA
ATOM     16  O   UNL     1     114.872 125.800 138.670  0.00  0.00    +0.000 OA
ATOM     17  C   UNL     1     113.661 125.351 136.910  0.00  0.00    +0.000 C 
ATOM     18  C   UNL     1     114.314 125.424 137.409  0.00  0.00    +0.000 C 
ATOM     19  C   UNL     1     112.913 125.582 137.171  0.00  0.00    +0.000 C 
ATOM     20  C   UNL     1     114.219 125.727 138.170  0.00  0.00    +0.000 C 
ATOM     21  C   UNL     1     113.472 125.959 138.433  0.00  0.00    +0.000 C 
BRANCH  21  23
ATOM     22  O   UNL     1     112.660 126.161 139.591  0.00  0.00    +0.000 OA
ATOM     23  C   UNL     1     113.377 126.262 139.193  0.00  0.00    +0.000 C 
ENDBRANCH  21  23
ENDBRANCH   4  19
BRANCH  11  24
ATOM     24  C   UNL     1     112.511 128.325 135.968  0.00  0.00    +0.000 A 
ATOM     25  C   UNL     1     112.245 128.879 136.518  0.00  0.00    +0.000 A 
ATOM     26  C   UNL     1     113.164 128.497 135.494  0.00  0.00    +0.000 A 
ATOM     27  C   UNL     1     112.631 129.604 136.594  0.00  0.00    +0.000 A 
ATOM     28  C   UNL     1     113.551 129.221 135.569  0.00  0.00    +0.000 A 
ATOM     29  C   UNL     1     113.283 129.776 136.120  0.00  0.00    +0.000 A 
BRANCH  29  30
ATOM     30  O   UNL     1     113.669 130.500 136.195  0.00  0.00    +0.000 OA
ATOM     31  C   UNL     1     114.075 130.681 136.891  0.00  0.00    +0.000 C 
ENDBRANCH  29  30
ENDBRANCH  11  24
BRANCH   6  32
ATOM     32  O   UNL     1     112.146 124.129 137.024  0.00  0.00    +0.000 OA
ATOM     33  C   UNL     1     111.708 123.430 137.025  0.00  0.00    +0.000 C 
ENDBRANCH   6  32
TORSDOF 5
ENDMDL
MODEL 2
REMARK VINA RESULT:      -9.1      1.946      4.420
REMARK  Name = 44258361
REMARK  5 active torsions:
REMARK  status: ('A' for Active; 'I' for Inactive)
REMARK    1  A    between atoms: O_7  and  C_19
REMARK    2  A    between atoms: O_10  and  C_32
REMARK    3  A    between atoms: C_13  and  C_16
REMARK    4  A    between atoms: C_15  and  C_17
REMARK    5  A    between atoms: C_24  and  C_26
REMARK                            x       y       z     vdW  Elec       q    Type
REMARK                         _______ _______ _______ _____ _____    ______ ____
ROOT
ATOM      1  O   UNL     1     110.527 127.473 136.098  0.00  0.00    +0.000 OA
ATOM      2  O   UNL     1     107.988 128.830 135.794  0.00  0.00    +0.000 OA
ATOM      3  O   UNL     1     108.003 127.391 135.910  0.00  0.00    +0.000 OA
ATOM      4  C   UNL     1     110.455 128.919 135.977  0.00  0.00    +0.000 A 
ATOM      5  C   UNL     1     110.065 128.192 136.005  0.00  0.00    +0.000 A 
ATOM      6  C   UNL     1     110.022 129.615 135.888  0.00  0.00    +0.000 A 
ATOM      7  C   UNL     1     109.243 128.162 135.944  0.00  0.00    +0.000 A 
ATOM      8  C   UNL     1     109.200 129.586 135.827  0.00  0.00    +0.000 A 
ATOM      9  C   UNL     1     108.811 128.859 135.855  0.00  0.00    +0.000 A 
ATOM     10  C   UNL     1     108.826 127.412 135.972  0.00  0.00    +0.000 A 
ATOM     11  C   UNL     1     110.127 126.713 136.128  0.00  0.00    +0.000 A 
ATOM     12  C   UNL     1     109.271 126.682 136.064  0.00  0.00    +0.000 A 
ENDROOT
BRANCH   4  19
ATOM     13  O   UNL     1     111.635 128.960 136.782  0.00  0.00    +0.000 OA
ATOM     14  O   UNL     1     111.382 128.955 134.613  0.00  0.00    +0.000 OA
ATOM     15  O   UNL     1     113.027 129.014 134.736  0.00  0.00    +0.000 OA
ATOM     16  O   UNL     1     113.744 129.038 136.222  0.00  0.00    +0.000 OA
ATOM     17  C   UNL     1     111.741 128.967 135.357  0.00  0.00    +0.000 C 
ATOM     18  C   UNL     1     112.563 128.996 135.418  0.00  0.00    +0.000 C 
ATOM     19  C   UNL     1     111.277 128.949 136.038  0.00  0.00    +0.000 C 
ATOM     20  C   UNL     1     112.921 129.008 136.161  0.00  0.00    +0.000 C 
ATOM     21  C   UNL     1     112.458 128.990 136.843  0.00  0.00    +0.000 C 
BRANCH  21  23
ATOM     22  O   UNL     1     112.386 129.250 138.247  0.00  0.00    +0.000 OA
ATOM     23  C   UNL     1     112.815 129.002 137.586  0.00  0.00    +0.000 C 
ENDBRANCH  21  23
ENDBRANCH   4  19
BRANCH  11  24
ATOM     24  C   UNL     1     110.562 126.018 136.217  0.00  0.00    +0.000 A 
ATOM     25  C   UNL     1     110.766 125.752 136.971  0.00  0.00    +0.000 A 
ATOM     26  C   UNL     1     110.792 125.587 135.552  0.00  0.00    +0.000 A 
ATOM     27  C   UNL     1     111.201 125.057 137.060  0.00  0.00    +0.000 A 
ATOM     28  C   UNL     1     111.227 124.892 135.640  0.00  0.00    +0.000 A 
ATOM     29  C   UNL     1     111.432 124.626 136.395  0.00  0.00    +0.000 A 
BRANCH  29  30
ATOM     30  O   UNL     1     111.866 123.932 136.483  0.00  0.00    +0.000 OA
ATOM     31  C   UNL     1     112.662 123.968 136.697  0.00  0.00    +0.000 C 
ENDBRANCH  29  30
ENDBRANCH  11  24
BRANCH   6  32
ATOM     32  O   UNL     1     110.413 130.342 135.860  0.00  0.00    +0.000 OA
ATOM     33  C   UNL     1     109.981 131.044 135.910  0.00  0.00    +0.000 C 
ENDBRANCH   6  32
TORSDOF 5
ENDMDL
MODEL 3
REMARK VINA RESULT:      -9.0      1.384      2.719
REMARK  Name = 44258361
REMARK  5 active torsions:
REMARK  status: ('A' for Active; 'I' for Inactive)
REMARK    1  A    between atoms: O_7  and  C_19
REMARK    2  A    between atoms: O_10  and  C_32
REMARK    3  A    between atoms: C_13  and  C_16
REMARK    4  A    between atoms: C_15  and  C_17
REMARK    5  A    between atoms: C_24  and  C_26
REMARK                            x       y       z     vdW  Elec       q    Type
REMARK                         _______ _______ _______ _____ _____    ______ ____
ROOT
ATOM      1  O   UNL     1     112.649 126.678 136.873  0.00  0.00    +0.000 OA
ATOM      2  O   UNL     1     114.400 124.441 136.319  0.00  0.00    +0.000 OA
ATOM      3  O   UNL     1     114.927 125.781 136.226  0.00  0.00    +0.000 OA
ATOM      4  C   UNL     1     112.169 125.310 136.952  0.00  0.00    +0.000 A 
ATOM      5  C   UNL     1     112.790 125.834 136.804  0.00  0.00    +0.000 A 
ATOM      6  C   UNL     1     112.293 124.497 136.889  0.00  0.00    +0.000 A 
ATOM      7  C   UNL     1     113.533 125.544 136.593  0.00  0.00    +0.000 A 
ATOM      8  C   UNL     1     113.036 124.207 136.679  0.00  0.00    +0.000 A 
ATOM      9  C   UNL     1     113.656 124.731 136.531  0.00  0.00    +0.000 A 
ATOM     10  C   UNL     1     114.187 126.079 136.437  0.00  0.00    +0.000 A 
ATOM     11  C   UNL     1     113.291 127.229 136.720  0.00  0.00    +0.000 A 
ATOM     12  C   UNL     1     114.065 126.928 136.500  0.00  0.00    +0.000 A 
ENDROOT
BRANCH   4  19
ATOM     13  O   UNL     1     111.252 125.749 137.956  0.00  0.00    +0.000 OA
ATOM     14  O   UNL     1     111.034 125.590 135.789  0.00  0.00    +0.000 OA
ATOM     15  O   UNL     1     109.547 126.169 136.211  0.00  0.00    +0.000 OA
ATOM     16  O   UNL     1     109.197 126.468 137.796  0.00  0.00    +0.000 OA
ATOM     17  C   UNL     1     110.858 125.740 136.582  0.00  0.00    +0.000 C 
ATOM     18  C   UNL     1     110.115 126.029 136.793  0.00  0.00    +0.000 C 
ATOM     19  C   UNL     1     111.427 125.599 137.163  0.00  0.00    +0.000 C 
ATOM     20  C   UNL     1     109.941 126.178 137.585  0.00  0.00    +0.000 C 
ATOM     21  C   UNL     1     110.509 126.038 138.167  0.00  0.00    +0.000 C 
BRANCH  21  23
ATOM     22  O   UNL     1     110.686 125.733 139.552  0.00  0.00    +0.000 OA
ATOM     23  C   UNL     1     110.334 126.187 138.958  0.00  0.00    +0.000 C 
ENDBRANCH  21  23
ENDBRANCH   4  19
BRANCH  11  24
ATOM     24  C   UNL     1     113.165 128.042 136.783  0.00  0.00    +0.000 A 
ATOM     25  C   UNL     1     112.974 128.484 136.114  0.00  0.00    +0.000 A 
ATOM     26  C   UNL     1     113.230 128.414 137.517  0.00  0.00    +0.000 A 
ATOM     27  C   UNL     1     112.848 129.297 136.177  0.00  0.00    +0.000 A 
ATOM     28  C   UNL     1     113.104 129.226 137.582  0.00  0.00    +0.000 A 
ATOM     29  C   UNL     1     112.913 129.668 136.911  0.00  0.00    +0.000 A 
BRANCH  29  30
ATOM     30  O   UNL     1     112.788 130.480 136.975  0.00  0.00    +0.000 OA
ATOM     31  C   UNL     1     113.429 130.999 136.960  0.00  0.00    +0.000 C 
ENDBRANCH  29  30
ENDBRANCH  11  24
BRANCH   6  32
ATOM     32  O   UNL     1     111.672 123.973 137.038  0.00  0.00    +0.000 OA
ATOM     33  C   UNL     1     111.824 123.165 137.110  0.00  0.00    +0.000 C 
ENDBRANCH   6  32
TORSDOF 5
ENDMDL
MODEL 4
REMARK VINA RESULT:      -8.7      1.661      3.023
REMARK  Name = 44258361
REMARK  5 active torsions:
REMARK  status: ('A' for Active; 'I' for Inactive)
REMARK    1  A    between atoms: O_7  and  C_19
REMARK    2  A    between atoms: O_10  and  C_32
REMARK    3  A    between atoms: C_13  and  C_16
REMARK    4  A    between atoms: C_15  and  C_17
REMARK    5  A    between atoms: C_24  and  C_26
REMARK                            x       y       z     vdW  Elec       q    Type
REMARK                         _______ _______ _______ _____ _____    ______ ____
ROOT
ATOM      1  O   UNL     1     111.373 127.259 136.019  0.00  0.00    +0.000 OA
ATOM      2  O   UNL     1     111.680 124.382 135.947  0.00  0.00    +0.000 OA
ATOM      3  O   UNL     1     110.480 124.971 135.404  0.00  0.00    +0.000 OA
ATOM      4  C   UNL     1     112.561 126.616 136.552  0.00  0.00    +0.000 A 
ATOM      5  C   UNL     1     111.824 126.547 136.185  0.00  0.00    +0.000 A 
ATOM      6  C   UNL     1     113.003 125.939 136.716  0.00  0.00    +0.000 A 
ATOM      7  C   UNL     1     111.531 125.803 135.983  0.00  0.00    +0.000 A 
ATOM      8  C   UNL     1     112.710 125.195 136.515  0.00  0.00    +0.000 A 
ATOM      9  C   UNL     1     111.974 125.127 136.149  0.00  0.00    +0.000 A 
ATOM     10  C   UNL     1     110.766 125.719 135.602  0.00  0.00    +0.000 A 
ATOM     11  C   UNL     1     110.605 127.195 135.637  0.00  0.00    +0.000 A 
ATOM     12  C   UNL     1     110.300 126.420 135.427  0.00  0.00    +0.000 A 
ENDROOT
BRANCH   4  19
ATOM     13  O   UNL     1     113.261 127.808 136.192  0.00  0.00    +0.000 OA
ATOM     14  O   UNL     1     112.333 127.206 138.075  0.00  0.00    +0.000 OA
ATOM     15  O   UNL     1     112.920 128.695 138.478  0.00  0.00    +0.000 OA
ATOM     16  O   UNL     1     113.734 129.593 137.357  0.00  0.00    +0.000 OA
ATOM     17  C   UNL     1     112.740 127.655 137.514  0.00  0.00    +0.000 C 
ATOM     18  C   UNL     1     113.034 128.400 137.716  0.00  0.00    +0.000 C 
ATOM     19  C   UNL     1     112.854 127.359 136.753  0.00  0.00    +0.000 C 
ATOM     20  C   UNL     1     113.440 128.848 137.156  0.00  0.00    +0.000 C 
ATOM     21  C   UNL     1     113.554 128.552 136.394  0.00  0.00    +0.000 C 
BRANCH  21  23
ATOM     22  O   UNL     1     114.500 128.635 135.326  0.00  0.00    +0.000 OA
ATOM     23  C   UNL     1     113.961 129.000 135.834  0.00  0.00    +0.000 C 
ENDBRANCH  21  23
ENDBRANCH   4  19
BRANCH  11  24
ATOM     24  C   UNL     1     110.164 127.873 135.474  0.00  0.00    +0.000 A 
ATOM     25  C   UNL     1     109.589 128.130 136.005  0.00  0.00    +0.000 A 
ATOM     26  C   UNL     1     110.299 128.294 134.777  0.00  0.00    +0.000 A 
ATOM     27  C   UNL     1     109.148 128.808 135.842  0.00  0.00    +0.000 A 
ATOM     28  C   UNL     1     109.859 128.972 134.613  0.00  0.00    +0.000 A 
ATOM     29  C   UNL     1     109.283 129.229 135.146  0.00  0.00    +0.000 A 
BRANCH  29  30
ATOM     30  O   UNL     1     108.843 129.907 134.982  0.00  0.00    +0.000 OA
ATOM     31  C   UNL     1     109.178 130.652 135.092  0.00  0.00    +0.000 C 
ENDBRANCH  29  30
ENDBRANCH  11  24
BRANCH   6  32
ATOM     32  O   UNL     1     113.740 126.007 137.083  0.00  0.00    +0.000 OA
ATOM     33  C   UNL     1     114.238 125.352 137.131  0.00  0.00    +0.000 C 
ENDBRANCH   6  32
TORSDOF 5
ENDMDL
MODEL 5
REMARK VINA RESULT:      -8.7     11.757     13.330
REMARK  Name = 44258361
REMARK  5 active torsions:
REMARK  status: ('A' for Active; 'I' for Inactive)
REMARK    1  A    between atoms: O_7  and  C_19
REMARK    2  A    between atoms: O_10  and  C_32
REMARK    3  A    between atoms: C_13  and  C_16
REMARK    4  A    between atoms: C_15  and  C_17
REMARK    5  A    between atoms: C_24  and  C_26
REMARK                            x       y       z     vdW  Elec       q    Type
REMARK                         _______ _______ _______ _____ _____    ______ ____
ROOT
ATOM      1  O   UNL     1     104.188 125.726 147.249  0.00  0.00    +0.000 OA
ATOM      2  O   UNL     1     102.303 123.531 147.166  0.00  0.00    +0.000 OA
ATOM      3  O   UNL     1     102.126 124.568 148.154  0.00  0.00    +0.000 OA
ATOM      4  C   UNL     1     104.320 124.657 146.274  0.00  0.00    +0.000 A 
ATOM      5  C   UNL     1     103.907 124.989 146.908  0.00  0.00    +0.000 A 
ATOM      6  C   UNL     1     104.059 123.950 145.939  0.00  0.00    +0.000 A 
ATOM      7  C   UNL     1     103.235 124.614 147.205  0.00  0.00    +0.000 A 
ATOM      8  C   UNL     1     103.387 123.575 146.236  0.00  0.00    +0.000 A 
ATOM      9  C   UNL     1     102.975 123.907 146.868  0.00  0.00    +0.000 A 
ATOM     10  C   UNL     1     102.797 124.950 147.863  0.00  0.00    +0.000 A 
ATOM     11  C   UNL     1     103.763 126.077 147.908  0.00  0.00    +0.000 A 
ATOM     12  C   UNL     1     103.063 125.687 148.217  0.00  0.00    +0.000 A 
ENDROOT
BRANCH   4  19
ATOM     13  O   UNL     1     104.916 125.617 145.400  0.00  0.00    +0.000 OA
ATOM     14  O   UNL     1     105.813 124.239 146.836  0.00  0.00    +0.000 OA
ATOM     15  O   UNL     1     107.157 124.989 146.242  0.00  0.00    +0.000 OA
ATOM     16  O   UNL     1     107.008 126.158 145.087  0.00  0.00    +0.000 OA
ATOM     17  C   UNL     1     105.738 124.823 146.258  0.00  0.00    +0.000 C 
ATOM     18  C   UNL     1     106.410 125.199 145.961  0.00  0.00    +0.000 C 
ATOM     19  C   UNL     1     104.991 125.032 145.978  0.00  0.00    +0.000 C 
ATOM     20  C   UNL     1     106.335 125.782 145.384  0.00  0.00    +0.000 C 
ATOM     21  C   UNL     1     105.588 125.992 145.103  0.00  0.00    +0.000 C 
BRANCH  21  23
ATOM     22  O   UNL     1     105.210 126.384 143.781  0.00  0.00    +0.000 OA
ATOM     23  C   UNL     1     105.513 126.576 144.526  0.00  0.00    +0.000 C 
ENDBRANCH  21  23
ENDBRANCH   4  19
BRANCH  11  24
ATOM     24  C   UNL     1     104.025 126.785 148.242  0.00  0.00    +0.000 A 
ATOM     25  C   UNL     1     103.703 127.503 147.994  0.00  0.00    +0.000 A 
ATOM     26  C   UNL     1     104.608 126.774 148.825  0.00  0.00    +0.000 A 
ATOM     27  C   UNL     1     103.966 128.210 148.328  0.00  0.00    +0.000 A 
ATOM     28  C   UNL     1     104.871 127.481 149.160  0.00  0.00    +0.000 A 
ATOM     29  C   UNL     1     104.549 128.200 148.911  0.00  0.00    +0.000 A 
BRANCH  29  30
ATOM     30  O   UNL     1     104.811 128.906 149.245  0.00  0.00    +0.000 OA
ATOM     31  C   UNL     1     104.835 129.593 148.789  0.00  0.00    +0.000 C 
ENDBRANCH  29  30
ENDBRANCH  11  24
BRANCH   6  32
ATOM     32  O   UNL     1     104.472 123.618 145.306  0.00  0.00    +0.000 OA
ATOM     33  C   UNL     1     104.142 122.991 144.883  0.00  0.00    +0.000 C 
ENDBRANCH   6  32
TORSDOF 5
ENDMDL
MODEL 6
REMARK VINA RESULT:      -8.7      2.015      3.833
REMARK  Name = 44258361
REMARK  5 active torsions:
REMARK  status: ('A' for Active; 'I' for Inactive)
REMARK    1  A    between atoms: O_7  and  C_19
REMARK    2  A    between atoms: O_10  and  C_32
REMARK    3  A    between atoms: C_13  and  C_16
REMARK    4  A    between atoms: C_15  and  C_17
REMARK    5  A    between atoms: C_24  and  C_26
REMARK                            x       y       z     vdW  Elec       q    Type
REMARK                         _______ _______ _______ _____ _____    ______ ____
ROOT
ATOM      1  O   UNL     1     112.713 126.374 138.489  0.00  0.00    +0.000 OA
ATOM      2  O   UNL     1     114.017 124.459 136.754  0.00  0.00    +0.000 OA
ATOM      3  O   UNL     1     114.800 125.143 137.755  0.00  0.00    +0.000 OA
ATOM      4  C   UNL     1     111.971 125.658 137.466  0.00  0.00    +0.000 A 
ATOM      5  C   UNL     1     112.689 125.804 137.847  0.00  0.00    +0.000 A 
ATOM      6  C   UNL     1     111.936 125.113 136.848  0.00  0.00    +0.000 A 
ATOM      7  C   UNL     1     113.371 125.404 137.610  0.00  0.00    +0.000 A 
ATOM      8  C   UNL     1     112.618 124.713 136.611  0.00  0.00    +0.000 A 
ATOM      9  C   UNL     1     113.334 124.859 136.992  0.00  0.00    +0.000 A 
ATOM     10  C   UNL     1     114.123 125.547 137.998  0.00  0.00    +0.000 A 
ATOM     11  C   UNL     1     113.458 126.530 138.890  0.00  0.00    +0.000 A 
ATOM     12  C   UNL     1     114.167 126.114 138.643  0.00  0.00    +0.000 A 
ENDROOT
BRANCH   4  19
ATOM     13  O   UNL     1     111.107 126.792 137.374  0.00  0.00    +0.000 OA
ATOM     14  O   UNL     1     110.976 124.989 138.598  0.00  0.00    +0.000 OA
ATOM     15  O   UNL     1     109.612 125.788 139.073  0.00  0.00    +0.000 OA
ATOM     16  O   UNL     1     109.245 127.257 138.416  0.00  0.00    +0.000 OA
ATOM     17  C   UNL     1     110.792 125.724 138.269  0.00  0.00    +0.000 C 
ATOM     18  C   UNL     1     110.110 126.123 138.507  0.00  0.00    +0.000 C 
ATOM     19  C   UNL     1     111.290 126.057 137.703  0.00  0.00    +0.000 C 
ATOM     20  C   UNL     1     109.927 126.857 138.178  0.00  0.00    +0.000 C 
ATOM     21  C   UNL     1     110.425 127.192 137.612  0.00  0.00    +0.000 C 
BRANCH  21  23
ATOM     22  O   UNL     1     110.818 128.346 136.865  0.00  0.00    +0.000 OA
ATOM     23  C   UNL     1     110.242 127.925 137.283  0.00  0.00    +0.000 C 
ENDBRANCH  21  23
ENDBRANCH   4  19
BRANCH  11  24
ATOM     24  C   UNL     1     113.490 127.076 139.508  0.00  0.00    +0.000 A 
ATOM     25  C   UNL     1     113.530 127.883 139.344  0.00  0.00    +0.000 A 
ATOM     26  C   UNL     1     113.484 126.814 140.290  0.00  0.00    +0.000 A 
ATOM     27  C   UNL     1     113.563 128.429 139.962  0.00  0.00    +0.000 A 
ATOM     28  C   UNL     1     113.516 127.359 140.909  0.00  0.00    +0.000 A 
ATOM     29  C   UNL     1     113.556 128.167 140.744  0.00  0.00    +0.000 A 
BRANCH  29  30
ATOM     30  O   UNL     1     113.589 128.712 141.362  0.00  0.00    +0.000 OA
ATOM     31  C   UNL     1     113.085 129.365 141.362  0.00  0.00    +0.000 C 
ENDBRANCH  29  30
ENDBRANCH  11  24
BRANCH   6  32
ATOM     32  O   UNL     1     111.218 124.967 136.467  0.00  0.00    +0.000 OA
ATOM     33  C   UNL     1     111.210 124.584 135.737  0.00  0.00    +0.000 C 
ENDBRANCH   6  32
TORSDOF 5
ENDMDL
MODEL 7
REMARK VINA RESULT:      -8.6      1.505      3.783
REMARK  Name = 44258361
REMARK  5 active torsions:
REMARK  status: ('A' for Active; 'I' for Inactive)
REMARK    1  A    between atoms: O_7  and  C_19
REMARK    2  A    between atoms: O_10  and  C_32
REMARK    3  A    between atoms: C_13  and  C_16
REMARK    4  A    between atoms: C_15  and  C_17
REMARK    5  A    between atoms: C_24  and  C_26
REMARK                            x       y       z     vdW  Elec       q    Type
REMARK                         _______ _______ _______ _____ _____    ______ ____
ROOT
ATOM      1  O   UNL     1     111.935 126.514 137.630  0.00  0.00    +0.000 OA
ATOM      2  O   UNL     1     111.233 124.269 135.944  0.00  0.00    +0.000 OA
ATOM      3  O   UNL     1     111.970 124.026 137.161  0.00  0.00    +0.000 OA
ATOM      4  C   UNL     1     111.194 126.703 136.396  0.00  0.00    +0.000 A 
ATOM      5  C   UNL     1     111.566 126.190 136.926  0.00  0.00    +0.000 A 
ATOM      6  C   UNL     1     110.836 126.403 135.716  0.00  0.00    +0.000 A 
ATOM      7  C   UNL     1     111.579 125.379 136.775  0.00  0.00    +0.000 A 
ATOM      8  C   UNL     1     110.849 125.592 135.565  0.00  0.00    +0.000 A 
ATOM      9  C   UNL     1     111.220 125.081 136.095  0.00  0.00    +0.000 A 
ATOM     10  C   UNL     1     111.962 124.836 137.319  0.00  0.00    +0.000 A 
ATOM     11  C   UNL     1     112.324 125.986 138.187  0.00  0.00    +0.000 A 
ATOM     12  C   UNL     1     112.337 125.141 138.030  0.00  0.00    +0.000 A 
ENDROOT
BRANCH   4  19
ATOM     13  O   UNL     1     110.587 127.836 137.020  0.00  0.00    +0.000 OA
ATOM     14  O   UNL     1     112.356 127.679 135.750  0.00  0.00    +0.000 OA
ATOM     15  O   UNL     1     112.331 129.301 136.051  0.00  0.00    +0.000 OA
ATOM     16  O   UNL     1     111.143 129.947 136.998  0.00  0.00    +0.000 OA
ATOM     17  C   UNL     1     111.762 128.002 136.224  0.00  0.00    +0.000 C 
ATOM     18  C   UNL     1     111.749 128.813 136.374  0.00  0.00    +0.000 C 
ATOM     19  C   UNL     1     111.182 127.513 136.546  0.00  0.00    +0.000 C 
ATOM     20  C   UNL     1     111.156 129.135 136.847  0.00  0.00    +0.000 C 
ATOM     21  C   UNL     1     110.574 128.647 137.170  0.00  0.00    +0.000 C 
BRANCH  21  23
ATOM     22  O   UNL     1     109.310 128.522 137.825  0.00  0.00    +0.000 OA
ATOM     23  C   UNL     1     109.981 128.969 137.643  0.00  0.00    +0.000 C 
ENDBRANCH  21  23
ENDBRANCH   4  19
BRANCH  11  24
ATOM     24  C   UNL     1     112.681 126.287 138.866  0.00  0.00    +0.000 A 
ATOM     25  C   UNL     1     113.488 126.457 138.868  0.00  0.00    +0.000 A 
ATOM     26  C   UNL     1     112.231 126.419 139.545  0.00  0.00    +0.000 A 
ATOM     27  C   UNL     1     113.846 126.759 139.547  0.00  0.00    +0.000 A 
ATOM     28  C   UNL     1     112.588 126.721 140.225  0.00  0.00    +0.000 A 
ATOM     29  C   UNL     1     113.396 126.891 140.226  0.00  0.00    +0.000 A 
BRANCH  29  30
ATOM     30  O   UNL     1     113.752 127.192 140.905  0.00  0.00    +0.000 OA
ATOM     31  C   UNL     1     114.572 127.156 140.991  0.00  0.00    +0.000 C 
ENDBRANCH  29  30
ENDBRANCH  11  24
BRANCH   6  32
ATOM     32  O   UNL     1     110.465 126.916 135.186  0.00  0.00    +0.000 OA
ATOM     33  C   UNL     1     109.953 126.615 134.613  0.00  0.00    +0.000 C 
ENDBRANCH   6  32
TORSDOF 5
ENDMDL
MODEL 8
REMARK VINA RESULT:      -8.5      1.766      4.081
REMARK  Name = 44258361
REMARK  5 active torsions:
REMARK  status: ('A' for Active; 'I' for Inactive)
REMARK    1  A    between atoms: O_7  and  C_19
REMARK    2  A    between atoms: O_10  and  C_32
REMARK    3  A    between atoms: C_13  and  C_16
REMARK    4  A    between atoms: C_15  and  C_17
REMARK    5  A    between atoms: C_24  and  C_26
REMARK                            x       y       z     vdW  Elec       q    Type
REMARK                         _______ _______ _______ _____ _____    ______ ____
ROOT
ATOM      1  O   UNL     1     112.289 126.149 137.490  0.00  0.00    +0.000 OA
ATOM      2  O   UNL     1     115.015 125.461 138.176  0.00  0.00    +0.000 OA
ATOM      3  O   UNL     1     114.489 125.045 136.899  0.00  0.00    +0.000 OA
ATOM      4  C   UNL     1     112.867 126.544 138.763  0.00  0.00    +0.000 A 
ATOM      5  C   UNL     1     112.952 126.163 138.035  0.00  0.00    +0.000 A 
ATOM      6  C   UNL     1     113.498 126.563 139.294  0.00  0.00    +0.000 A 
ATOM      7  C   UNL     1     113.668 125.802 137.840  0.00  0.00    +0.000 A 
ATOM      8  C   UNL     1     114.213 126.202 139.099  0.00  0.00    +0.000 A 
ATOM      9  C   UNL     1     114.298 125.822 138.372  0.00  0.00    +0.000 A 
ATOM     10  C   UNL     1     113.770 125.403 137.086  0.00  0.00    +0.000 A 
ATOM     11  C   UNL     1     112.371 125.754 136.731  0.00  0.00    +0.000 A 
ATOM     12  C   UNL     1     113.116 125.379 136.528  0.00  0.00    +0.000 A 
ENDROOT
BRANCH   4  19
ATOM     13  O   UNL     1     111.543 126.459 139.294  0.00  0.00    +0.000 OA
ATOM     14  O   UNL     1     112.652 128.155 138.481  0.00  0.00    +0.000 OA
ATOM     15  O   UNL     1     111.221 128.876 138.872  0.00  0.00    +0.000 OA
ATOM     16  O   UNL     1     110.004 127.986 139.544  0.00  0.00    +0.000 OA
ATOM     17  C   UNL     1     112.044 127.709 138.818  0.00  0.00    +0.000 C 
ATOM     18  C   UNL     1     111.328 128.070 139.013  0.00  0.00    +0.000 C 
ATOM     19  C   UNL     1     112.152 126.904 138.958  0.00  0.00    +0.000 C 
ATOM     20  C   UNL     1     110.720 127.625 139.349  0.00  0.00    +0.000 C 
ATOM     21  C   UNL     1     110.827 126.819 139.489  0.00  0.00    +0.000 C 
BRANCH  21  23
ATOM     22  O   UNL     1     110.385 125.640 140.165  0.00  0.00    +0.000 OA
ATOM     23  C   UNL     1     110.220 126.374 139.825  0.00  0.00    +0.000 C 
ENDBRANCH  21  23
ENDBRANCH   4  19
BRANCH  11  24
ATOM     24  C   UNL     1     111.739 125.736 136.201  0.00  0.00    +0.000 A 
ATOM     25  C   UNL     1     111.608 126.372 135.692  0.00  0.00    +0.000 A 
ATOM     26  C   UNL     1     111.237 125.082 136.180  0.00  0.00    +0.000 A 
ATOM     27  C   UNL     1     110.976 126.353 135.163  0.00  0.00    +0.000 A 
ATOM     28  C   UNL     1     110.605 125.062 135.651  0.00  0.00    +0.000 A 
ATOM     29  C   UNL     1     110.474 125.699 135.142  0.00  0.00    +0.000 A 
BRANCH  29  30
ATOM     30  O   UNL     1     109.843 125.680 134.613  0.00  0.00    +0.000 OA
ATOM     31  C   UNL     1     109.126 126.036 134.814  0.00  0.00    +0.000 C 
ENDBRANCH  29  30
ENDBRANCH  11  24
BRANCH   6  32
ATOM     32  O   UNL     1     113.412 126.944 140.022  0.00  0.00    +0.000 OA
ATOM     33  C   UNL     1     114.019 126.908 140.579  0.00  0.00    +0.000 C 
ENDBRANCH   6  32
TORSDOF 5
ENDMDL
MODEL 9
REMARK VINA RESULT:      -8.4      1.667      4.344
REMARK  Name = 44258361
REMARK  5 active torsions:
REMARK  status: ('A' for Active; 'I' for Inactive)
REMARK    1  A    between atoms: O_7  and  C_19
REMARK    2  A    between atoms: O_10  and  C_32
REMARK    3  A    between atoms: C_13  and  C_16
REMARK    4  A    between atoms: C_15  and  C_17
REMARK    5  A    between atoms: C_24  and  C_26
REMARK                            x       y       z     vdW  Elec       q    Type
REMARK                         _______ _______ _______ _____ _____    ______ ____
ROOT
ATOM      1  O   UNL     1     113.073 127.228 137.718  0.00  0.00    +0.000 OA
ATOM      2  O   UNL     1     113.598 129.859 136.631  0.00  0.00    +0.000 OA
ATOM      3  O   UNL     1     113.623 128.719 135.747  0.00  0.00    +0.000 OA
ATOM      4  C   UNL     1     113.060 128.408 138.564  0.00  0.00    +0.000 A 
ATOM      5  C   UNL     1     113.159 128.077 137.815  0.00  0.00    +0.000 A 
ATOM      6  C   UNL     1     113.140 129.223 138.669  0.00  0.00    +0.000 A 
ATOM      7  C   UNL     1     113.338 128.561 137.171  0.00  0.00    +0.000 A 
ATOM      8  C   UNL     1     113.319 129.706 138.025  0.00  0.00    +0.000 A 
ATOM      9  C   UNL     1     113.418 129.375 137.276  0.00  0.00    +0.000 A 
ATOM     10  C   UNL     1     113.444 128.228 136.386  0.00  0.00    +0.000 A 
ATOM     11  C   UNL     1     113.175 126.877 136.940  0.00  0.00    +0.000 A 
ATOM     12  C   UNL     1     113.362 127.380 136.270  0.00  0.00    +0.000 A 
ENDROOT
BRANCH   4  19
ATOM     13  O   UNL     1     113.488 127.565 139.635  0.00  0.00    +0.000 OA
ATOM     14  O   UNL     1     111.487 128.164 138.998  0.00  0.00    +0.000 OA
ATOM     15  O   UNL     1     111.128 127.197 140.286  0.00  0.00    +0.000 OA
ATOM     16  O   UNL     1     112.342 126.475 141.141  0.00  0.00    +0.000 OA
ATOM     17  C   UNL     1     112.094 127.803 139.425  0.00  0.00    +0.000 C 
ATOM     18  C   UNL     1     111.915 127.319 140.069  0.00  0.00    +0.000 C 
ATOM     19  C   UNL     1     112.880 127.926 139.208  0.00  0.00    +0.000 C 
ATOM     20  C   UNL     1     112.521 126.959 140.496  0.00  0.00    +0.000 C 
ATOM     21  C   UNL     1     113.308 127.082 140.279  0.00  0.00    +0.000 C 
BRANCH  21  23
ATOM     22  O   UNL     1     114.646 127.098 140.783  0.00  0.00    +0.000 OA
ATOM     23  C   UNL     1     113.915 126.721 140.706  0.00  0.00    +0.000 C 
ENDBRANCH  21  23
ENDBRANCH   4  19
BRANCH  11  24
ATOM     24  C   UNL     1     113.094 126.062 136.838  0.00  0.00    +0.000 A 
ATOM     25  C   UNL     1     113.742 125.566 136.951  0.00  0.00    +0.000 A 
ATOM     26  C   UNL     1     112.364 125.744 136.622  0.00  0.00    +0.000 A 
ATOM     27  C   UNL     1     113.662 124.751 136.849  0.00  0.00    +0.000 A 
ATOM     28  C   UNL     1     112.282 124.930 136.520  0.00  0.00    +0.000 A 
ATOM     29  C   UNL     1     112.932 124.433 136.633  0.00  0.00    +0.000 A 
BRANCH  29  30
ATOM     30  O   UNL     1     112.851 123.619 136.531  0.00  0.00    +0.000 OA
ATOM     31  C   UNL     1     112.258 123.210 136.934  0.00  0.00    +0.000 C 
ENDBRANCH  29  30
ENDBRANCH  11  24
BRANCH   6  32
ATOM     32  O   UNL     1     113.041 129.554 139.419  0.00  0.00    +0.000 OA
ATOM     33  C   UNL     1     113.251 130.340 139.553  0.00  0.00    +0.000 C 
ENDBRANCH   6  32
TORSDOF 5
ENDMDL
MODEL 10
REMARK VINA RESULT:      -8.3      1.931      4.768
REMARK  Name = 44258361
REMARK  5 active torsions:
REMARK  status: ('A' for Active; 'I' for Inactive)
REMARK    1  A    between atoms: O_7  and  C_19
REMARK    2  A    between atoms: O_10  and  C_32
REMARK    3  A    between atoms: C_13  and  C_16
REMARK    4  A    between atoms: C_15  and  C_17
REMARK    5  A    between atoms: C_24  and  C_26
REMARK                            x       y       z     vdW  Elec       q    Type
REMARK                         _______ _______ _______ _____ _____    ______ ____
ROOT
ATOM      1  O   UNL     1     112.166 127.805 136.968  0.00  0.00    +0.000 OA
ATOM      2  O   UNL     1     114.046 129.684 135.821  0.00  0.00    +0.000 OA
ATOM      3  O   UNL     1     114.290 128.270 135.670  0.00  0.00    +0.000 OA
ATOM      4  C   UNL     1     111.968 129.238 137.092  0.00  0.00    +0.000 A 
ATOM      5  C   UNL     1     112.424 128.610 136.812  0.00  0.00    +0.000 A 
ATOM      6  C   UNL     1     112.205 130.015 136.947  0.00  0.00    +0.000 A 
ATOM      7  C   UNL     1     113.116 128.758 136.389  0.00  0.00    +0.000 A 
ATOM      8  C   UNL     1     112.897 130.164 136.524  0.00  0.00    +0.000 A 
ATOM      9  C   UNL     1     113.352 129.535 136.245  0.00  0.00    +0.000 A 
ATOM     10  C   UNL     1     113.599 128.112 136.092  0.00  0.00    +0.000 A 
ATOM     11  C   UNL     1     112.637 127.146 136.680  0.00  0.00    +0.000 A 
ATOM     12  C   UNL     1     113.358 127.300 136.239  0.00  0.00    +0.000 A 
ENDROOT
BRANCH   4  19
ATOM     13  O   UNL     1     111.310 128.963 138.330  0.00  0.00    +0.000 OA
ATOM     14  O   UNL     1     110.516 129.195 136.309  0.00  0.00    +0.000 OA
ATOM     15  O   UNL     1     109.132 128.898 137.156  0.00  0.00    +0.000 OA
ATOM     16  O   UNL     1     109.199 128.645 138.785  0.00  0.00    +0.000 OA
ATOM     17  C   UNL     1     110.550 129.068 137.124  0.00  0.00    +0.000 C 
ATOM     18  C   UNL     1     109.858 128.920 137.548  0.00  0.00    +0.000 C 
ATOM     19  C   UNL     1     111.276 129.090 137.515  0.00  0.00    +0.000 C 
ATOM     20  C   UNL     1     109.892 128.793 138.361  0.00  0.00    +0.000 C 
ATOM     21  C   UNL     1     110.618 128.815 138.753  0.00  0.00    +0.000 C 
BRANCH  21  23
ATOM     22  O   UNL     1     111.365 128.788 139.971  0.00  0.00    +0.000 OA
ATOM     23  C   UNL     1     110.652 128.689 139.567  0.00  0.00    +0.000 C 
ENDBRANCH  21  23
ENDBRANCH   4  19
BRANCH  11  24
ATOM     24  C   UNL     1     112.398 126.370 136.825  0.00  0.00    +0.000 A 
ATOM     25  C   UNL     1     112.645 125.983 137.510  0.00  0.00    +0.000 A 
ATOM     26  C   UNL     1     111.910 125.980 136.285  0.00  0.00    +0.000 A 
ATOM     27  C   UNL     1     112.406 125.206 137.655  0.00  0.00    +0.000 A 
ATOM     28  C   UNL     1     111.671 125.205 136.430  0.00  0.00    +0.000 A 
ATOM     29  C   UNL     1     111.919 124.817 137.116  0.00  0.00    +0.000 A 
BRANCH  29  30
ATOM     30  O   UNL     1     111.680 124.042 137.260  0.00  0.00    +0.000 OA
ATOM     31  C   UNL     1     112.112 123.412 136.948  0.00  0.00    +0.000 C 
ENDBRANCH  29  30
ENDBRANCH  11  24
BRANCH   6  32
ATOM     32  O   UNL     1     111.749 130.644 137.227  0.00  0.00    +0.000 OA
ATOM     33  C   UNL     1     112.040 131.415 137.184  0.00  0.00    +0.000 C 
ENDBRANCH   6  32
TORSDOF 5
ENDMDL
