MODEL 1
REMARK VINA RESULT:      -7.8      0.000      0.000
REMARK  Name = 94525
REMARK  2 active torsions:
REMARK  status: ('A' for Active; 'I' for Inactive)
REMARK    1  A    between atoms: O_2  and  C_7
REMARK    2  A    between atoms: C_6  and  C_9
REMARK                            x       y       z     vdW  Elec       q    Type
REMARK                         _______ _______ _______ _____ _____    ______ ____
ROOT
ATOM      1  O   UNL     1     112.090 125.495 136.181  0.00  0.00    +0.000 OA
ATOM      2  O   UNL     1     111.924 127.934 135.799  0.00  0.00    +0.000 OA
ATOM      3  C   UNL     1     111.376 126.621 135.669  0.00  0.00    +0.000 A 
ATOM      4  C   UNL     1     111.431 125.808 135.796  0.00  0.00    +0.000 A 
ATOM      5  C   UNL     1     112.694 125.994 136.438  0.00  0.00    +0.000 A 
ATOM      6  C   UNL     1     110.694 126.959 135.270  0.00  0.00    +0.000 A 
ATOM      7  C   UNL     1     111.979 127.121 135.926  0.00  0.00    +0.000 A 
ATOM      8  C   UNL     1     112.639 126.807 136.311  0.00  0.00    +0.000 A 
ATOM      9  C   UNL     1     110.809 125.277 135.533  0.00  0.00    +0.000 A 
ATOM     10  C   UNL     1     110.062 126.444 134.999  0.00  0.00    +0.000 A 
ATOM     11  C   UNL     1     110.120 125.597 135.132  0.00  0.00    +0.000 A 
ENDROOT
BRANCH   5  12
ATOM     12  C   UNL     1     113.353 125.681 136.822  0.00  0.00    +0.000 A 
ATOM     13  C   UNL     1     113.415 125.731 137.644  0.00  0.00    +0.000 A 
ATOM     14  C   UNL     1     113.951 125.318 136.386  0.00  0.00    +0.000 A 
ATOM     15  C   UNL     1     114.074 125.418 138.028  0.00  0.00    +0.000 A 
ATOM     16  C   UNL     1     114.611 125.004 136.770  0.00  0.00    +0.000 A 
ATOM     17  C   UNL     1     114.672 125.055 137.591  0.00  0.00    +0.000 A 
ENDBRANCH   5  12
BRANCH   6  18
ATOM     18  O   UNL     1     110.648 127.774 135.147  0.00  0.00    +0.000 OA
ATOM     19  C   UNL     1     110.060 128.084 134.656  0.00  0.00    +0.000 C 
ENDBRANCH   6  18
TORSDOF 2
ENDMDL
MODEL 2
REMARK VINA RESULT:      -7.7      1.099      3.820
REMARK  Name = 94525
REMARK  2 active torsions:
REMARK  status: ('A' for Active; 'I' for Inactive)
REMARK    1  A    between atoms: O_2  and  C_7
REMARK    2  A    between atoms: C_6  and  C_9
REMARK                            x       y       z     vdW  Elec       q    Type
REMARK                         _______ _______ _______ _____ _____    ______ ____
ROOT
ATOM      1  O   UNL     1     112.542 125.537 136.122  0.00  0.00    +0.000 OA
ATOM      2  O   UNL     1     112.238 126.528 138.369  0.00  0.00    +0.000 OA
ATOM      3  C   UNL     1     113.038 125.801 137.435  0.00  0.00    +0.000 A 
ATOM      4  C   UNL     1     113.140 125.470 136.686  0.00  0.00    +0.000 A 
ATOM      5  C   UNL     1     111.843 125.934 136.306  0.00  0.00    +0.000 A 
ATOM      6  C   UNL     1     113.654 125.738 138.032  0.00  0.00    +0.000 A 
ATOM      7  C   UNL     1     112.339 126.197 137.620  0.00  0.00    +0.000 A 
ATOM      8  C   UNL     1     111.741 126.264 137.055  0.00  0.00    +0.000 A 
ATOM      9  C   UNL     1     113.864 125.054 136.482  0.00  0.00    +0.000 A 
ATOM     10  C   UNL     1     114.384 125.326 137.846  0.00  0.00    +0.000 A 
ATOM     11  C   UNL     1     114.490 124.982 137.066  0.00  0.00    +0.000 A 
ENDROOT
BRANCH   5  12
ATOM     12  C   UNL     1     111.245 126.000 135.742  0.00  0.00    +0.000 A 
ATOM     13  C   UNL     1     110.705 125.385 135.637  0.00  0.00    +0.000 A 
ATOM     14  C   UNL     1     111.187 126.683 135.281  0.00  0.00    +0.000 A 
ATOM     15  C   UNL     1     110.108 125.452 135.073  0.00  0.00    +0.000 A 
ATOM     16  C   UNL     1     110.589 126.750 134.716  0.00  0.00    +0.000 A 
ATOM     17  C   UNL     1     110.050 126.134 134.612  0.00  0.00    +0.000 A 
ENDBRANCH   5  12
BRANCH   6  18
ATOM     18  O   UNL     1     113.543 126.071 138.778  0.00  0.00    +0.000 OA
ATOM     19  C   UNL     1     114.189 126.370 139.196  0.00  0.00    +0.000 C 
ENDBRANCH   6  18
TORSDOF 2
ENDMDL
MODEL 3
REMARK VINA RESULT:      -7.6      2.930      4.227
REMARK  Name = 94525
REMARK  2 active torsions:
REMARK  status: ('A' for Active; 'I' for Inactive)
REMARK    1  A    between atoms: O_2  and  C_7
REMARK    2  A    between atoms: C_6  and  C_9
REMARK                            x       y       z     vdW  Elec       q    Type
REMARK                         _______ _______ _______ _____ _____    ______ ____
ROOT
ATOM      1  O   UNL     1     113.953 126.442 138.994  0.00  0.00    +0.000 OA
ATOM      2  O   UNL     1     111.560 125.895 139.309  0.00  0.00    +0.000 OA
ATOM      3  C   UNL     1     112.768 126.486 139.791  0.00  0.00    +0.000 A 
ATOM      4  C   UNL     1     113.566 126.668 139.686  0.00  0.00    +0.000 A 
ATOM      5  C   UNL     1     113.543 126.034 138.406  0.00  0.00    +0.000 A 
ATOM      6  C   UNL     1     112.354 126.716 140.508  0.00  0.00    +0.000 A 
ATOM      7  C   UNL     1     112.357 126.077 139.204  0.00  0.00    +0.000 A 
ATOM      8  C   UNL     1     112.745 125.851 138.511  0.00  0.00    +0.000 A 
ATOM      9  C   UNL     1     114.004 127.094 140.291  0.00  0.00    +0.000 A 
ATOM     10  C   UNL     1     112.776 127.142 141.123  0.00  0.00    +0.000 A 
ATOM     11  C   UNL     1     113.606 127.332 141.014  0.00  0.00    +0.000 A 
ENDROOT
BRANCH   5  12
ATOM     12  C   UNL     1     113.929 125.808 137.714  0.00  0.00    +0.000 A 
ATOM     13  C   UNL     1     114.368 125.109 137.695  0.00  0.00    +0.000 A 
ATOM     14  C   UNL     1     113.878 126.280 137.040  0.00  0.00    +0.000 A 
ATOM     15  C   UNL     1     114.755 124.883 137.003  0.00  0.00    +0.000 A 
ATOM     16  C   UNL     1     114.266 126.054 136.346  0.00  0.00    +0.000 A 
ATOM     17  C   UNL     1     114.704 125.356 136.329  0.00  0.00    +0.000 A 
ENDBRANCH   5  12
BRANCH   6  18
ATOM     18  O   UNL     1     111.556 126.529 140.604  0.00  0.00    +0.000 OA
ATOM     19  C   UNL     1     111.147 126.796 141.270  0.00  0.00    +0.000 C 
ENDBRANCH   6  18
TORSDOF 2
ENDMDL
MODEL 4
REMARK VINA RESULT:      -7.5      1.688      3.495
REMARK  Name = 94525
REMARK  2 active torsions:
REMARK  status: ('A' for Active; 'I' for Inactive)
REMARK    1  A    between atoms: O_2  and  C_7
REMARK    2  A    between atoms: C_6  and  C_9
REMARK                            x       y       z     vdW  Elec       q    Type
REMARK                         _______ _______ _______ _____ _____    ______ ____
ROOT
ATOM      1  O   UNL     1     113.979 126.717 136.759  0.00  0.00    +0.000 OA
ATOM      2  O   UNL     1     111.774 125.764 136.164  0.00  0.00    +0.000 OA
ATOM      3  C   UNL     1     113.112 125.589 136.633  0.00  0.00    +0.000 A 
ATOM      4  C   UNL     1     113.848 125.906 136.832  0.00  0.00    +0.000 A 
ATOM      5  C   UNL     1     113.377 127.211 136.488  0.00  0.00    +0.000 A 
ATOM      6  C   UNL     1     112.963 124.745 136.704  0.00  0.00    +0.000 A 
ATOM      7  C   UNL     1     112.509 126.082 136.362  0.00  0.00    +0.000 A 
ATOM      8  C   UNL     1     112.642 126.894 136.290  0.00  0.00    +0.000 A 
ATOM      9  C   UNL     1     114.484 125.402 137.115  0.00  0.00    +0.000 A 
ATOM     10  C   UNL     1     113.587 124.226 136.986  0.00  0.00    +0.000 A 
ATOM     11  C   UNL     1     114.352 124.557 137.193  0.00  0.00    +0.000 A 
ENDROOT
BRANCH   5  12
ATOM     12  C   UNL     1     113.509 128.022 136.416  0.00  0.00    +0.000 A 
ATOM     13  C   UNL     1     113.870 128.323 135.738  0.00  0.00    +0.000 A 
ATOM     14  C   UNL     1     113.279 128.533 137.021  0.00  0.00    +0.000 A 
ATOM     15  C   UNL     1     114.002 129.133 135.665  0.00  0.00    +0.000 A 
ATOM     16  C   UNL     1     113.411 129.344 136.949  0.00  0.00    +0.000 A 
ATOM     17  C   UNL     1     113.772 129.644 136.271  0.00  0.00    +0.000 A 
ENDBRANCH   5  12
BRANCH   6  18
ATOM     18  O   UNL     1     112.224 124.437 136.503  0.00  0.00    +0.000 OA
ATOM     19  C   UNL     1     111.998 123.694 136.783  0.00  0.00    +0.000 C 
ENDBRANCH   6  18
TORSDOF 2
ENDMDL
MODEL 5
REMARK VINA RESULT:      -7.5     11.614     12.221
REMARK  Name = 94525
REMARK  2 active torsions:
REMARK  status: ('A' for Active; 'I' for Inactive)
REMARK    1  A    between atoms: O_2  and  C_7
REMARK    2  A    between atoms: C_6  and  C_9
REMARK                            x       y       z     vdW  Elec       q    Type
REMARK                         _______ _______ _______ _____ _____    ______ ____
ROOT
ATOM      1  O   UNL     1     106.952 126.206 147.444  0.00  0.00    +0.000 OA
ATOM      2  O   UNL     1     106.406 124.877 145.428  0.00  0.00    +0.000 OA
ATOM      3  C   UNL     1     106.593 126.144 146.062  0.00  0.00    +0.000 A 
ATOM      4  C   UNL     1     106.775 126.587 146.734  0.00  0.00    +0.000 A 
ATOM      5  C   UNL     1     106.947 125.382 147.482  0.00  0.00    +0.000 A 
ATOM      6  C   UNL     1     106.407 126.530 145.317  0.00  0.00    +0.000 A 
ATOM      7  C   UNL     1     106.588 125.320 146.100  0.00  0.00    +0.000 A 
ATOM      8  C   UNL     1     106.765 124.939 146.811  0.00  0.00    +0.000 A 
ATOM      9  C   UNL     1     106.783 127.446 146.707  0.00  0.00    +0.000 A 
ATOM     10  C   UNL     1     106.411 127.387 145.271  0.00  0.00    +0.000 A 
ATOM     11  C   UNL     1     106.600 127.849 145.971  0.00  0.00    +0.000 A 
ENDROOT
BRANCH   5  12
ATOM     12  C   UNL     1     107.124 125.001 148.192  0.00  0.00    +0.000 A 
ATOM     13  C   UNL     1     107.910 124.864 148.403  0.00  0.00    +0.000 A 
ATOM     14  C   UNL     1     106.514 124.756 148.691  0.00  0.00    +0.000 A 
ATOM     15  C   UNL     1     108.086 124.483 149.112  0.00  0.00    +0.000 A 
ATOM     16  C   UNL     1     106.691 124.374 149.402  0.00  0.00    +0.000 A 
ATOM     17  C   UNL     1     107.477 124.238 149.612  0.00  0.00    +0.000 A 
ENDBRANCH   5  12
BRANCH   6  18
ATOM     18  O   UNL     1     106.227 126.078 144.650  0.00  0.00    +0.000 OA
ATOM     19  C   UNL     1     106.068 126.450 143.931  0.00  0.00    +0.000 C 
ENDBRANCH   6  18
TORSDOF 2
ENDMDL
MODEL 6
REMARK VINA RESULT:      -7.5     13.344     13.807
REMARK  Name = 94525
REMARK  2 active torsions:
REMARK  status: ('A' for Active; 'I' for Inactive)
REMARK    1  A    between atoms: O_2  and  C_7
REMARK    2  A    between atoms: C_6  and  C_9
REMARK                            x       y       z     vdW  Elec       q    Type
REMARK                         _______ _______ _______ _____ _____    ______ ____
ROOT
ATOM      1  O   UNL     1     105.494 124.334 147.332  0.00  0.00    +0.000 OA
ATOM      2  O   UNL     1     103.876 125.510 148.789  0.00  0.00    +0.000 OA
ATOM      3  C   UNL     1     104.150 124.711 147.636  0.00  0.00    +0.000 A 
ATOM      4  C   UNL     1     104.690 124.319 147.150  0.00  0.00    +0.000 A 
ATOM      5  C   UNL     1     105.760 124.740 147.999  0.00  0.00    +0.000 A 
ATOM      6  C   UNL     1     103.309 124.703 147.458  0.00  0.00    +0.000 A 
ATOM      7  C   UNL     1     104.415 125.118 148.303  0.00  0.00    +0.000 A 
ATOM      8  C   UNL     1     105.220 125.132 148.484  0.00  0.00    +0.000 A 
ATOM      9  C   UNL     1     104.425 123.892 146.453  0.00  0.00    +0.000 A 
ATOM     10  C   UNL     1     103.027 124.282 146.765  0.00  0.00    +0.000 A 
ATOM     11  C   UNL     1     103.589 123.873 146.259  0.00  0.00    +0.000 A 
ENDROOT
BRANCH   5  12
ATOM     12  C   UNL     1     106.564 124.755 148.180  0.00  0.00    +0.000 A 
ATOM     13  C   UNL     1     107.094 125.141 147.679  0.00  0.00    +0.000 A 
ATOM     14  C   UNL     1     106.839 124.383 148.863  0.00  0.00    +0.000 A 
ATOM     15  C   UNL     1     107.898 125.155 147.860  0.00  0.00    +0.000 A 
ATOM     16  C   UNL     1     107.644 124.397 149.045  0.00  0.00    +0.000 A 
ATOM     17  C   UNL     1     108.173 124.783 148.543  0.00  0.00    +0.000 A 
ENDBRANCH   5  12
BRANCH   6  18
ATOM     18  O   UNL     1     102.777 125.098 147.949  0.00  0.00    +0.000 OA
ATOM     19  C   UNL     1     101.965 125.027 147.820  0.00  0.00    +0.000 C 
ENDBRANCH   6  18
TORSDOF 2
ENDMDL
MODEL 7
REMARK VINA RESULT:      -7.5      1.493      2.322
REMARK  Name = 94525
REMARK  2 active torsions:
REMARK  status: ('A' for Active; 'I' for Inactive)
REMARK    1  A    between atoms: O_2  and  C_7
REMARK    2  A    between atoms: C_6  and  C_9
REMARK                            x       y       z     vdW  Elec       q    Type
REMARK                         _______ _______ _______ _____ _____    ______ ____
ROOT
ATOM      1  O   UNL     1     113.943 127.461 136.320  0.00  0.00    +0.000 OA
ATOM      2  O   UNL     1     111.488 127.409 136.010  0.00  0.00    +0.000 OA
ATOM      3  C   UNL     1     112.735 128.100 135.906  0.00  0.00    +0.000 A 
ATOM      4  C   UNL     1     113.553 128.117 136.009  0.00  0.00    +0.000 A 
ATOM      5  C   UNL     1     113.516 126.787 136.529  0.00  0.00    +0.000 A 
ATOM      6  C   UNL     1     112.317 128.778 135.582  0.00  0.00    +0.000 A 
ATOM      7  C   UNL     1     112.307 127.427 136.113  0.00  0.00    +0.000 A 
ATOM      8  C   UNL     1     112.697 126.769 136.425  0.00  0.00    +0.000 A 
ATOM      9  C   UNL     1     114.010 128.814 135.796  0.00  0.00    +0.000 A 
ATOM     10  C   UNL     1     112.757 129.482 135.363  0.00  0.00    +0.000 A 
ATOM     11  C   UNL     1     113.609 129.501 135.471  0.00  0.00    +0.000 A 
ENDROOT
BRANCH   5  12
ATOM     12  C   UNL     1     113.906 126.131 136.840  0.00  0.00    +0.000 A 
ATOM     13  C   UNL     1     113.912 126.002 137.655  0.00  0.00    +0.000 A 
ATOM     14  C   UNL     1     114.290 125.602 136.337  0.00  0.00    +0.000 A 
ATOM     15  C   UNL     1     114.302 125.346 137.967  0.00  0.00    +0.000 A 
ATOM     16  C   UNL     1     114.680 124.945 136.648  0.00  0.00    +0.000 A 
ATOM     17  C   UNL     1     114.686 124.817 137.463  0.00  0.00    +0.000 A 
ENDBRANCH   5  12
BRANCH   6  18
ATOM     18  O   UNL     1     111.498 128.751 135.482  0.00  0.00    +0.000 OA
ATOM     19  C   UNL     1     111.100 129.401 135.165  0.00  0.00    +0.000 C 
ENDBRANCH   6  18
TORSDOF 2
ENDMDL
MODEL 8
REMARK VINA RESULT:      -7.4      2.510      3.725
REMARK  Name = 94525
REMARK  2 active torsions:
REMARK  status: ('A' for Active; 'I' for Inactive)
REMARK    1  A    between atoms: O_2  and  C_7
REMARK    2  A    between atoms: C_6  and  C_9
REMARK                            x       y       z     vdW  Elec       q    Type
REMARK                         _______ _______ _______ _____ _____    ______ ____
ROOT
ATOM      1  O   UNL     1     114.039 126.114 138.544  0.00  0.00    +0.000 OA
ATOM      2  O   UNL     1     111.699 125.449 138.085  0.00  0.00    +0.000 OA
ATOM      3  C   UNL     1     113.096 125.342 137.799  0.00  0.00    +0.000 A 
ATOM      4  C   UNL     1     113.875 125.563 137.952  0.00  0.00    +0.000 A 
ATOM      5  C   UNL     1     113.423 126.444 138.983  0.00  0.00    +0.000 A 
ATOM      6  C   UNL     1     112.912 124.768 137.186  0.00  0.00    +0.000 A 
ATOM      7  C   UNL     1     112.479 125.671 138.238  0.00  0.00    +0.000 A 
ATOM      8  C   UNL     1     112.643 126.223 138.830  0.00  0.00    +0.000 A 
ATOM      9  C   UNL     1     114.526 125.227 137.502  0.00  0.00    +0.000 A 
ATOM     10  C   UNL     1     113.550 124.422 136.726  0.00  0.00    +0.000 A 
ATOM     11  C   UNL     1     114.362 124.653 136.885  0.00  0.00    +0.000 A 
ENDROOT
BRANCH   5  12
ATOM     12  C   UNL     1     113.586 126.995 139.574  0.00  0.00    +0.000 A 
ATOM     13  C   UNL     1     113.914 126.748 140.290  0.00  0.00    +0.000 A 
ATOM     14  C   UNL     1     113.422 127.794 139.450  0.00  0.00    +0.000 A 
ATOM     15  C   UNL     1     114.077 127.299 140.881  0.00  0.00    +0.000 A 
ATOM     16  C   UNL     1     113.586 128.346 140.042  0.00  0.00    +0.000 A 
ATOM     17  C   UNL     1     113.913 128.098 140.757  0.00  0.00    +0.000 A 
ENDBRANCH   5  12
BRANCH   6  18
ATOM     18  O   UNL     1     112.129 124.553 137.040  0.00  0.00    +0.000 OA
ATOM     19  C   UNL     1     111.963 123.909 136.551  0.00  0.00    +0.000 C 
ENDBRANCH   6  18
TORSDOF 2
ENDMDL
MODEL 9
REMARK VINA RESULT:      -7.4     10.532     12.119
REMARK  Name = 94525
REMARK  2 active torsions:
REMARK  status: ('A' for Active; 'I' for Inactive)
REMARK    1  A    between atoms: O_2  and  C_7
REMARK    2  A    between atoms: C_6  and  C_9
REMARK                            x       y       z     vdW  Elec       q    Type
REMARK                         _______ _______ _______ _____ _____    ______ ____
ROOT
ATOM      1  O   UNL     1     103.000 130.591 142.485  0.00  0.00    +0.000 OA
ATOM      2  O   UNL     1     103.150 129.242 140.416  0.00  0.00    +0.000 OA
ATOM      3  C   UNL     1     103.555 129.491 141.763  0.00  0.00    +0.000 A 
ATOM      4  C   UNL     1     103.505 129.941 142.453  0.00  0.00    +0.000 A 
ATOM      5  C   UNL     1     102.544 130.793 141.827  0.00  0.00    +0.000 A 
ATOM      6  C   UNL     1     104.078 128.810 141.718  0.00  0.00    +0.000 A 
ATOM      7  C   UNL     1     103.100 129.692 141.105  0.00  0.00    +0.000 A 
ATOM      8  C   UNL     1     102.594 130.343 141.138  0.00  0.00    +0.000 A 
ATOM      9  C   UNL     1     103.975 129.741 143.145  0.00  0.00    +0.000 A 
ATOM     10  C   UNL     1     104.555 128.596 142.399  0.00  0.00    +0.000 A 
ATOM     11  C   UNL     1     104.503 129.064 143.117  0.00  0.00    +0.000 A 
ENDROOT
BRANCH   5  12
ATOM     12  C   UNL     1     102.038 131.444 141.859  0.00  0.00    +0.000 A 
ATOM     13  C   UNL     1     101.251 131.345 142.085  0.00  0.00    +0.000 A 
ATOM     14  C   UNL     1     102.320 132.194 141.666  0.00  0.00    +0.000 A 
ATOM     15  C   UNL     1     100.745 131.995 142.117  0.00  0.00    +0.000 A 
ATOM     16  C   UNL     1     101.814 132.846 141.697  0.00  0.00    +0.000 A 
ATOM     17  C   UNL     1     101.027 132.746 141.923  0.00  0.00    +0.000 A 
ENDBRANCH   5  12
BRANCH   6  18
ATOM     18  O   UNL     1     104.122 128.367 141.023  0.00  0.00    +0.000 OA
ATOM     19  C   UNL     1     104.491 127.628 141.028  0.00  0.00    +0.000 C 
ENDBRANCH   6  18
TORSDOF 2
ENDMDL
