MODEL 1
REMARK VINA RESULT:      -7.9      0.000      0.000
REMARK  Name = 14349486
REMARK  3 active torsions:
REMARK  status: ('A' for Active; 'I' for Inactive)
REMARK    1  A    between atoms: O_2  and  C_7
REMARK    2  A    between atoms: O_3  and  C_10
REMARK    3  A    between atoms: C_8  and  C_13
REMARK                            x       y       z     vdW  Elec       q    Type
REMARK                         _______ _______ _______ _____ _____    ______ ____
ROOT
ATOM      1  O   UNL     1     104.766 123.516 138.254  0.00  0.00    +0.000 OA
ATOM      2  O   UNL     1     102.395 123.905 138.851  0.00  0.00    +0.000 OA
ATOM      3  C   UNL     1     103.383 123.516 137.894  0.00  0.00    +0.000 A 
ATOM      4  C   UNL     1     104.173 123.387 137.695  0.00  0.00    +0.000 A 
ATOM      5  C   UNL     1     102.757 123.385 137.321  0.00  0.00    +0.000 A 
ATOM      6  C   UNL     1     104.569 123.776 139.012  0.00  0.00    +0.000 A 
ATOM      7  C   UNL     1     103.185 123.776 138.652  0.00  0.00    +0.000 A 
ATOM      8  C   UNL     1     102.956 123.114 136.530  0.00  0.00    +0.000 A 
ATOM      9  C   UNL     1     103.779 123.906 139.211  0.00  0.00    +0.000 A 
ATOM     10  C   UNL     1     104.391 123.116 136.909  0.00  0.00    +0.000 A 
ATOM     11  C   UNL     1     103.778 122.979 136.323  0.00  0.00    +0.000 A 
ENDROOT
BRANCH   6  12
ATOM     12  C   UNL     1     105.161 123.906 139.571  0.00  0.00    +0.000 A 
ATOM     13  C   UNL     1     105.409 123.290 140.060  0.00  0.00    +0.000 A 
ATOM     14  C   UNL     1     105.507 124.652 139.640  0.00  0.00    +0.000 A 
ATOM     15  C   UNL     1     106.002 123.419 140.620  0.00  0.00    +0.000 A 
ATOM     16  C   UNL     1     106.100 124.782 140.199  0.00  0.00    +0.000 A 
ATOM     17  C   UNL     1     106.347 124.165 140.688  0.00  0.00    +0.000 A 
ENDBRANCH   6  12
BRANCH   5  18
ATOM     18  O   UNL     1     101.969 123.517 137.529  0.00  0.00    +0.000 OA
ATOM     19  C   UNL     1     101.642 123.123 138.176  0.00  0.00    +0.000 C 
ENDBRANCH   5  18
BRANCH   8  20
ATOM     20  O   UNL     1     102.360 122.986 135.974  0.00  0.00    +0.000 OA
ATOM     21  C   UNL     1     102.546 122.957 135.170  0.00  0.00    +0.000 C 
ENDBRANCH   8  20
TORSDOF 3
ENDMDL
MODEL 2
REMARK VINA RESULT:      -7.7      8.383      9.628
REMARK  Name = 14349486
REMARK  3 active torsions:
REMARK  status: ('A' for Active; 'I' for Inactive)
REMARK    1  A    between atoms: O_2  and  C_7
REMARK    2  A    between atoms: O_3  and  C_10
REMARK    3  A    between atoms: C_8  and  C_13
REMARK                            x       y       z     vdW  Elec       q    Type
REMARK                         _______ _______ _______ _____ _____    ______ ____
ROOT
ATOM      1  O   UNL     1     105.463 124.341 147.348  0.00  0.00    +0.000 OA
ATOM      2  O   UNL     1     103.891 125.446 148.908  0.00  0.00    +0.000 OA
ATOM      3  C   UNL     1     104.128 124.680 147.725  0.00  0.00    +0.000 A 
ATOM      4  C   UNL     1     104.652 124.312 147.205  0.00  0.00    +0.000 A 
ATOM      5  C   UNL     1     103.280 124.657 147.586  0.00  0.00    +0.000 A 
ATOM      6  C   UNL     1     105.752 124.738 148.012  0.00  0.00    +0.000 A 
ATOM      7  C   UNL     1     104.415 125.077 148.388  0.00  0.00    +0.000 A 
ATOM      8  C   UNL     1     102.974 124.245 146.897  0.00  0.00    +0.000 A 
ATOM      9  C   UNL     1     105.228 125.106 148.532  0.00  0.00    +0.000 A 
ATOM     10  C   UNL     1     104.364 123.895 146.510  0.00  0.00    +0.000 A 
ATOM     11  C   UNL     1     103.519 123.862 146.356  0.00  0.00    +0.000 A 
ENDROOT
BRANCH   6  12
ATOM     12  C   UNL     1     106.563 124.767 148.155  0.00  0.00    +0.000 A 
ATOM     13  C   UNL     1     106.878 124.391 148.818  0.00  0.00    +0.000 A 
ATOM     14  C   UNL     1     107.060 125.171 147.635  0.00  0.00    +0.000 A 
ATOM     15  C   UNL     1     107.691 124.420 148.962  0.00  0.00    +0.000 A 
ATOM     16  C   UNL     1     107.872 125.200 147.779  0.00  0.00    +0.000 A 
ATOM     17  C   UNL     1     108.187 124.824 148.442  0.00  0.00    +0.000 A 
ENDBRANCH   6  12
BRANCH   5  18
ATOM     18  O   UNL     1     102.763 125.028 148.112  0.00  0.00    +0.000 OA
ATOM     19  C   UNL     1     102.712 125.852 148.127  0.00  0.00    +0.000 C 
ENDBRANCH   5  18
BRANCH   8  20
ATOM     20  O   UNL     1     102.161 124.218 146.757  0.00  0.00    +0.000 OA
ATOM     21  C   UNL     1     101.851 123.656 146.239  0.00  0.00    +0.000 C 
ENDBRANCH   8  20
TORSDOF 3
ENDMDL
MODEL 3
REMARK VINA RESULT:      -7.6      7.726      8.948
REMARK  Name = 14349486
REMARK  3 active torsions:
REMARK  status: ('A' for Active; 'I' for Inactive)
REMARK    1  A    between atoms: O_2  and  C_7
REMARK    2  A    between atoms: O_3  and  C_10
REMARK    3  A    between atoms: C_8  and  C_13
REMARK                            x       y       z     vdW  Elec       q    Type
REMARK                         _______ _______ _______ _____ _____    ______ ____
ROOT
ATOM      1  O   UNL     1     112.656 126.664 136.263  0.00  0.00    +0.000 OA
ATOM      2  O   UNL     1     110.748 125.160 135.789  0.00  0.00    +0.000 OA
ATOM      3  C   UNL     1     111.331 126.465 135.769  0.00  0.00    +0.000 A 
ATOM      4  C   UNL     1     111.967 126.967 135.927  0.00  0.00    +0.000 A 
ATOM      5  C   UNL     1     110.606 126.769 135.419  0.00  0.00    +0.000 A 
ATOM      6  C   UNL     1     112.711 125.860 136.441  0.00  0.00    +0.000 A 
ATOM      7  C   UNL     1     111.384 125.662 135.947  0.00  0.00    +0.000 A 
ATOM      8  C   UNL     1     110.544 127.605 135.232  0.00  0.00    +0.000 A 
ATOM      9  C   UNL     1     112.075 125.359 136.283  0.00  0.00    +0.000 A 
ATOM     10  C   UNL     1     111.922 127.806 135.746  0.00  0.00    +0.000 A 
ATOM     11  C   UNL     1     111.206 128.127 135.396  0.00  0.00    +0.000 A 
ENDROOT
BRANCH   6  12
ATOM     12  C   UNL     1     113.400 125.558 136.777  0.00  0.00    +0.000 A 
ATOM     13  C   UNL     1     113.952 125.167 136.304  0.00  0.00    +0.000 A 
ATOM     14  C   UNL     1     113.540 125.646 137.585  0.00  0.00    +0.000 A 
ATOM     15  C   UNL     1     114.643 124.864 136.640  0.00  0.00    +0.000 A 
ATOM     16  C   UNL     1     114.229 125.344 137.921  0.00  0.00    +0.000 A 
ATOM     17  C   UNL     1     114.781 124.952 137.448  0.00  0.00    +0.000 A 
ENDBRANCH   6  12
BRANCH   5  18
ATOM     18  O   UNL     1     109.976 126.260 135.265  0.00  0.00    +0.000 OA
ATOM     19  C   UNL     1     110.003 125.755 134.612  0.00  0.00    +0.000 C 
ENDBRANCH   5  18
BRANCH   8  20
ATOM     20  O   UNL     1     109.852 127.904 134.896  0.00  0.00    +0.000 OA
ATOM     21  C   UNL     1     109.735 128.719 134.852  0.00  0.00    +0.000 C 
ENDBRANCH   8  20
TORSDOF 3
ENDMDL
MODEL 4
REMARK VINA RESULT:      -7.6      7.709      9.246
REMARK  Name = 14349486
REMARK  3 active torsions:
REMARK  status: ('A' for Active; 'I' for Inactive)
REMARK    1  A    between atoms: O_2  and  C_7
REMARK    2  A    between atoms: O_3  and  C_10
REMARK    3  A    between atoms: C_8  and  C_13
REMARK                            x       y       z     vdW  Elec       q    Type
REMARK                         _______ _______ _______ _____ _____    ______ ____
ROOT
ATOM      1  O   UNL     1     104.977 124.785 147.985  0.00  0.00    +0.000 OA
ATOM      2  O   UNL     1     104.736 123.876 145.695  0.00  0.00    +0.000 OA
ATOM      3  C   UNL     1     104.146 124.353 146.906  0.00  0.00    +0.000 A 
ATOM      4  C   UNL     1     104.227 124.656 147.670  0.00  0.00    +0.000 A 
ATOM      5  C   UNL     1     103.369 124.214 146.567  0.00  0.00    +0.000 A 
ATOM      6  C   UNL     1     105.649 124.611 147.538  0.00  0.00    +0.000 A 
ATOM      7  C   UNL     1     104.817 124.179 146.458  0.00  0.00    +0.000 A 
ATOM      8  C   UNL     1     102.667 124.393 147.028  0.00  0.00    +0.000 A 
ATOM      9  C   UNL     1     105.568 124.308 146.774  0.00  0.00    +0.000 A 
ATOM     10  C   UNL     1     103.535 124.841 148.146  0.00  0.00    +0.000 A 
ATOM     11  C   UNL     1     102.750 124.709 147.823  0.00  0.00    +0.000 A 
ENDROOT
BRANCH   6  12
ATOM     12  C   UNL     1     106.400 124.740 147.853  0.00  0.00    +0.000 A 
ATOM     13  C   UNL     1     106.603 124.411 148.582  0.00  0.00    +0.000 A 
ATOM     14  C   UNL     1     106.948 125.198 147.440  0.00  0.00    +0.000 A 
ATOM     15  C   UNL     1     107.355 124.540 148.898  0.00  0.00    +0.000 A 
ATOM     16  C   UNL     1     107.699 125.326 147.755  0.00  0.00    +0.000 A 
ATOM     17  C   UNL     1     107.902 124.997 148.484  0.00  0.00    +0.000 A 
ENDBRANCH   6  12
BRANCH   5  18
ATOM     18  O   UNL     1     103.298 123.911 145.803  0.00  0.00    +0.000 OA
ATOM     19  C   UNL     1     103.464 123.116 145.658  0.00  0.00    +0.000 C 
ENDBRANCH   5  18
BRANCH   8  20
ATOM     20  O   UNL     1     101.917 124.263 146.709  0.00  0.00    +0.000 OA
ATOM     21  C   UNL     1     101.244 124.404 147.166  0.00  0.00    +0.000 C 
ENDBRANCH   8  20
TORSDOF 3
ENDMDL
MODEL 5
REMARK VINA RESULT:      -7.5      6.835      8.090
REMARK  Name = 14349486
REMARK  3 active torsions:
REMARK  status: ('A' for Active; 'I' for Inactive)
REMARK    1  A    between atoms: O_2  and  C_7
REMARK    2  A    between atoms: O_3  and  C_10
REMARK    3  A    between atoms: C_8  and  C_13
REMARK                            x       y       z     vdW  Elec       q    Type
REMARK                         _______ _______ _______ _____ _____    ______ ____
ROOT
ATOM      1  O   UNL     1     102.801 130.621 142.190  0.00  0.00    +0.000 OA
ATOM      2  O   UNL     1     102.690 129.693 139.898  0.00  0.00    +0.000 OA
ATOM      3  C   UNL     1     103.206 129.644 141.230  0.00  0.00    +0.000 A 
ATOM      4  C   UNL     1     103.243 129.954 141.994  0.00  0.00    +0.000 A 
ATOM      5  C   UNL     1     103.662 128.949 141.013  0.00  0.00    +0.000 A 
ATOM      6  C   UNL     1     102.321 130.981 141.622  0.00  0.00    +0.000 A 
ATOM      7  C   UNL     1     102.727 130.003 140.662  0.00  0.00    +0.000 A 
ATOM      8  C   UNL     1     104.163 128.571 141.600  0.00  0.00    +0.000 A 
ATOM      9  C   UNL     1     102.284 130.671 140.858  0.00  0.00    +0.000 A 
ATOM     10  C   UNL     1     103.738 129.589 142.594  0.00  0.00    +0.000 A 
ATOM     11  C   UNL     1     104.201 128.893 142.395  0.00  0.00    +0.000 A 
ENDROOT
BRANCH   6  12
ATOM     12  C   UNL     1     101.879 131.648 141.818  0.00  0.00    +0.000 A 
ATOM     13  C   UNL     1     101.157 131.565 142.209  0.00  0.00    +0.000 A 
ATOM     14  C   UNL     1     102.157 132.400 141.623  0.00  0.00    +0.000 A 
ATOM     15  C   UNL     1     100.714 132.233 142.406  0.00  0.00    +0.000 A 
ATOM     16  C   UNL     1     101.715 133.068 141.819  0.00  0.00    +0.000 A 
ATOM     17  C   UNL     1     100.994 132.984 142.210  0.00  0.00    +0.000 A 
ENDBRANCH   6  12
BRANCH   5  18
ATOM     18  O   UNL     1     103.619 128.646 140.247  0.00  0.00    +0.000 OA
ATOM     19  C   UNL     1     102.893 128.401 139.940  0.00  0.00    +0.000 C 
ENDBRANCH   5  18
BRANCH   8  20
ATOM     20  O   UNL     1     104.604 127.902 141.400  0.00  0.00    +0.000 OA
ATOM     21  C   UNL     1     105.198 127.634 141.906  0.00  0.00    +0.000 C 
ENDBRANCH   8  20
TORSDOF 3
ENDMDL
MODEL 6
REMARK VINA RESULT:      -7.4      7.673      9.237
REMARK  Name = 14349486
REMARK  3 active torsions:
REMARK  status: ('A' for Active; 'I' for Inactive)
REMARK    1  A    between atoms: O_2  and  C_7
REMARK    2  A    between atoms: O_3  and  C_10
REMARK    3  A    between atoms: C_8  and  C_13
REMARK                            x       y       z     vdW  Elec       q    Type
REMARK                         _______ _______ _______ _____ _____    ______ ____
ROOT
ATOM      1  O   UNL     1     104.394 124.305 147.222  0.00  0.00    +0.000 OA
ATOM      2  O   UNL     1     105.273 124.935 144.996  0.00  0.00    +0.000 OA
ATOM      3  C   UNL     1     105.467 124.771 146.402  0.00  0.00    +0.000 A 
ATOM      4  C   UNL     1     105.174 124.561 147.144  0.00  0.00    +0.000 A 
ATOM      5  C   UNL     1     106.278 125.040 146.308  0.00  0.00    +0.000 A 
ATOM      6  C   UNL     1     103.906 124.258 146.559  0.00  0.00    +0.000 A 
ATOM      7  C   UNL     1     104.980 124.725 145.738  0.00  0.00    +0.000 A 
ATOM      8  C   UNL     1     106.790 125.091 146.996  0.00  0.00    +0.000 A 
ATOM      9  C   UNL     1     104.199 124.468 145.816  0.00  0.00    +0.000 A 
ATOM     10  C   UNL     1     105.672 124.606 147.844  0.00  0.00    +0.000 A 
ATOM     11  C   UNL     1     106.485 124.872 147.769  0.00  0.00    +0.000 A 
ENDROOT
BRANCH   6  12
ATOM     12  C   UNL     1     103.127 124.002 146.636  0.00  0.00    +0.000 A 
ATOM     13  C   UNL     1     102.922 123.233 146.418  0.00  0.00    +0.000 A 
ATOM     14  C   UNL     1     102.551 124.513 146.932  0.00  0.00    +0.000 A 
ATOM     15  C   UNL     1     102.141 122.976 146.496  0.00  0.00    +0.000 A 
ATOM     16  C   UNL     1     101.771 124.257 147.010  0.00  0.00    +0.000 A 
ATOM     17  C   UNL     1     101.566 123.488 146.792  0.00  0.00    +0.000 A 
ENDBRANCH   6  12
BRANCH   5  18
ATOM     18  O   UNL     1     106.562 125.248 145.562  0.00  0.00    +0.000 OA
ATOM     19  C   UNL     1     106.300 125.942 145.199  0.00  0.00    +0.000 C 
ENDBRANCH   5  18
BRANCH   8  20
ATOM     20  O   UNL     1     107.570 125.348 146.914  0.00  0.00    +0.000 OA
ATOM     21  C   UNL     1     108.087 125.308 147.556  0.00  0.00    +0.000 C 
ENDBRANCH   8  20
TORSDOF 3
ENDMDL
MODEL 7
REMARK VINA RESULT:      -7.4      7.364      9.572
REMARK  Name = 14349486
REMARK  3 active torsions:
REMARK  status: ('A' for Active; 'I' for Inactive)
REMARK    1  A    between atoms: O_2  and  C_7
REMARK    2  A    between atoms: O_3  and  C_10
REMARK    3  A    between atoms: C_8  and  C_13
REMARK                            x       y       z     vdW  Elec       q    Type
REMARK                         _______ _______ _______ _____ _____    ______ ____
ROOT
ATOM      1  O   UNL     1     106.870 126.260 147.559  0.00  0.00    +0.000 OA
ATOM      2  O   UNL     1     106.781 125.117 145.365  0.00  0.00    +0.000 OA
ATOM      3  C   UNL     1     106.756 126.320 146.137  0.00  0.00    +0.000 A 
ATOM      4  C   UNL     1     106.785 126.701 146.868  0.00  0.00    +0.000 A 
ATOM      5  C   UNL     1     106.667 126.769 145.409  0.00  0.00    +0.000 A 
ATOM      6  C   UNL     1     106.925 125.438 147.520  0.00  0.00    +0.000 A 
ATOM      7  C   UNL     1     106.811 125.498 146.096  0.00  0.00    +0.000 A 
ATOM      8  C   UNL     1     106.610 127.626 145.443  0.00  0.00    +0.000 A 
ATOM      9  C   UNL     1     106.896 125.057 146.789  0.00  0.00    +0.000 A 
ATOM     10  C   UNL     1     106.729 127.557 146.922  0.00  0.00    +0.000 A 
ATOM     11  C   UNL     1     106.640 128.022 146.205  0.00  0.00    +0.000 A 
ENDROOT
BRANCH   6  12
ATOM     12  C   UNL     1     107.010 124.997 148.211  0.00  0.00    +0.000 A 
ATOM     13  C   UNL     1     106.346 124.670 148.576  0.00  0.00    +0.000 A 
ATOM     14  C   UNL     1     107.759 124.881 148.539  0.00  0.00    +0.000 A 
ATOM     15  C   UNL     1     106.430 124.228 149.269  0.00  0.00    +0.000 A 
ATOM     16  C   UNL     1     107.843 124.440 149.230  0.00  0.00    +0.000 A 
ATOM     17  C   UNL     1     107.179 124.113 149.595  0.00  0.00    +0.000 A 
ENDBRANCH   6  12
BRANCH   5  18
ATOM     18  O   UNL     1     106.639 126.380 144.682  0.00  0.00    +0.000 OA
ATOM     19  C   UNL     1     105.975 125.932 144.480  0.00  0.00    +0.000 C 
ENDBRANCH   5  18
BRANCH   8  20
ATOM     20  O   UNL     1     106.525 128.064 144.749  0.00  0.00    +0.000 OA
ATOM     21  C   UNL     1     106.596 128.886 144.769  0.00  0.00    +0.000 C 
ENDBRANCH   8  20
TORSDOF 3
ENDMDL
MODEL 8
REMARK VINA RESULT:      -7.4      7.881     10.044
REMARK  Name = 14349486
REMARK  3 active torsions:
REMARK  status: ('A' for Active; 'I' for Inactive)
REMARK    1  A    between atoms: O_2  and  C_7
REMARK    2  A    between atoms: O_3  and  C_10
REMARK    3  A    between atoms: C_8  and  C_13
REMARK                            x       y       z     vdW  Elec       q    Type
REMARK                         _______ _______ _______ _____ _____    ______ ____
ROOT
ATOM      1  O   UNL     1     113.762 126.438 138.850  0.00  0.00    +0.000 OA
ATOM      2  O   UNL     1     111.412 125.676 138.999  0.00  0.00    +0.000 OA
ATOM      3  C   UNL     1     112.511 126.412 139.540  0.00  0.00    +0.000 A 
ATOM      4  C   UNL     1     113.295 126.666 139.490  0.00  0.00    +0.000 A 
ATOM      5  C   UNL     1     112.014 126.642 140.202  0.00  0.00    +0.000 A 
ATOM      6  C   UNL     1     113.447 125.956 138.259  0.00  0.00    +0.000 A 
ATOM      7  C   UNL     1     112.195 125.930 138.950  0.00  0.00    +0.000 A 
ATOM      8  C   UNL     1     112.337 127.144 140.820  0.00  0.00    +0.000 A 
ATOM      9  C   UNL     1     112.663 125.702 138.309  0.00  0.00    +0.000 A 
ATOM     10  C   UNL     1     113.635 127.168 140.099  0.00  0.00    +0.000 A 
ATOM     11  C   UNL     1     113.153 127.408 140.769  0.00  0.00    +0.000 A 
ENDROOT
BRANCH   6  12
ATOM     12  C   UNL     1     113.914 125.729 137.619  0.00  0.00    +0.000 A 
ATOM     13  C   UNL     1     113.917 126.182 136.929  0.00  0.00    +0.000 A 
ATOM     14  C   UNL     1     114.378 125.048 137.667  0.00  0.00    +0.000 A 
ATOM     15  C   UNL     1     114.385 125.954 136.288  0.00  0.00    +0.000 A 
ATOM     16  C   UNL     1     114.845 124.821 137.027  0.00  0.00    +0.000 A 
ATOM     17  C   UNL     1     114.849 125.274 136.338  0.00  0.00    +0.000 A 
ENDBRANCH   6  12
BRANCH   5  18
ATOM     18  O   UNL     1     111.232 126.383 140.243  0.00  0.00    +0.000 OA
ATOM     19  C   UNL     1     110.665 126.702 139.735  0.00  0.00    +0.000 C 
ENDBRANCH   5  18
BRANCH   8  20
ATOM     20  O   UNL     1     111.867 127.369 141.460  0.00  0.00    +0.000 OA
ATOM     21  C   UNL     1     112.165 127.889 142.027  0.00  0.00    +0.000 C 
ENDBRANCH   8  20
TORSDOF 3
ENDMDL
MODEL 9
REMARK VINA RESULT:      -7.4      8.937     10.088
REMARK  Name = 14349486
REMARK  3 active torsions:
REMARK  status: ('A' for Active; 'I' for Inactive)
REMARK    1  A    between atoms: O_2  and  C_7
REMARK    2  A    between atoms: O_3  and  C_10
REMARK    3  A    between atoms: C_8  and  C_13
REMARK                            x       y       z     vdW  Elec       q    Type
REMARK                         _______ _______ _______ _____ _____    ______ ____
ROOT
ATOM      1  O   UNL     1     112.580 126.636 136.273  0.00  0.00    +0.000 OA
ATOM      2  O   UNL     1     113.594 128.879 136.016  0.00  0.00    +0.000 OA
ATOM      3  C   UNL     1     112.476 128.002 135.869  0.00  0.00    +0.000 A 
ATOM      4  C   UNL     1     112.138 127.254 135.954  0.00  0.00    +0.000 A 
ATOM      5  C   UNL     1     112.025 128.654 135.538  0.00  0.00    +0.000 A 
ATOM      6  C   UNL     1     113.361 126.764 136.507  0.00  0.00    +0.000 A 
ATOM      7  C   UNL     1     113.256 128.131 136.102  0.00  0.00    +0.000 A 
ATOM      8  C   UNL     1     111.212 128.526 135.293  0.00  0.00    +0.000 A 
ATOM      9  C   UNL     1     113.699 127.512 136.421  0.00  0.00    +0.000 A 
ATOM     10  C   UNL     1     111.325 127.107 135.714  0.00  0.00    +0.000 A 
ATOM     11  C   UNL     1     110.859 127.748 135.382  0.00  0.00    +0.000 A 
ENDROOT
BRANCH   6  12
ATOM     12  C   UNL     1     113.804 126.146 136.825  0.00  0.00    +0.000 A 
ATOM     13  C   UNL     1     113.779 125.997 137.636  0.00  0.00    +0.000 A 
ATOM     14  C   UNL     1     114.271 125.675 136.334  0.00  0.00    +0.000 A 
ATOM     15  C   UNL     1     114.222 125.377 137.956  0.00  0.00    +0.000 A 
ATOM     16  C   UNL     1     114.713 125.057 136.653  0.00  0.00    +0.000 A 
ATOM     17  C   UNL     1     114.689 124.908 137.464  0.00  0.00    +0.000 A 
ENDBRANCH   6  12
BRANCH   5  18
ATOM     18  O   UNL     1     112.371 129.399 135.456  0.00  0.00    +0.000 OA
ATOM     19  C   UNL     1     112.498 129.870 136.122  0.00  0.00    +0.000 C 
ENDBRANCH   5  18
BRANCH   8  20
ATOM     20  O   UNL     1     110.772 129.148 134.974  0.00  0.00    +0.000 OA
ATOM     21  C   UNL     1     110.021 129.004 134.663  0.00  0.00    +0.000 C 
ENDBRANCH   8  20
TORSDOF 3
ENDMDL
MODEL 10
REMARK VINA RESULT:      -7.3      7.738      9.823
REMARK  Name = 14349486
REMARK  3 active torsions:
REMARK  status: ('A' for Active; 'I' for Inactive)
REMARK    1  A    between atoms: O_2  and  C_7
REMARK    2  A    between atoms: O_3  and  C_10
REMARK    3  A    between atoms: C_8  and  C_13
REMARK                            x       y       z     vdW  Elec       q    Type
REMARK                         _______ _______ _______ _____ _____    ______ ____
ROOT
ATOM      1  O   UNL     1     111.612 126.331 137.083  0.00  0.00    +0.000 OA
ATOM      2  O   UNL     1     113.879 125.535 136.488  0.00  0.00    +0.000 OA
ATOM      3  C   UNL     1     112.965 126.062 137.453  0.00  0.00    +0.000 A 
ATOM      4  C   UNL     1     112.210 126.327 137.651  0.00  0.00    +0.000 A 
ATOM      5  C   UNL     1     113.597 126.053 138.036  0.00  0.00    +0.000 A 
ATOM      6  C   UNL     1     111.769 126.069 136.317  0.00  0.00    +0.000 A 
ATOM      7  C   UNL     1     113.123 125.800 136.687  0.00  0.00    +0.000 A 
ATOM      8  C   UNL     1     113.439 126.325 138.836  0.00  0.00    +0.000 A 
ATOM      9  C   UNL     1     112.524 125.804 136.118  0.00  0.00    +0.000 A 
ATOM     10  C   UNL     1     112.034 126.602 138.446  0.00  0.00    +0.000 A 
ATOM     11  C   UNL     1     112.652 126.601 139.042  0.00  0.00    +0.000 A 
ENDROOT
BRANCH   6  12
ATOM     12  C   UNL     1     111.171 126.073 135.749  0.00  0.00    +0.000 A 
ATOM     13  C   UNL     1     110.691 125.409 135.652  0.00  0.00    +0.000 A 
ATOM     14  C   UNL     1     111.053 126.740 135.278  0.00  0.00    +0.000 A 
ATOM     15  C   UNL     1     110.092 125.412 135.083  0.00  0.00    +0.000 A 
ATOM     16  C   UNL     1     110.455 126.743 134.710  0.00  0.00    +0.000 A 
ATOM     17  C   UNL     1     109.975 126.079 134.613  0.00  0.00    +0.000 A 
ENDBRANCH   6  12
BRANCH   5  18
ATOM     18  O   UNL     1     114.349 125.786 137.828  0.00  0.00    +0.000 OA
ATOM     19  C   UNL     1     114.467 124.992 137.636  0.00  0.00    +0.000 C 
ENDBRANCH   5  18
BRANCH   8  20
ATOM     20  O   UNL     1     114.040 126.320 139.401  0.00  0.00    +0.000 OA
ATOM     21  C   UNL     1     113.967 126.778 140.084  0.00  0.00    +0.000 C 
ENDBRANCH   8  20
TORSDOF 3
ENDMDL
