MODEL 1
REMARK VINA RESULT:      -9.8      0.000      0.000
REMARK  Name = 10531745
REMARK  9 active torsions:
REMARK  status: ('A' for Active; 'I' for Inactive)
REMARK    1  A    between atoms: O_1  and  C_16
REMARK    2  A    between atoms: O_1  and  C_20
REMARK    3  A    between atoms: O_7  and  C_22
REMARK    4  A    between atoms: O_7  and  C_27
REMARK    5  A    between atoms: O_10  and  C_26
REMARK    6  A    between atoms: O_10  and  C_30
REMARK    7  A    between atoms: C_17  and  C_25
REMARK    8  A    between atoms: C_23  and  C_26
REMARK    9  A    between atoms: C_36  and  C_38
REMARK                            x       y       z     vdW  Elec       q    Type
REMARK                         _______ _______ _______ _____ _____    ______ ____
ROOT
ATOM      1  O   UNL     1     106.270 126.683 141.423  0.00  0.00    +0.000 OA
ATOM      2  O   UNL     1     108.269 127.369 142.711  0.00  0.00    +0.000 OA
ATOM      3  O   UNL     1     106.836 128.158 142.929  0.00  0.00    +0.000 OA
ATOM      4  C   UNL     1     107.652 126.516 141.743  0.00  0.00    +0.000 C 
ATOM      5  C   UNL     1     107.602 127.140 142.282  0.00  0.00    +0.000 C 
ATOM      6  C   UNL     1     106.886 127.534 142.390  0.00  0.00    +0.000 C 
ATOM      7  C   UNL     1     106.986 126.288 141.313  0.00  0.00    +0.000 C 
ATOM      8  C   UNL     1     106.220 127.305 141.960  0.00  0.00    +0.000 C 
ENDROOT
BRANCH   4   9
ATOM      9  O   UNL     1     108.369 126.122 141.635  0.00  0.00    +0.000 OA
BRANCH   9  15
ATOM     10  O   UNL     1     108.830 127.077 140.616  0.00  0.00    +0.000 OA
ATOM     11  O   UNL     1     110.618 126.893 139.890  0.00  0.00    +0.000 OA
ATOM     12  O   UNL     1     110.020 125.470 141.365  0.00  0.00    +0.000 OA
ATOM     13  C   UNL     1     110.057 126.592 140.416  0.00  0.00    +0.000 C 
ATOM     14  C   UNL     1     109.689 126.124 140.985  0.00  0.00    +0.000 C 
ATOM     15  C   UNL     1     108.930 126.424 141.109  0.00  0.00    +0.000 C 
ATOM     16  C   UNL     1     109.527 127.182 140.187  0.00  0.00    +0.000 C 
BRANCH  13  18
ATOM     17  O   UNL     1     111.376 126.267 139.970  0.00  0.00    +0.000 OA
ATOM     18  C   UNL     1     110.735 126.125 140.471  0.00  0.00    +0.000 C 
ENDBRANCH  13  18
ENDBRANCH   9  15
ENDBRANCH   4   9
BRANCH   7  19
ATOM     19  O   UNL     1     107.037 125.665 140.776  0.00  0.00    +0.000 OA
BRANCH  19  23
ATOM     20  O   UNL     1     104.864 124.333 139.364  0.00  0.00    +0.000 OA
ATOM     21  O   UNL     1     105.564 123.478 142.033  0.00  0.00    +0.000 OA
ATOM     22  O   UNL     1     104.495 122.842 141.304  0.00  0.00    +0.000 OA
ATOM     23  C   UNL     1     106.444 125.092 140.752  0.00  0.00    +0.000 A 
ATOM     24  C   UNL     1     105.950 125.008 140.053  0.00  0.00    +0.000 A 
ATOM     25  C   UNL     1     106.315 124.574 141.425  0.00  0.00    +0.000 A 
ATOM     26  C   UNL     1     105.335 124.409 140.037  0.00  0.00    +0.000 A 
ATOM     27  C   UNL     1     105.695 123.980 141.391  0.00  0.00    +0.000 A 
ATOM     28  C   UNL     1     105.212 123.912 140.684  0.00  0.00    +0.000 A 
ATOM     29  C   UNL     1     104.618 123.339 140.657  0.00  0.00    +0.000 A 
ATOM     30  C   UNL     1     104.271 123.761 139.337  0.00  0.00    +0.000 A 
ATOM     31  C   UNL     1     104.148 123.264 139.984  0.00  0.00    +0.000 A 
BRANCH  30  33
ATOM     32  O   UNL     1     102.387 123.461 136.644  0.00  0.00    +0.000 OA
ATOM     33  C   UNL     1     103.800 123.686 138.664  0.00  0.00    +0.000 A 
ATOM     34  C   UNL     1     104.129 123.412 137.959  0.00  0.00    +0.000 A 
ATOM     35  C   UNL     1     102.999 123.885 138.696  0.00  0.00    +0.000 A 
ATOM     36  C   UNL     1     103.658 123.337 137.286  0.00  0.00    +0.000 A 
ATOM     37  C   UNL     1     102.529 123.810 138.023  0.00  0.00    +0.000 A 
ATOM     38  C   UNL     1     102.858 123.536 137.318  0.00  0.00    +0.000 A 
ENDBRANCH  30  33
ENDBRANCH  19  23
ENDBRANCH   7  19
BRANCH   8  39
ATOM     39  C   UNL     1     105.503 127.700 142.069  0.00  0.00    +0.000 C 
BRANCH  39  40
ATOM     40  O   UNL     1     105.110 128.029 141.424  0.00  0.00    +0.000 OA
BRANCH  40  42
ATOM     41  O   UNL     1     104.126 128.693 142.218  0.00  0.00    +0.000 OA
ATOM     42  C   UNL     1     104.346 128.327 141.512  0.00  0.00    +0.000 C 
ATOM     43  C   UNL     1     103.802 128.258 140.897  0.00  0.00    +0.000 C 
ENDBRANCH  40  42
ENDBRANCH  39  40
ENDBRANCH   8  39
TORSDOF 9
ENDMDL
MODEL 2
REMARK VINA RESULT:      -9.8      6.811      8.494
REMARK  Name = 10531745
REMARK  9 active torsions:
REMARK  status: ('A' for Active; 'I' for Inactive)
REMARK    1  A    between atoms: O_1  and  C_16
REMARK    2  A    between atoms: O_1  and  C_20
REMARK    3  A    between atoms: O_7  and  C_22
REMARK    4  A    between atoms: O_7  and  C_27
REMARK    5  A    between atoms: O_10  and  C_26
REMARK    6  A    between atoms: O_10  and  C_30
REMARK    7  A    between atoms: C_17  and  C_25
REMARK    8  A    between atoms: C_23  and  C_26
REMARK    9  A    between atoms: C_36  and  C_38
REMARK                            x       y       z     vdW  Elec       q    Type
REMARK                         _______ _______ _______ _____ _____    ______ ____
ROOT
ATOM      1  O   UNL     1     110.942 130.492 137.790  0.00  0.00    +0.000 OA
ATOM      2  O   UNL     1     109.848 132.709 137.673  0.00  0.00    +0.000 OA
ATOM      3  O   UNL     1     110.488 132.179 139.099  0.00  0.00    +0.000 OA
ATOM      4  C   UNL     1     110.258 131.496 137.038  0.00  0.00    +0.000 C 
ATOM      5  C   UNL     1     110.213 131.970 137.712  0.00  0.00    +0.000 C 
ATOM      6  C   UNL     1     110.533 131.704 138.424  0.00  0.00    +0.000 C 
ATOM      7  C   UNL     1     110.623 130.757 137.077  0.00  0.00    +0.000 C 
ATOM      8  C   UNL     1     110.898 130.966 138.463  0.00  0.00    +0.000 C 
ENDROOT
BRANCH   4   9
ATOM      9  O   UNL     1     109.938 131.761 136.325  0.00  0.00    +0.000 OA
BRANCH   9  15
ATOM     10  O   UNL     1     108.585 131.301 136.670  0.00  0.00    +0.000 OA
ATOM     11  O   UNL     1     107.115 131.705 135.472  0.00  0.00    +0.000 OA
ATOM     12  O   UNL     1     109.050 132.406 134.904  0.00  0.00    +0.000 OA
ATOM     13  C   UNL     1     107.925 131.780 135.614  0.00  0.00    +0.000 C 
ATOM     14  C   UNL     1     108.720 131.982 135.530  0.00  0.00    +0.000 C 
ATOM     15  C   UNL     1     109.128 131.686 136.184  0.00  0.00    +0.000 C 
ATOM     16  C   UNL     1     107.841 131.359 136.318  0.00  0.00    +0.000 C 
BRANCH  13  18
ATOM     17  O   UNL     1     106.981 132.169 134.614  0.00  0.00    +0.000 OA
ATOM     18  C   UNL     1     107.755 132.158 134.900  0.00  0.00    +0.000 C 
ENDBRANCH  13  18
ENDBRANCH   9  15
ENDBRANCH   4   9
BRANCH   7  19
ATOM     19  O   UNL     1     110.668 130.283 136.403  0.00  0.00    +0.000 OA
BRANCH  19  23
ATOM     20  O   UNL     1     111.641 127.543 136.579  0.00  0.00    +0.000 OA
ATOM     21  O   UNL     1     113.442 129.645 135.750  0.00  0.00    +0.000 OA
ATOM     22  O   UNL     1     113.889 128.277 135.848  0.00  0.00    +0.000 OA
ATOM     23  C   UNL     1     111.278 129.734 136.325  0.00  0.00    +0.000 A 
ATOM     24  C   UNL     1     111.139 128.903 136.497  0.00  0.00    +0.000 A 
ATOM     25  C   UNL     1     112.059 129.988 136.072  0.00  0.00    +0.000 A 
ATOM     26  C   UNL     1     111.781 128.339 136.413  0.00  0.00    +0.000 A 
ATOM     27  C   UNL     1     112.689 129.409 135.993  0.00  0.00    +0.000 A 
ATOM     28  C   UNL     1     112.530 128.584 136.169  0.00  0.00    +0.000 A 
ATOM     29  C   UNL     1     113.139 128.033 136.092  0.00  0.00    +0.000 A 
ATOM     30  C   UNL     1     112.250 126.992 136.502  0.00  0.00    +0.000 A 
ATOM     31  C   UNL     1     112.999 127.237 136.258  0.00  0.00    +0.000 A 
BRANCH  30  33
ATOM     32  O   UNL     1     111.689 123.809 137.166  0.00  0.00    +0.000 OA
ATOM     33  C   UNL     1     112.109 126.196 136.668  0.00  0.00    +0.000 A 
ATOM     34  C   UNL     1     112.336 125.881 137.396  0.00  0.00    +0.000 A 
ATOM     35  C   UNL     1     111.742 125.716 136.106  0.00  0.00    +0.000 A 
ATOM     36  C   UNL     1     112.196 125.085 137.561  0.00  0.00    +0.000 A 
ATOM     37  C   UNL     1     111.602 124.920 136.272  0.00  0.00    +0.000 A 
ATOM     38  C   UNL     1     111.829 124.605 137.000  0.00  0.00    +0.000 A 
ENDBRANCH  30  33
ENDBRANCH  19  23
ENDBRANCH   7  19
BRANCH   8  39
ATOM     39  C   UNL     1     111.217 130.701 139.177  0.00  0.00    +0.000 C 
BRANCH  39  40
ATOM     40  O   UNL     1     112.008 130.470 139.214  0.00  0.00    +0.000 OA
BRANCH  40  42
ATOM     41  O   UNL     1     112.679 130.582 140.470  0.00  0.00    +0.000 OA
ATOM     42  C   UNL     1     112.303 130.119 139.900  0.00  0.00    +0.000 C 
ATOM     43  C   UNL     1     112.224 129.307 140.017  0.00  0.00    +0.000 C 
ENDBRANCH  40  42
ENDBRANCH  39  40
ENDBRANCH   8  39
TORSDOF 9
ENDMDL
MODEL 3
REMARK VINA RESULT:      -9.7      6.858      8.719
REMARK  Name = 10531745
REMARK  9 active torsions:
REMARK  status: ('A' for Active; 'I' for Inactive)
REMARK    1  A    between atoms: O_1  and  C_16
REMARK    2  A    between atoms: O_1  and  C_20
REMARK    3  A    between atoms: O_7  and  C_22
REMARK    4  A    between atoms: O_7  and  C_27
REMARK    5  A    between atoms: O_10  and  C_26
REMARK    6  A    between atoms: O_10  and  C_30
REMARK    7  A    between atoms: C_17  and  C_25
REMARK    8  A    between atoms: C_23  and  C_26
REMARK    9  A    between atoms: C_36  and  C_38
REMARK                            x       y       z     vdW  Elec       q    Type
REMARK                         _______ _______ _______ _____ _____    ______ ____
ROOT
ATOM      1  O   UNL     1     112.679 130.170 139.101  0.00  0.00    +0.000 OA
ATOM      2  O   UNL     1     110.648 130.163 140.515  0.00  0.00    +0.000 OA
ATOM      3  O   UNL     1     112.140 130.232 141.215  0.00  0.00    +0.000 OA
ATOM      4  C   UNL     1     111.256 130.133 139.221  0.00  0.00    +0.000 C 
ATOM      5  C   UNL     1     111.325 130.165 140.044  0.00  0.00    +0.000 C 
ATOM      6  C   UNL     1     112.071 130.200 140.393  0.00  0.00    +0.000 C 
ATOM      7  C   UNL     1     111.933 130.135 138.750  0.00  0.00    +0.000 C 
ATOM      8  C   UNL     1     112.748 130.202 139.922  0.00  0.00    +0.000 C 
ENDROOT
BRANCH   4   9
ATOM      9  O   UNL     1     110.509 130.098 138.872  0.00  0.00    +0.000 OA
BRANCH   9  15
ATOM     10  O   UNL     1     110.382 131.562 138.813  0.00  0.00    +0.000 OA
ATOM     11  O   UNL     1     108.724 132.341 138.180  0.00  0.00    +0.000 OA
ATOM     12  O   UNL     1     108.834 130.210 138.237  0.00  0.00    +0.000 OA
ATOM     13  C   UNL     1     109.137 131.644 138.341  0.00  0.00    +0.000 C 
ATOM     14  C   UNL     1     109.327 130.846 138.419  0.00  0.00    +0.000 C 
ATOM     15  C   UNL     1     110.097 130.795 138.711  0.00  0.00    +0.000 C 
ATOM     16  C   UNL     1     109.789 132.087 138.585  0.00  0.00    +0.000 C 
BRANCH  13  18
ATOM     17  O   UNL     1     107.804 132.015 137.983  0.00  0.00    +0.000 OA
ATOM     18  C   UNL     1     108.389 131.438 138.059  0.00  0.00    +0.000 C 
ENDBRANCH  13  18
ENDBRANCH   9  15
ENDBRANCH   4   9
BRANCH   7  19
ATOM     19  O   UNL     1     111.864 130.103 137.929  0.00  0.00    +0.000 OA
BRANCH  19  23
ATOM     20  O   UNL     1     112.875 127.488 137.138  0.00  0.00    +0.000 OA
ATOM     21  O   UNL     1     114.062 129.873 136.021  0.00  0.00    +0.000 OA
ATOM     22  O   UNL     1     114.537 128.562 135.652  0.00  0.00    +0.000 OA
ATOM     23  C   UNL     1     112.387 129.641 137.489  0.00  0.00    +0.000 A 
ATOM     24  C   UNL     1     112.358 128.783 137.544  0.00  0.00    +0.000 A 
ATOM     25  C   UNL     1     112.964 130.013 136.973  0.00  0.00    +0.000 A 
ATOM     26  C   UNL     1     112.907 128.311 137.082  0.00  0.00    +0.000 A 
ATOM     27  C   UNL     1     113.505 129.524 136.519  0.00  0.00    +0.000 A 
ATOM     28  C   UNL     1     113.461 128.669 136.587  0.00  0.00    +0.000 A 
ATOM     29  C   UNL     1     113.983 128.204 136.148  0.00  0.00    +0.000 A 
ATOM     30  C   UNL     1     113.397 127.024 136.700  0.00  0.00    +0.000 A 
ATOM     31  C   UNL     1     113.951 127.382 136.204  0.00  0.00    +0.000 A 
BRANCH  30  33
ATOM     32  O   UNL     1     113.269 123.734 136.926  0.00  0.00    +0.000 OA
ATOM     33  C   UNL     1     113.364 126.201 136.756  0.00  0.00    +0.000 A 
ATOM     34  C   UNL     1     112.751 125.786 136.392  0.00  0.00    +0.000 A 
ATOM     35  C   UNL     1     113.946 125.794 137.177  0.00  0.00    +0.000 A 
ATOM     36  C   UNL     1     112.720 124.964 136.449  0.00  0.00    +0.000 A 
ATOM     37  C   UNL     1     113.914 124.972 137.233  0.00  0.00    +0.000 A 
ATOM     38  C   UNL     1     113.301 124.557 136.870  0.00  0.00    +0.000 A 
ENDBRANCH  30  33
ENDBRANCH  19  23
ENDBRANCH   7  19
BRANCH   8  39
ATOM     39  C   UNL     1     113.494 130.237 140.273  0.00  0.00    +0.000 C 
BRANCH  39  40
ATOM     40  O   UNL     1     114.072 130.740 139.966  0.00  0.00    +0.000 OA
BRANCH  40  42
ATOM     41  O   UNL     1     114.981 131.501 140.764  0.00  0.00    +0.000 OA
ATOM     42  C   UNL     1     114.800 130.812 140.347  0.00  0.00    +0.000 C 
ATOM     43  C   UNL     1     115.348 130.197 140.310  0.00  0.00    +0.000 C 
ENDBRANCH  40  42
ENDBRANCH  39  40
ENDBRANCH   8  39
TORSDOF 9
ENDMDL
MODEL 4
REMARK VINA RESULT:      -9.7      3.465      5.843
REMARK  Name = 10531745
REMARK  9 active torsions:
REMARK  status: ('A' for Active; 'I' for Inactive)
REMARK    1  A    between atoms: O_1  and  C_16
REMARK    2  A    between atoms: O_1  and  C_20
REMARK    3  A    between atoms: O_7  and  C_22
REMARK    4  A    between atoms: O_7  and  C_27
REMARK    5  A    between atoms: O_10  and  C_26
REMARK    6  A    between atoms: O_10  and  C_30
REMARK    7  A    between atoms: C_17  and  C_25
REMARK    8  A    between atoms: C_23  and  C_26
REMARK    9  A    between atoms: C_36  and  C_38
REMARK                            x       y       z     vdW  Elec       q    Type
REMARK                         _______ _______ _______ _____ _____    ______ ____
ROOT
ATOM      1  O   UNL     1     106.264 128.744 142.466  0.00  0.00    +0.000 OA
ATOM      2  O   UNL     1     107.712 126.767 142.814  0.00  0.00    +0.000 OA
ATOM      3  O   UNL     1     108.376 128.206 142.354  0.00  0.00    +0.000 OA
ATOM      4  C   UNL     1     106.414 127.366 142.812  0.00  0.00    +0.000 C 
ATOM      5  C   UNL     1     107.229 127.426 142.698  0.00  0.00    +0.000 C 
ATOM      6  C   UNL     1     107.561 128.145 142.468  0.00  0.00    +0.000 C 
ATOM      7  C   UNL     1     105.931 128.025 142.696  0.00  0.00    +0.000 C 
ATOM      8  C   UNL     1     107.078 128.804 142.352  0.00  0.00    +0.000 C 
ENDROOT
BRANCH   4   9
ATOM      9  O   UNL     1     106.082 126.646 143.042  0.00  0.00    +0.000 OA
BRANCH   9  15
ATOM     10  O   UNL     1     106.367 126.879 144.466  0.00  0.00    +0.000 OA
ATOM     11  O   UNL     1     106.010 125.465 145.744  0.00  0.00    +0.000 OA
ATOM     12  O   UNL     1     105.571 125.054 143.695  0.00  0.00    +0.000 OA
ATOM     13  C   UNL     1     105.987 125.695 144.951  0.00  0.00    +0.000 C 
ATOM     14  C   UNL     1     105.870 125.685 144.135  0.00  0.00    +0.000 C 
ATOM     15  C   UNL     1     106.105 126.417 143.835  0.00  0.00    +0.000 C 
ATOM     16  C   UNL     1     106.294 126.433 145.156  0.00  0.00    +0.000 C 
BRANCH  13  18
ATOM     17  O   UNL     1     105.720 124.522 145.722  0.00  0.00    +0.000 OA
ATOM     18  C   UNL     1     105.702 124.922 145.001  0.00  0.00    +0.000 C 
ENDBRANCH  13  18
ENDBRANCH   9  15
ENDBRANCH   4   9
BRANCH   7  19
ATOM     19  O   UNL     1     105.117 127.964 142.810  0.00  0.00    +0.000 OA
BRANCH  19  23
ATOM     20  O   UNL     1     103.254 130.062 142.025  0.00  0.00    +0.000 OA
ATOM     21  O   UNL     1     103.789 127.878 140.211  0.00  0.00    +0.000 OA
ATOM     22  O   UNL     1     102.872 128.933 139.855  0.00  0.00    +0.000 OA
ATOM     23  C   UNL     1     104.598 128.290 142.258  0.00  0.00    +0.000 A 
ATOM     24  C   UNL     1     104.186 129.025 142.433  0.00  0.00    +0.000 A 
ATOM     25  C   UNL     1     104.465 127.899 141.505  0.00  0.00    +0.000 A 
ATOM     26  C   UNL     1     103.647 129.357 141.852  0.00  0.00    +0.000 A 
ATOM     27  C   UNL     1     103.922 128.247 140.937  0.00  0.00    +0.000 A 
ATOM     28  C   UNL     1     103.520 128.981 141.129  0.00  0.00    +0.000 A 
ATOM     29  C   UNL     1     103.000 129.309 140.579  0.00  0.00    +0.000 A 
ATOM     30  C   UNL     1     102.735 130.390 141.475  0.00  0.00    +0.000 A 
ATOM     31  C   UNL     1     102.608 130.014 140.752  0.00  0.00    +0.000 A 
BRANCH  30  33
ATOM     32  O   UNL     1     101.164 133.208 142.167  0.00  0.00    +0.000 OA
ATOM     33  C   UNL     1     102.342 131.095 141.648  0.00  0.00    +0.000 A 
ATOM     34  C   UNL     1     102.715 131.818 141.514  0.00  0.00    +0.000 A 
ATOM     35  C   UNL     1     101.576 131.075 141.955  0.00  0.00    +0.000 A 
ATOM     36  C   UNL     1     102.322 132.522 141.687  0.00  0.00    +0.000 A 
ATOM     37  C   UNL     1     101.183 131.780 142.128  0.00  0.00    +0.000 A 
ATOM     38  C   UNL     1     101.556 132.504 141.994  0.00  0.00    +0.000 A 
ENDBRANCH  30  33
ENDBRANCH  19  23
ENDBRANCH   7  19
BRANCH   8  39
ATOM     39  C   UNL     1     107.411 129.524 142.122  0.00  0.00    +0.000 C 
BRANCH  39  40
ATOM     40  O   UNL     1     107.094 130.233 142.399  0.00  0.00    +0.000 OA
BRANCH  40  42
ATOM     41  O   UNL     1     108.061 131.258 142.166  0.00  0.00    +0.000 OA
ATOM     42  C   UNL     1     107.307 130.947 142.044  0.00  0.00    +0.000 C 
ATOM     43  C   UNL     1     106.767 131.349 141.569  0.00  0.00    +0.000 C 
ENDBRANCH  40  42
ENDBRANCH  39  40
ENDBRANCH   8  39
TORSDOF 9
ENDMDL
MODEL 5
REMARK VINA RESULT:      -9.6      2.533      3.932
REMARK  Name = 10531745
REMARK  9 active torsions:
REMARK  status: ('A' for Active; 'I' for Inactive)
REMARK    1  A    between atoms: O_1  and  C_16
REMARK    2  A    between atoms: O_1  and  C_20
REMARK    3  A    between atoms: O_7  and  C_22
REMARK    4  A    between atoms: O_7  and  C_27
REMARK    5  A    between atoms: O_10  and  C_26
REMARK    6  A    between atoms: O_10  and  C_30
REMARK    7  A    between atoms: C_17  and  C_25
REMARK    8  A    between atoms: C_23  and  C_26
REMARK    9  A    between atoms: C_36  and  C_38
REMARK                            x       y       z     vdW  Elec       q    Type
REMARK                         _______ _______ _______ _____ _____    ______ ____
ROOT
ATOM      1  O   UNL     1     105.649 127.081 143.221  0.00  0.00    +0.000 OA
ATOM      2  O   UNL     1     106.344 127.769 145.495  0.00  0.00    +0.000 OA
ATOM      3  O   UNL     1     105.591 128.849 144.500  0.00  0.00    +0.000 OA
ATOM      4  C   UNL     1     106.257 126.769 144.476  0.00  0.00    +0.000 C 
ATOM      5  C   UNL     1     106.112 127.539 144.737  0.00  0.00    +0.000 C 
ATOM      6  C   UNL     1     105.736 128.079 144.239  0.00  0.00    +0.000 C 
ATOM      7  C   UNL     1     106.026 126.540 143.718  0.00  0.00    +0.000 C 
ATOM      8  C   UNL     1     105.505 127.850 143.481  0.00  0.00    +0.000 C 
ENDROOT
BRANCH   4   9
ATOM      9  O   UNL     1     106.633 126.230 144.974  0.00  0.00    +0.000 OA
BRANCH   9  15
ATOM     10  O   UNL     1     105.375 125.796 145.599  0.00  0.00    +0.000 OA
ATOM     11  O   UNL     1     105.443 124.665 147.172  0.00  0.00    +0.000 OA
ATOM     12  O   UNL     1     107.310 125.255 146.321  0.00  0.00    +0.000 OA
ATOM     13  C   UNL     1     105.879 125.071 146.600  0.00  0.00    +0.000 C 
ATOM     14  C   UNL     1     106.509 125.376 146.165  0.00  0.00    +0.000 C 
ATOM     15  C   UNL     1     106.198 125.824 145.546  0.00  0.00    +0.000 C 
ATOM     16  C   UNL     1     105.178 125.330 146.251  0.00  0.00    +0.000 C 
BRANCH  13  18
ATOM     17  O   UNL     1     106.132 124.278 147.762  0.00  0.00    +0.000 OA
ATOM     18  C   UNL     1     106.411 124.699 147.109  0.00  0.00    +0.000 C 
ENDBRANCH  13  18
ENDBRANCH   9  15
ENDBRANCH   4   9
BRANCH   7  19
ATOM     19  O   UNL     1     106.170 125.772 143.458  0.00  0.00    +0.000 OA
BRANCH  19  23
ATOM     20  O   UNL     1     105.212 124.872 140.858  0.00  0.00    +0.000 OA
ATOM     21  O   UNL     1     107.943 125.772 141.137  0.00  0.00    +0.000 OA
ATOM     22  O   UNL     1     107.435 125.320 139.865  0.00  0.00    +0.000 OA
ATOM     23  C   UNL     1     106.304 125.626 142.657  0.00  0.00    +0.000 A 
ATOM     24  C   UNL     1     105.673 125.317 142.162  0.00  0.00    +0.000 A 
ATOM     25  C   UNL     1     107.075 125.781 142.312  0.00  0.00    +0.000 A 
ATOM     26  C   UNL     1     105.822 125.168 141.329  0.00  0.00    +0.000 A 
ATOM     27  C   UNL     1     107.205 125.626 141.477  0.00  0.00    +0.000 A 
ATOM     28  C   UNL     1     106.563 125.318 140.998  0.00  0.00    +0.000 A 
ATOM     29  C   UNL     1     106.694 125.171 140.197  0.00  0.00    +0.000 A 
ATOM     30  C   UNL     1     105.343 124.725 140.057  0.00  0.00    +0.000 A 
ATOM     31  C   UNL     1     106.084 124.875 139.726  0.00  0.00    +0.000 A 
BRANCH  30  33
ATOM     32  O   UNL     1     102.904 123.542 138.175  0.00  0.00    +0.000 OA
ATOM     33  C   UNL     1     104.733 124.429 139.587  0.00  0.00    +0.000 A 
ATOM     34  C   UNL     1     104.625 123.614 139.516  0.00  0.00    +0.000 A 
ATOM     35  C   UNL     1     104.232 124.949 139.187  0.00  0.00    +0.000 A 
ATOM     36  C   UNL     1     104.016 123.319 139.046  0.00  0.00    +0.000 A 
ATOM     37  C   UNL     1     103.622 124.653 138.717  0.00  0.00    +0.000 A 
ATOM     38  C   UNL     1     103.514 123.838 138.646  0.00  0.00    +0.000 A 
ENDBRANCH  30  33
ENDBRANCH  19  23
ENDBRANCH   7  19
BRANCH   8  39
ATOM     39  C   UNL     1     105.129 128.390 142.984  0.00  0.00    +0.000 C 
BRANCH  39  40
ATOM     40  O   UNL     1     104.548 128.133 142.458  0.00  0.00    +0.000 OA
BRANCH  40  42
ATOM     41  O   UNL     1     104.746 128.599 141.122  0.00  0.00    +0.000 OA
ATOM     42  C   UNL     1     104.319 128.614 141.828  0.00  0.00    +0.000 C 
ATOM     43  C   UNL     1     103.665 129.110 141.903  0.00  0.00    +0.000 C 
ENDBRANCH  40  42
ENDBRANCH  39  40
ENDBRANCH   8  39
TORSDOF 9
ENDMDL
MODEL 6
REMARK VINA RESULT:      -9.6      6.731      8.456
REMARK  Name = 10531745
REMARK  9 active torsions:
REMARK  status: ('A' for Active; 'I' for Inactive)
REMARK    1  A    between atoms: O_1  and  C_16
REMARK    2  A    between atoms: O_1  and  C_20
REMARK    3  A    between atoms: O_7  and  C_22
REMARK    4  A    between atoms: O_7  and  C_27
REMARK    5  A    between atoms: O_10  and  C_26
REMARK    6  A    between atoms: O_10  and  C_30
REMARK    7  A    between atoms: C_17  and  C_25
REMARK    8  A    between atoms: C_23  and  C_26
REMARK    9  A    between atoms: C_36  and  C_38
REMARK                            x       y       z     vdW  Elec       q    Type
REMARK                         _______ _______ _______ _____ _____    ______ ____
ROOT
ATOM      1  O   UNL     1     113.333 127.675 138.420  0.00  0.00    +0.000 OA
ATOM      2  O   UNL     1     112.934 127.936 140.849  0.00  0.00    +0.000 OA
ATOM      3  O   UNL     1     112.999 126.429 140.180  0.00  0.00    +0.000 OA
ATOM      4  C   UNL     1     113.167 128.516 139.563  0.00  0.00    +0.000 C 
ATOM      5  C   UNL     1     113.067 127.849 140.039  0.00  0.00    +0.000 C 
ATOM      6  C   UNL     1     113.100 127.096 139.705  0.00  0.00    +0.000 C 
ATOM      7  C   UNL     1     113.301 128.430 138.754  0.00  0.00    +0.000 C 
ATOM      8  C   UNL     1     113.233 127.009 138.895  0.00  0.00    +0.000 C 
ENDROOT
BRANCH   4   9
ATOM      9  O   UNL     1     113.135 129.270 139.898  0.00  0.00    +0.000 OA
BRANCH   9  15
ATOM     10  O   UNL     1     114.572 129.278 140.209  0.00  0.00    +0.000 OA
ATOM     11  O   UNL     1     115.330 130.805 141.131  0.00  0.00    +0.000 OA
ATOM     12  O   UNL     1     113.237 130.865 140.714  0.00  0.00    +0.000 OA
ATOM     13  C   UNL     1     114.647 130.464 140.815  0.00  0.00    +0.000 C 
ATOM     14  C   UNL     1     113.864 130.344 140.589  0.00  0.00    +0.000 C 
ATOM     15  C   UNL     1     113.817 129.611 140.213  0.00  0.00    +0.000 C 
ATOM     16  C   UNL     1     115.086 129.805 140.581  0.00  0.00    +0.000 C 
BRANCH  13  18
ATOM     17  O   UNL     1     115.021 131.674 141.479  0.00  0.00    +0.000 OA
ATOM     18  C   UNL     1     114.442 131.196 141.136  0.00  0.00    +0.000 C 
ENDBRANCH  13  18
ENDBRANCH   9  15
ENDBRANCH   4   9
BRANCH   7  19
ATOM     19  O   UNL     1     113.401 129.096 138.279  0.00  0.00    +0.000 OA
BRANCH  19  23
ATOM     20  O   UNL     1     111.021 129.619 136.683  0.00  0.00    +0.000 OA
ATOM     21  O   UNL     1     113.474 128.842 135.370  0.00  0.00    +0.000 OA
ATOM     22  O   UNL     1     112.276 129.109 134.612  0.00  0.00    +0.000 OA
ATOM     23  C   UNL     1     113.027 129.139 137.545  0.00  0.00    +0.000 A 
ATOM     24  C   UNL     1     112.198 129.362 137.494  0.00  0.00    +0.000 A 
ATOM     25  C   UNL     1     113.462 128.962 136.826  0.00  0.00    +0.000 A 
ATOM     26  C   UNL     1     111.816 129.405 136.726  0.00  0.00    +0.000 A 
ATOM     27  C   UNL     1     113.063 129.010 136.066  0.00  0.00    +0.000 A 
ATOM     28  C   UNL     1     112.235 129.235 136.036  0.00  0.00    +0.000 A 
ATOM     29  C   UNL     1     111.858 129.279 135.303  0.00  0.00    +0.000 A 
ATOM     30  C   UNL     1     110.644 129.664 135.951  0.00  0.00    +0.000 A 
ATOM     31  C   UNL     1     111.062 129.493 135.261  0.00  0.00    +0.000 A 
BRANCH  30  33
ATOM     32  O   UNL     1     107.462 130.520 135.782  0.00  0.00    +0.000 OA
ATOM     33  C   UNL     1     109.848 129.878 135.909  0.00  0.00    +0.000 A 
ATOM     34  C   UNL     1     109.639 130.667 135.790  0.00  0.00    +0.000 A 
ATOM     35  C   UNL     1     109.262 129.302 135.985  0.00  0.00    +0.000 A 
ATOM     36  C   UNL     1     108.844 130.881 135.748  0.00  0.00    +0.000 A 
ATOM     37  C   UNL     1     108.466 129.517 135.942  0.00  0.00    +0.000 A 
ATOM     38  C   UNL     1     108.257 130.306 135.824  0.00  0.00    +0.000 A 
ENDBRANCH  30  33
ENDBRANCH  19  23
ENDBRANCH   7  19
BRANCH   8  39
ATOM     39  C   UNL     1     113.266 126.255 138.561  0.00  0.00    +0.000 C 
BRANCH  39  40
ATOM     40  O   UNL     1     113.815 126.089 137.970  0.00  0.00    +0.000 OA
BRANCH  40  42
ATOM     41  O   UNL     1     113.107 125.006 137.364  0.00  0.00    +0.000 OA
ATOM     42  C   UNL     1     113.818 125.349 137.604  0.00  0.00    +0.000 C 
ATOM     43  C   UNL     1     114.529 124.953 137.479  0.00  0.00    +0.000 C 
ENDBRANCH  40  42
ENDBRANCH  39  40
ENDBRANCH   8  39
TORSDOF 9
ENDMDL
MODEL 7
REMARK VINA RESULT:      -9.5      5.488      7.824
REMARK  Name = 10531745
REMARK  9 active torsions:
REMARK  status: ('A' for Active; 'I' for Inactive)
REMARK    1  A    between atoms: O_1  and  C_16
REMARK    2  A    between atoms: O_1  and  C_20
REMARK    3  A    between atoms: O_7  and  C_22
REMARK    4  A    between atoms: O_7  and  C_27
REMARK    5  A    between atoms: O_10  and  C_26
REMARK    6  A    between atoms: O_10  and  C_30
REMARK    7  A    between atoms: C_17  and  C_25
REMARK    8  A    between atoms: C_23  and  C_26
REMARK    9  A    between atoms: C_36  and  C_38
REMARK                            x       y       z     vdW  Elec       q    Type
REMARK                         _______ _______ _______ _____ _____    ______ ____
ROOT
ATOM      1  O   UNL     1     109.862 128.520 136.606  0.00  0.00    +0.000 OA
ATOM      2  O   UNL     1     108.163 130.320 136.539  0.00  0.00    +0.000 OA
ATOM      3  O   UNL     1     108.102 129.086 135.445  0.00  0.00    +0.000 OA
ATOM      4  C   UNL     1     109.327 129.737 137.131  0.00  0.00    +0.000 C 
ATOM      5  C   UNL     1     108.730 129.720 136.561  0.00  0.00    +0.000 C 
ATOM      6  C   UNL     1     108.700 129.103 136.015  0.00  0.00    +0.000 C 
ATOM      7  C   UNL     1     109.893 129.137 137.154  0.00  0.00    +0.000 C 
ATOM      8  C   UNL     1     109.266 128.503 136.037  0.00  0.00    +0.000 C 
ENDROOT
BRANCH   4   9
ATOM      9  O   UNL     1     109.357 130.354 137.678  0.00  0.00    +0.000 OA
BRANCH   9  15
ATOM     10  O   UNL     1     110.139 131.217 136.780  0.00  0.00    +0.000 OA
ATOM     11  O   UNL     1     110.536 133.034 137.324  0.00  0.00    +0.000 OA
ATOM     12  O   UNL     1     109.396 131.842 138.681  0.00  0.00    +0.000 OA
ATOM     13  C   UNL     1     110.168 132.323 137.526  0.00  0.00    +0.000 C 
ATOM     14  C   UNL     1     109.743 131.749 137.938  0.00  0.00    +0.000 C 
ATOM     15  C   UNL     1     109.725 131.065 137.477  0.00  0.00    +0.000 C 
ATOM     16  C   UNL     1     110.413 131.994 136.809  0.00  0.00    +0.000 C 
BRANCH  13  18
ATOM     17  O   UNL     1     110.386 133.608 138.112  0.00  0.00    +0.000 OA
ATOM     18  C   UNL     1     110.048 132.855 138.144  0.00  0.00    +0.000 C 
ENDBRANCH  13  18
ENDBRANCH   9  15
ENDBRANCH   4   9
BRANCH   7  19
ATOM     19  O   UNL     1     110.489 129.155 137.723  0.00  0.00    +0.000 OA
BRANCH  19  23
ATOM     20  O   UNL     1     112.308 126.884 137.874  0.00  0.00    +0.000 OA
ATOM     21  O   UNL     1     110.170 127.128 139.802  0.00  0.00    +0.000 OA
ATOM     22  O   UNL     1     111.089 126.017 139.846  0.00  0.00    +0.000 OA
ATOM     23  C   UNL     1     110.732 128.455 138.087  0.00  0.00    +0.000 A 
ATOM     24  C   UNL     1     111.411 128.022 137.784  0.00  0.00    +0.000 A 
ATOM     25  C   UNL     1     110.309 128.154 138.771  0.00  0.00    +0.000 A 
ATOM     26  C   UNL     1     111.656 127.295 138.169  0.00  0.00    +0.000 A 
ATOM     27  C   UNL     1     110.570 127.425 139.144  0.00  0.00    +0.000 A 
ATOM     28  C   UNL     1     111.250 127.006 138.827  0.00  0.00    +0.000 A 
ATOM     29  C   UNL     1     111.495 126.307 139.189  0.00  0.00    +0.000 A 
ATOM     30  C   UNL     1     112.553 126.185 138.236  0.00  0.00    +0.000 A 
ATOM     31  C   UNL     1     112.147 125.896 138.893  0.00  0.00    +0.000 A 
BRANCH  30  33
ATOM     32  O   UNL     1     115.160 124.542 137.056  0.00  0.00    +0.000 OA
ATOM     33  C   UNL     1     113.205 125.774 137.941  0.00  0.00    +0.000 A 
ATOM     34  C   UNL     1     113.119 125.281 137.284  0.00  0.00    +0.000 A 
ATOM     35  C   UNL     1     113.942 125.856 138.303  0.00  0.00    +0.000 A 
ATOM     36  C   UNL     1     113.771 124.871 136.990  0.00  0.00    +0.000 A 
ATOM     37  C   UNL     1     114.594 125.445 138.008  0.00  0.00    +0.000 A 
ATOM     38  C   UNL     1     114.508 124.953 137.351  0.00  0.00    +0.000 A 
ENDBRANCH  30  33
ENDBRANCH  19  23
ENDBRANCH   7  19
BRANCH   8  39
ATOM     39  C   UNL     1     109.234 127.886 135.490  0.00  0.00    +0.000 C 
BRANCH  39  40
ATOM     40  O   UNL     1     109.581 127.160 135.666  0.00  0.00    +0.000 OA
BRANCH  40  42
ATOM     41  O   UNL     1     108.930 126.055 135.036  0.00  0.00    +0.000 OA
ATOM     42  C   UNL     1     109.583 126.555 135.105  0.00  0.00    +0.000 C 
ATOM     43  C   UNL     1     110.235 126.451 134.612  0.00  0.00    +0.000 C 
ENDBRANCH  40  42
ENDBRANCH  39  40
ENDBRANCH   8  39
TORSDOF 9
ENDMDL
MODEL 8
REMARK VINA RESULT:      -9.5      6.318      8.273
REMARK  Name = 10531745
REMARK  9 active torsions:
REMARK  status: ('A' for Active; 'I' for Inactive)
REMARK    1  A    between atoms: O_1  and  C_16
REMARK    2  A    between atoms: O_1  and  C_20
REMARK    3  A    between atoms: O_7  and  C_22
REMARK    4  A    between atoms: O_7  and  C_27
REMARK    5  A    between atoms: O_10  and  C_26
REMARK    6  A    between atoms: O_10  and  C_30
REMARK    7  A    between atoms: C_17  and  C_25
REMARK    8  A    between atoms: C_23  and  C_26
REMARK    9  A    between atoms: C_36  and  C_38
REMARK                            x       y       z     vdW  Elec       q    Type
REMARK                         _______ _______ _______ _____ _____    ______ ____
ROOT
ATOM      1  O   UNL     1     112.605 130.001 137.226  0.00  0.00    +0.000 OA
ATOM      2  O   UNL     1     113.118 130.598 139.572  0.00  0.00    +0.000 OA
ATOM      3  O   UNL     1     114.219 130.906 138.383  0.00  0.00    +0.000 OA
ATOM      4  C   UNL     1     112.224 130.046 138.602  0.00  0.00    +0.000 C 
ATOM      5  C   UNL     1     112.947 130.399 138.790  0.00  0.00    +0.000 C 
ATOM      6  C   UNL     1     113.497 130.553 138.195  0.00  0.00    +0.000 C 
ATOM      7  C   UNL     1     112.053 129.847 137.820  0.00  0.00    +0.000 C 
ATOM      8  C   UNL     1     113.326 130.354 137.413  0.00  0.00    +0.000 C 
ENDROOT
BRANCH   4   9
ATOM      9  O   UNL     1     111.674 129.893 139.197  0.00  0.00    +0.000 OA
BRANCH   9  15
ATOM     10  O   UNL     1     111.071 131.230 139.090  0.00  0.00    +0.000 OA
ATOM     11  O   UNL     1     109.622 131.711 140.284  0.00  0.00    +0.000 OA
ATOM     12  O   UNL     1     110.446 129.752 140.499  0.00  0.00    +0.000 OA
ATOM     13  C   UNL     1     110.158 131.125 140.058  0.00  0.00    +0.000 C 
ATOM     14  C   UNL     1     110.572 130.413 140.021  0.00  0.00    +0.000 C 
ATOM     15  C   UNL     1     111.137 130.478 139.423  0.00  0.00    +0.000 C 
ATOM     16  C   UNL     1     110.466 131.630 139.483  0.00  0.00    +0.000 C 
BRANCH  13  18
ATOM     17  O   UNL     1     109.121 131.298 141.026  0.00  0.00    +0.000 OA
ATOM     18  C   UNL     1     109.700 130.826 140.675  0.00  0.00    +0.000 C 
ENDBRANCH  13  18
ENDBRANCH   9  15
ENDBRANCH   4   9
BRANCH   7  19
ATOM     19  O   UNL     1     111.332 129.495 137.633  0.00  0.00    +0.000 OA
BRANCH  19  23
ATOM     20  O   UNL     1     111.783 126.713 136.894  0.00  0.00    +0.000 OA
ATOM     21  O   UNL     1     110.700 128.548 134.943  0.00  0.00    +0.000 OA
ATOM     22  O   UNL     1     110.936 127.164 134.612  0.00  0.00    +0.000 OA
ATOM     23  C   UNL     1     111.302 128.889 137.074  0.00  0.00    +0.000 A 
ATOM     24  C   UNL     1     111.565 128.096 137.280  0.00  0.00    +0.000 A 
ATOM     25  C   UNL     1     111.008 129.045 136.281  0.00  0.00    +0.000 A 
ATOM     26  C   UNL     1     111.530 127.472 136.691  0.00  0.00    +0.000 A 
ATOM     27  C   UNL     1     110.980 128.407 135.706  0.00  0.00    +0.000 A 
ATOM     28  C   UNL     1     111.247 127.622 135.930  0.00  0.00    +0.000 A 
ATOM     29  C   UNL     1     111.218 127.014 135.373  0.00  0.00    +0.000 A 
ATOM     30  C   UNL     1     111.754 126.105 136.337  0.00  0.00    +0.000 A 
ATOM     31  C   UNL     1     111.472 126.256 135.577  0.00  0.00    +0.000 A 
BRANCH  30  33
ATOM     32  O   UNL     1     112.767 123.072 137.151  0.00  0.00    +0.000 OA
ATOM     33  C   UNL     1     112.007 125.347 136.541  0.00  0.00    +0.000 A 
ATOM     34  C   UNL     1     112.796 125.132 136.429  0.00  0.00    +0.000 A 
ATOM     35  C   UNL     1     111.471 124.804 136.857  0.00  0.00    +0.000 A 
ATOM     36  C   UNL     1     113.048 124.373 136.632  0.00  0.00    +0.000 A 
ATOM     37  C   UNL     1     111.725 124.046 137.060  0.00  0.00    +0.000 A 
ATOM     38  C   UNL     1     112.513 123.831 136.948  0.00  0.00    +0.000 A 
ENDBRANCH  30  33
ENDBRANCH  19  23
ENDBRANCH   7  19
BRANCH   8  39
ATOM     39  C   UNL     1     113.878 130.508 136.819  0.00  0.00    +0.000 C 
BRANCH  39  40
ATOM     40  O   UNL     1     114.159 129.893 136.347  0.00  0.00    +0.000 OA
BRANCH  40  42
ATOM     41  O   UNL     1     114.946 130.782 135.552  0.00  0.00    +0.000 OA
ATOM     42  C   UNL     1     114.557 130.060 135.644  0.00  0.00    +0.000 C 
ATOM     43  C   UNL     1     114.565 129.507 135.032  0.00  0.00    +0.000 C 
ENDBRANCH  40  42
ENDBRANCH  39  40
ENDBRANCH   8  39
TORSDOF 9
ENDMDL
MODEL 9
REMARK VINA RESULT:      -9.4      5.934      7.932
REMARK  Name = 10531745
REMARK  9 active torsions:
REMARK  status: ('A' for Active; 'I' for Inactive)
REMARK    1  A    between atoms: O_1  and  C_16
REMARK    2  A    between atoms: O_1  and  C_20
REMARK    3  A    between atoms: O_7  and  C_22
REMARK    4  A    between atoms: O_7  and  C_27
REMARK    5  A    between atoms: O_10  and  C_26
REMARK    6  A    between atoms: O_10  and  C_30
REMARK    7  A    between atoms: C_17  and  C_25
REMARK    8  A    between atoms: C_23  and  C_26
REMARK    9  A    between atoms: C_36  and  C_38
REMARK                            x       y       z     vdW  Elec       q    Type
REMARK                         _______ _______ _______ _____ _____    ______ ____
ROOT
ATOM      1  O   UNL     1     110.086 129.762 137.721  0.00  0.00    +0.000 OA
ATOM      2  O   UNL     1     109.003 131.672 138.864  0.00  0.00    +0.000 OA
ATOM      3  O   UNL     1     108.313 131.018 137.515  0.00  0.00    +0.000 OA
ATOM      4  C   UNL     1     110.071 130.725 138.777  0.00  0.00    +0.000 C 
ATOM      5  C   UNL     1     109.364 131.035 138.483  0.00  0.00    +0.000 C 
ATOM      6  C   UNL     1     109.019 130.708 137.809  0.00  0.00    +0.000 C 
ATOM      7  C   UNL     1     110.431 130.088 138.396  0.00  0.00    +0.000 C 
ATOM      8  C   UNL     1     109.380 130.071 137.428  0.00  0.00    +0.000 C 
ENDROOT
BRANCH   4   9
ATOM      9  O   UNL     1     110.415 131.052 139.451  0.00  0.00    +0.000 OA
BRANCH   9  15
ATOM     10  O   UNL     1     109.610 130.223 140.360  0.00  0.00    +0.000 OA
ATOM     11  O   UNL     1     109.774 130.487 142.273  0.00  0.00    +0.000 OA
ATOM     12  O   UNL     1     110.974 131.728 141.017  0.00  0.00    +0.000 OA
ATOM     13  C   UNL     1     110.026 130.725 141.524  0.00  0.00    +0.000 C 
ATOM     14  C   UNL     1     110.420 131.124 140.920  0.00  0.00    +0.000 C 
ATOM     15  C   UNL     1     110.163 130.813 140.200  0.00  0.00    +0.000 C 
ATOM     16  C   UNL     1     109.525 130.168 141.179  0.00  0.00    +0.000 C 
BRANCH  13  18
ATOM     17  O   UNL     1     110.181 131.172 142.873  0.00  0.00    +0.000 OA
ATOM     18  C   UNL     1     110.424 131.181 142.084  0.00  0.00    +0.000 C 
ENDBRANCH  13  18
ENDBRANCH   9  15
ENDBRANCH   4   9
BRANCH   7  19
ATOM     19  O   UNL     1     111.137 129.779 138.689  0.00  0.00    +0.000 OA
BRANCH  19  23
ATOM     20  O   UNL     1     112.483 127.488 137.494  0.00  0.00    +0.000 OA
ATOM     21  O   UNL     1     113.240 130.161 136.699  0.00  0.00    +0.000 OA
ATOM     22  O   UNL     1     113.885 129.004 136.128  0.00  0.00    +0.000 OA
ATOM     23  C   UNL     1     111.699 129.469 138.170  0.00  0.00    +0.000 A 
ATOM     24  C   UNL     1     111.801 128.618 138.100  0.00  0.00    +0.000 A 
ATOM     25  C   UNL     1     112.186 129.995 137.696  0.00  0.00    +0.000 A 
ATOM     26  C   UNL     1     112.389 128.306 137.557  0.00  0.00    +0.000 A 
ATOM     27  C   UNL     1     112.768 129.663 137.158  0.00  0.00    +0.000 A 
ATOM     28  C   UNL     1     112.856 128.811 137.102  0.00  0.00    +0.000 A 
ATOM     29  C   UNL     1     113.417 128.499 136.584  0.00  0.00    +0.000 A 
ATOM     30  C   UNL     1     113.044 127.176 136.976  0.00  0.00    +0.000 A 
ATOM     31  C   UNL     1     113.511 127.682 136.521  0.00  0.00    +0.000 A 
BRANCH  30  33
ATOM     32  O   UNL     1     113.421 123.908 136.725  0.00  0.00    +0.000 OA
ATOM     33  C   UNL     1     113.138 126.359 136.913  0.00  0.00    +0.000 A 
ATOM     34  C   UNL     1     112.613 125.917 136.456  0.00  0.00    +0.000 A 
ATOM     35  C   UNL     1     113.759 125.984 137.308  0.00  0.00    +0.000 A 
ATOM     36  C   UNL     1     112.707 125.101 136.393  0.00  0.00    +0.000 A 
ATOM     37  C   UNL     1     113.853 125.167 137.245  0.00  0.00    +0.000 A 
ATOM     38  C   UNL     1     113.327 124.725 136.788  0.00  0.00    +0.000 A 
ENDBRANCH  30  33
ENDBRANCH  19  23
ENDBRANCH   7  19
BRANCH   8  39
ATOM     39  C   UNL     1     109.034 129.745 136.754  0.00  0.00    +0.000 C 
BRANCH  39  40
ATOM     40  O   UNL     1     109.018 128.927 136.653  0.00  0.00    +0.000 OA
BRANCH  40  42
ATOM     41  O   UNL     1     107.975 128.558 135.748  0.00  0.00    +0.000 OA
ATOM     42  C   UNL     1     108.778 128.604 135.932  0.00  0.00    +0.000 C 
ATOM     43  C   UNL     1     109.340 128.327 135.396  0.00  0.00    +0.000 C 
ENDBRANCH  40  42
ENDBRANCH  39  40
ENDBRANCH   8  39
TORSDOF 9
ENDMDL
MODEL 10
REMARK VINA RESULT:      -9.4      5.815      8.967
REMARK  Name = 10531745
REMARK  9 active torsions:
REMARK  status: ('A' for Active; 'I' for Inactive)
REMARK    1  A    between atoms: O_1  and  C_16
REMARK    2  A    between atoms: O_1  and  C_20
REMARK    3  A    between atoms: O_7  and  C_22
REMARK    4  A    between atoms: O_7  and  C_27
REMARK    5  A    between atoms: O_10  and  C_26
REMARK    6  A    between atoms: O_10  and  C_30
REMARK    7  A    between atoms: C_17  and  C_25
REMARK    8  A    between atoms: C_23  and  C_26
REMARK    9  A    between atoms: C_36  and  C_38
REMARK                            x       y       z     vdW  Elec       q    Type
REMARK                         _______ _______ _______ _____ _____    ______ ____
ROOT
ATOM      1  O   UNL     1     112.165 126.218 137.331  0.00  0.00    +0.000 OA
ATOM      2  O   UNL     1     110.403 125.317 135.843  0.00  0.00    +0.000 OA
ATOM      3  O   UNL     1     111.907 124.638 135.847  0.00  0.00    +0.000 OA
ATOM      4  C   UNL     1     110.826 126.258 136.834  0.00  0.00    +0.000 C 
ATOM      5  C   UNL     1     110.990 125.618 136.339  0.00  0.00    +0.000 C 
ATOM      6  C   UNL     1     111.742 125.278 136.341  0.00  0.00    +0.000 C 
ATOM      7  C   UNL     1     111.413 126.558 137.329  0.00  0.00    +0.000 C 
ATOM      8  C   UNL     1     112.329 125.578 136.837  0.00  0.00    +0.000 C 
ENDROOT
BRANCH   4   9
ATOM      9  O   UNL     1     110.074 126.597 136.831  0.00  0.00    +0.000 OA
BRANCH   9  15
ATOM     10  O   UNL     1     110.371 127.447 135.669  0.00  0.00    +0.000 OA
ATOM     11  O   UNL     1     109.078 128.784 135.121  0.00  0.00    +0.000 OA
ATOM     12  O   UNL     1     108.577 127.588 136.817  0.00  0.00    +0.000 OA
ATOM     13  C   UNL     1     109.258 128.183 135.658  0.00  0.00    +0.000 C 
ATOM     14  C   UNL     1     109.206 127.653 136.287  0.00  0.00    +0.000 C 
ATOM     15  C   UNL     1     109.894 127.198 136.293  0.00  0.00    +0.000 C 
ATOM     16  C   UNL     1     109.978 128.057 135.276  0.00  0.00    +0.000 C 
BRANCH  13  18
ATOM     17  O   UNL     1     108.254 129.189 135.507  0.00  0.00    +0.000 OA
ATOM     18  C   UNL     1     108.518 128.489 135.856  0.00  0.00    +0.000 C 
ENDBRANCH  13  18
ENDBRANCH   9  15
ENDBRANCH   4   9
BRANCH   7  19
ATOM     19  O   UNL     1     111.248 127.198 137.823  0.00  0.00    +0.000 OA
BRANCH  19  23
ATOM     20  O   UNL     1     112.930 128.675 139.686  0.00  0.00    +0.000 OA
ATOM     21  O   UNL     1     111.859 126.107 140.462  0.00  0.00    +0.000 OA
ATOM     22  O   UNL     1     112.696 126.866 141.359  0.00  0.00    +0.000 OA
ATOM     23  C   UNL     1     111.621 127.259 138.556  0.00  0.00    +0.000 A 
ATOM     24  C   UNL     1     112.094 127.953 138.745  0.00  0.00    +0.000 A 
ATOM     25  C   UNL     1     111.540 126.632 139.137  0.00  0.00    +0.000 A 
ATOM     26  C   UNL     1     112.478 128.008 139.511  0.00  0.00    +0.000 A 
ATOM     27  C   UNL     1     111.932 126.705 139.898  0.00  0.00    +0.000 A 
ATOM     28  C   UNL     1     112.400 127.405 140.068  0.00  0.00    +0.000 A 
ATOM     29  C   UNL     1     112.774 127.469 140.801  0.00  0.00    +0.000 A 
ATOM     30  C   UNL     1     113.304 128.740 140.419  0.00  0.00    +0.000 A 
ATOM     31  C   UNL     1     113.226 128.136 140.976  0.00  0.00    +0.000 A 
BRANCH  30  33
ATOM     32  O   UNL     1     115.112 131.410 141.120  0.00  0.00    +0.000 OA
ATOM     33  C   UNL     1     113.756 129.407 140.594  0.00  0.00    +0.000 A 
ATOM     34  C   UNL     1     114.532 129.464 140.318  0.00  0.00    +0.000 A 
ATOM     35  C   UNL     1     113.432 130.017 141.046  0.00  0.00    +0.000 A 
ATOM     36  C   UNL     1     114.983 130.132 140.493  0.00  0.00    +0.000 A 
ATOM     37  C   UNL     1     113.885 130.685 141.221  0.00  0.00    +0.000 A 
ATOM     38  C   UNL     1     114.660 130.742 140.945  0.00  0.00    +0.000 A 
ENDBRANCH  30  33
ENDBRANCH  19  23
ENDBRANCH   7  19
BRANCH   8  39
ATOM     39  C   UNL     1     113.081 125.238 136.839  0.00  0.00    +0.000 C 
BRANCH  39  40
ATOM     40  O   UNL     1     113.751 125.717 136.855  0.00  0.00    +0.000 OA
BRANCH  40  42
ATOM     41  O   UNL     1     114.995 125.385 136.235  0.00  0.00    +0.000 OA
ATOM     42  C   UNL     1     114.502 125.377 136.897  0.00  0.00    +0.000 C 
ATOM     43  C   UNL     1     114.759 125.029 137.598  0.00  0.00    +0.000 C 
ENDBRANCH  40  42
ENDBRANCH  39  40
ENDBRANCH   8  39
TORSDOF 9
ENDMDL
