MODEL 1
REMARK VINA RESULT:      -7.8      0.000      0.000
REMARK  Name = 5491643
REMARK  5 active torsions:
REMARK  status: ('A' for Active; 'I' for Inactive)
REMARK    1  A    between atoms: O_2  and  C_11
REMARK    2  A    between atoms: O_3  and  C_15
REMARK    3  A    between atoms: O_6  and  C_20
REMARK    4  A    between atoms: O_7  and  C_21
REMARK    5  A    between atoms: C_10  and  C_12
REMARK                            x       y       z     vdW  Elec       q    Type
REMARK                         _______ _______ _______ _____ _____    ______ ____
ROOT
ATOM      1  O   UNL     1     104.729 124.390 147.391  0.00  0.00    +0.000 OA
ATOM      2  O   UNL     1     107.198 124.767 148.827  0.00  0.00    +0.000 OA
ATOM      3  O   UNL     1     105.810 125.399 145.335  0.00  0.00    +0.000 OA
ATOM      4  C   UNL     1     105.895 124.988 146.734  0.00  0.00    +0.000 A 
ATOM      5  C   UNL     1     105.545 124.659 147.405  0.00  0.00    +0.000 A 
ATOM      6  C   UNL     1     104.271 124.464 146.667  0.00  0.00    +0.000 A 
ATOM      7  C   UNL     1     106.679 125.242 146.761  0.00  0.00    +0.000 A 
ATOM      8  C   UNL     1     105.453 125.070 146.002  0.00  0.00    +0.000 A 
ATOM      9  C   UNL     1     104.635 124.806 145.968  0.00  0.00    +0.000 A 
ATOM     10  C   UNL     1     107.113 125.169 147.458  0.00  0.00    +0.000 A 
ATOM     11  C   UNL     1     105.980 124.585 148.103  0.00  0.00    +0.000 A 
ATOM     12  C   UNL     1     106.764 124.840 148.129  0.00  0.00    +0.000 A 
ENDROOT
BRANCH   6  13
ATOM     13  C   UNL     1     103.487 124.209 146.643  0.00  0.00    +0.000 A 
ATOM     14  C   UNL     1     102.906 124.622 147.059  0.00  0.00    +0.000 A 
ATOM     15  C   UNL     1     103.283 123.540 146.205  0.00  0.00    +0.000 A 
ATOM     16  C   UNL     1     102.122 124.367 147.036  0.00  0.00    +0.000 A 
ATOM     17  C   UNL     1     101.918 123.698 146.597  0.00  0.00    +0.000 A 
ATOM     18  C   UNL     1     102.499 123.285 146.182  0.00  0.00    +0.000 A 
BRANCH  16  19
ATOM     19  O   UNL     1     101.541 124.781 147.451  0.00  0.00    +0.000 OA
ATOM     20  C   UNL     1     101.758 125.350 148.007  0.00  0.00    +0.000 C 
ENDBRANCH  16  19
BRANCH  17  21
ATOM     21  O   UNL     1     101.135 123.443 146.574  0.00  0.00    +0.000 OA
ATOM     22  C   UNL     1     100.941 122.740 146.189  0.00  0.00    +0.000 C 
ENDBRANCH  17  21
ENDBRANCH   6  13
BRANCH   7  23
ATOM     23  O   UNL     1     107.029 125.571 146.090  0.00  0.00    +0.000 OA
ATOM     24  C   UNL     1     106.749 126.285 145.786  0.00  0.00    +0.000 C 
ENDBRANCH   7  23
BRANCH  10  25
ATOM     25  O   UNL     1     107.898 125.423 147.485  0.00  0.00    +0.000 OA
ATOM     26  C   UNL     1     108.473 124.952 147.841  0.00  0.00    +0.000 C 
ENDBRANCH  10  25
TORSDOF 5
ENDMDL
MODEL 2
REMARK VINA RESULT:      -7.7      0.698      4.949
REMARK  Name = 5491643
REMARK  5 active torsions:
REMARK  status: ('A' for Active; 'I' for Inactive)
REMARK    1  A    between atoms: O_2  and  C_11
REMARK    2  A    between atoms: O_3  and  C_15
REMARK    3  A    between atoms: O_6  and  C_20
REMARK    4  A    between atoms: O_7  and  C_21
REMARK    5  A    between atoms: C_10  and  C_12
REMARK                            x       y       z     vdW  Elec       q    Type
REMARK                         _______ _______ _______ _____ _____    ______ ____
ROOT
ATOM      1  O   UNL     1     104.420 124.157 146.453  0.00  0.00    +0.000 OA
ATOM      2  O   UNL     1     102.256 122.740 145.184  0.00  0.00    +0.000 OA
ATOM      3  O   UNL     1     102.740 125.304 147.960  0.00  0.00    +0.000 OA
ATOM      4  C   UNL     1     103.034 124.367 146.880  0.00  0.00    +0.000 A 
ATOM      5  C   UNL     1     103.580 123.992 146.387  0.00  0.00    +0.000 A 
ATOM      6  C   UNL     1     104.697 124.721 147.040  0.00  0.00    +0.000 A 
ATOM      7  C   UNL     1     102.230 124.200 146.806  0.00  0.00    +0.000 A 
ATOM      8  C   UNL     1     103.292 124.933 147.472  0.00  0.00    +0.000 A 
ATOM      9  C   UNL     1     104.129 125.112 147.553  0.00  0.00    +0.000 A 
ATOM     10  C   UNL     1     101.970 123.658 146.242  0.00  0.00    +0.000 A 
ATOM     11  C   UNL     1     103.320 123.449 145.821  0.00  0.00    +0.000 A 
ATOM     12  C   UNL     1     102.516 123.283 145.749  0.00  0.00    +0.000 A 
ENDROOT
BRANCH   6  13
ATOM     13  C   UNL     1     105.502 124.886 147.111  0.00  0.00    +0.000 A 
ATOM     14  C   UNL     1     105.891 125.302 146.514  0.00  0.00    +0.000 A 
ATOM     15  C   UNL     1     105.918 124.635 147.777  0.00  0.00    +0.000 A 
ATOM     16  C   UNL     1     106.696 125.468 146.583  0.00  0.00    +0.000 A 
ATOM     17  C   UNL     1     107.113 125.217 147.251  0.00  0.00    +0.000 A 
ATOM     18  C   UNL     1     106.723 124.800 147.847  0.00  0.00    +0.000 A 
BRANCH  16  19
ATOM     19  O   UNL     1     107.086 125.884 145.987  0.00  0.00    +0.000 OA
ATOM     20  C   UNL     1     106.669 126.421 145.519  0.00  0.00    +0.000 C 
ENDBRANCH  16  19
BRANCH  17  21
ATOM     21  O   UNL     1     107.917 125.382 147.321  0.00  0.00    +0.000 OA
ATOM     22  C   UNL     1     108.356 125.045 147.933  0.00  0.00    +0.000 C 
ENDBRANCH  17  21
ENDBRANCH   6  13
BRANCH   7  23
ATOM     23  O   UNL     1     101.684 124.575 147.299  0.00  0.00    +0.000 OA
ATOM     24  C   UNL     1     101.639 124.370 148.096  0.00  0.00    +0.000 C 
ENDBRANCH   7  23
BRANCH  10  25
ATOM     25  O   UNL     1     101.166 123.490 146.168  0.00  0.00    +0.000 OA
ATOM     26  C   UNL     1     100.831 123.391 145.422  0.00  0.00    +0.000 C 
ENDBRANCH  10  25
TORSDOF 5
ENDMDL
MODEL 3
REMARK VINA RESULT:      -7.6     12.556     14.179
REMARK  Name = 5491643
REMARK  5 active torsions:
REMARK  status: ('A' for Active; 'I' for Inactive)
REMARK    1  A    between atoms: O_2  and  C_11
REMARK    2  A    between atoms: O_3  and  C_15
REMARK    3  A    between atoms: O_6  and  C_20
REMARK    4  A    between atoms: O_7  and  C_21
REMARK    5  A    between atoms: C_10  and  C_12
REMARK                            x       y       z     vdW  Elec       q    Type
REMARK                         _______ _______ _______ _____ _____    ______ ____
ROOT
ATOM      1  O   UNL     1     113.412 126.869 136.468  0.00  0.00    +0.000 OA
ATOM      2  O   UNL     1     113.510 124.008 136.793  0.00  0.00    +0.000 OA
ATOM      3  O   UNL     1     110.939 126.692 135.955  0.00  0.00    +0.000 OA
ATOM      4  C   UNL     1     112.207 126.053 136.296  0.00  0.00    +0.000 A 
ATOM      5  C   UNL     1     113.013 126.108 136.463  0.00  0.00    +0.000 A 
ATOM      6  C   UNL     1     112.965 127.583 136.296  0.00  0.00    +0.000 A 
ATOM      7  C   UNL     1     111.836 125.317 136.294  0.00  0.00    +0.000 A 
ATOM      8  C   UNL     1     111.745 126.756 136.122  0.00  0.00    +0.000 A 
ATOM      9  C   UNL     1     112.126 127.526 136.122  0.00  0.00    +0.000 A 
ATOM     10  C   UNL     1     112.270 124.635 136.460  0.00  0.00    +0.000 A 
ATOM     11  C   UNL     1     113.448 125.426 136.629  0.00  0.00    +0.000 A 
ATOM     12  C   UNL     1     113.075 124.690 136.627  0.00  0.00    +0.000 A 
ENDROOT
BRANCH   6  13
ATOM     13  C   UNL     1     113.340 128.318 136.299  0.00  0.00    +0.000 A 
ATOM     14  C   UNL     1     113.316 128.791 136.975  0.00  0.00    +0.000 A 
ATOM     15  C   UNL     1     113.738 128.581 135.626  0.00  0.00    +0.000 A 
ATOM     16  C   UNL     1     113.690 129.526 136.978  0.00  0.00    +0.000 A 
ATOM     17  C   UNL     1     114.089 129.789 136.305  0.00  0.00    +0.000 A 
ATOM     18  C   UNL     1     114.112 129.316 135.629  0.00  0.00    +0.000 A 
BRANCH  16  19
ATOM     19  O   UNL     1     113.667 129.998 137.654  0.00  0.00    +0.000 OA
ATOM     20  C   UNL     1     113.357 129.697 138.357  0.00  0.00    +0.000 C 
ENDBRANCH  16  19
BRANCH  17  21
ATOM     21  O   UNL     1     114.462 130.523 136.307  0.00  0.00    +0.000 OA
ATOM     22  C   UNL     1     114.891 130.771 135.648  0.00  0.00    +0.000 C 
ENDBRANCH  17  21
ENDBRANCH   6  13
BRANCH   7  23
ATOM     23  O   UNL     1     111.030 125.262 136.127  0.00  0.00    +0.000 OA
ATOM     24  C   UNL     1     110.754 125.431 135.368  0.00  0.00    +0.000 C 
ENDBRANCH   7  23
BRANCH  10  25
ATOM     25  O   UNL     1     111.898 123.898 136.458  0.00  0.00    +0.000 OA
ATOM     26  C   UNL     1     111.897 123.435 137.140  0.00  0.00    +0.000 C 
ENDBRANCH  10  25
TORSDOF 5
ENDMDL
MODEL 4
REMARK VINA RESULT:      -7.5     12.687     13.824
REMARK  Name = 5491643
REMARK  5 active torsions:
REMARK  status: ('A' for Active; 'I' for Inactive)
REMARK    1  A    between atoms: O_2  and  C_11
REMARK    2  A    between atoms: O_3  and  C_15
REMARK    3  A    between atoms: O_6  and  C_20
REMARK    4  A    between atoms: O_7  and  C_21
REMARK    5  A    between atoms: C_10  and  C_12
REMARK                            x       y       z     vdW  Elec       q    Type
REMARK                         _______ _______ _______ _____ _____    ______ ____
ROOT
ATOM      1  O   UNL     1     113.255 127.288 136.049  0.00  0.00    +0.000 OA
ATOM      2  O   UNL     1     114.723 129.497 134.924  0.00  0.00    +0.000 OA
ATOM      3  O   UNL     1     112.537 128.783 137.962  0.00  0.00    +0.000 OA
ATOM      4  C   UNL     1     113.271 128.593 136.714  0.00  0.00    +0.000 A 
ATOM      5  C   UNL     1     113.507 128.108 136.090  0.00  0.00    +0.000 A 
ATOM      6  C   UNL     1     112.751 126.968 136.668  0.00  0.00    +0.000 A 
ATOM      7  C   UNL     1     113.520 129.379 136.742  0.00  0.00    +0.000 A 
ATOM      8  C   UNL     1     112.768 128.291 137.341  0.00  0.00    +0.000 A 
ATOM      9  C   UNL     1     112.506 127.473 137.318  0.00  0.00    +0.000 A 
ATOM     10  C   UNL     1     114.004 129.680 136.146  0.00  0.00    +0.000 A 
ATOM     11  C   UNL     1     113.991 128.409 135.493  0.00  0.00    +0.000 A 
ATOM     12  C   UNL     1     114.239 129.195 135.521  0.00  0.00    +0.000 A 
ENDROOT
BRANCH   6  13
ATOM     13  C   UNL     1     112.504 126.181 136.637  0.00  0.00    +0.000 A 
ATOM     14  C   UNL     1     111.834 125.976 136.202  0.00  0.00    +0.000 A 
ATOM     15  C   UNL     1     112.927 125.600 137.042  0.00  0.00    +0.000 A 
ATOM     16  C   UNL     1     111.586 125.190 136.171  0.00  0.00    +0.000 A 
ATOM     17  C   UNL     1     112.009 124.608 136.576  0.00  0.00    +0.000 A 
ATOM     18  C   UNL     1     112.680 124.813 137.011  0.00  0.00    +0.000 A 
BRANCH  16  19
ATOM     19  O   UNL     1     110.916 124.985 135.736  0.00  0.00    +0.000 OA
ATOM     20  C   UNL     1     110.510 125.561 135.307  0.00  0.00    +0.000 C 
ENDBRANCH  16  19
BRANCH  17  21
ATOM     21  O   UNL     1     111.762 123.822 136.545  0.00  0.00    +0.000 OA
ATOM     22  C   UNL     1     112.138 123.253 137.010  0.00  0.00    +0.000 C 
ENDBRANCH  17  21
ENDBRANCH   6  13
BRANCH   7  23
ATOM     23  O   UNL     1     113.285 129.864 137.366  0.00  0.00    +0.000 OA
ATOM     24  C   UNL     1     112.498 130.105 137.428  0.00  0.00    +0.000 C 
ENDBRANCH   7  23
BRANCH  10  25
ATOM     25  O   UNL     1     114.252 130.467 136.173  0.00  0.00    +0.000 OA
ATOM     26  C   UNL     1     115.056 130.647 136.137  0.00  0.00    +0.000 C 
ENDBRANCH  10  25
TORSDOF 5
ENDMDL
MODEL 5
REMARK VINA RESULT:      -7.4      2.512      4.327
REMARK  Name = 5491643
REMARK  5 active torsions:
REMARK  status: ('A' for Active; 'I' for Inactive)
REMARK    1  A    between atoms: O_2  and  C_11
REMARK    2  A    between atoms: O_3  and  C_15
REMARK    3  A    between atoms: O_6  and  C_20
REMARK    4  A    between atoms: O_7  and  C_21
REMARK    5  A    between atoms: C_10  and  C_12
REMARK                            x       y       z     vdW  Elec       q    Type
REMARK                         _______ _______ _______ _____ _____    ______ ____
ROOT
ATOM      1  O   UNL     1     106.266 124.925 145.705  0.00  0.00    +0.000 OA
ATOM      2  O   UNL     1     105.471 124.377 142.990  0.00  0.00    +0.000 OA
ATOM      3  O   UNL     1     106.450 127.381 145.119  0.00  0.00    +0.000 OA
ATOM      4  C   UNL     1     106.155 126.007 144.723  0.00  0.00    +0.000 A 
ATOM      5  C   UNL     1     106.094 125.206 144.912  0.00  0.00    +0.000 A 
ATOM      6  C   UNL     1     106.504 125.486 146.311  0.00  0.00    +0.000 A 
ATOM      7  C   UNL     1     105.988 126.264 143.957  0.00  0.00    +0.000 A 
ATOM      8  C   UNL     1     106.391 126.582 145.316  0.00  0.00    +0.000 A 
ATOM      9  C   UNL     1     106.567 126.320 146.115  0.00  0.00    +0.000 A 
ATOM     10  C   UNL     1     105.760 125.721 143.380  0.00  0.00    +0.000 A 
ATOM     11  C   UNL     1     105.866 124.662 144.334  0.00  0.00    +0.000 A 
ATOM     12  C   UNL     1     105.699 124.920 143.568  0.00  0.00    +0.000 A 
ENDROOT
BRANCH   6  13
ATOM     13  C   UNL     1     106.671 125.226 147.076  0.00  0.00    +0.000 A 
ATOM     14  C   UNL     1     106.056 125.002 147.579  0.00  0.00    +0.000 A 
ATOM     15  C   UNL     1     107.452 125.188 147.339  0.00  0.00    +0.000 A 
ATOM     16  C   UNL     1     106.222 124.742 148.344  0.00  0.00    +0.000 A 
ATOM     17  C   UNL     1     107.004 124.704 148.606  0.00  0.00    +0.000 A 
ATOM     18  C   UNL     1     107.619 124.928 148.103  0.00  0.00    +0.000 A 
BRANCH  16  19
ATOM     19  O   UNL     1     105.607 124.519 148.847  0.00  0.00    +0.000 OA
ATOM     20  C   UNL     1     104.838 124.777 148.697  0.00  0.00    +0.000 C 
ENDBRANCH  16  19
BRANCH  17  21
ATOM     21  O   UNL     1     107.170 124.444 149.370  0.00  0.00    +0.000 OA
ATOM     22  C   UNL     1     107.952 124.336 149.609  0.00  0.00    +0.000 C 
ENDBRANCH  17  21
ENDBRANCH   6  13
BRANCH   7  23
ATOM     23  O   UNL     1     106.048 127.065 143.769  0.00  0.00    +0.000 OA
ATOM     24  C   UNL     1     105.508 127.605 144.082  0.00  0.00    +0.000 C 
ENDBRANCH   7  23
BRANCH  10  25
ATOM     25  O   UNL     1     105.592 125.979 142.614  0.00  0.00    +0.000 OA
ATOM     26  C   UNL     1     106.045 125.710 141.980  0.00  0.00    +0.000 C 
ENDBRANCH  10  25
TORSDOF 5
ENDMDL
MODEL 6
REMARK VINA RESULT:      -7.4     12.637     13.478
REMARK  Name = 5491643
REMARK  5 active torsions:
REMARK  status: ('A' for Active; 'I' for Inactive)
REMARK    1  A    between atoms: O_2  and  C_11
REMARK    2  A    between atoms: O_3  and  C_15
REMARK    3  A    between atoms: O_6  and  C_20
REMARK    4  A    between atoms: O_7  and  C_21
REMARK    5  A    between atoms: C_10  and  C_12
REMARK                            x       y       z     vdW  Elec       q    Type
REMARK                         _______ _______ _______ _____ _____    ______ ____
ROOT
ATOM      1  O   UNL     1     112.420 127.397 137.219  0.00  0.00    +0.000 OA
ATOM      2  O   UNL     1     112.271 130.048 138.337  0.00  0.00    +0.000 OA
ATOM      3  O   UNL     1     114.293 128.178 135.705  0.00  0.00    +0.000 OA
ATOM      4  C   UNL     1     113.314 128.460 136.750  0.00  0.00    +0.000 A 
ATOM      5  C   UNL     1     112.703 128.208 137.245  0.00  0.00    +0.000 A 
ATOM      6  C   UNL     1     112.778 126.841 136.670  0.00  0.00    +0.000 A 
ATOM      7  C   UNL     1     113.576 129.241 136.785  0.00  0.00    +0.000 A 
ATOM      8  C   UNL     1     113.683 127.918 136.196  0.00  0.00    +0.000 A 
ATOM      9  C   UNL     1     113.414 127.103 136.155  0.00  0.00    +0.000 A 
ATOM     10  C   UNL     1     113.229 129.770 137.313  0.00  0.00    +0.000 A 
ATOM     11  C   UNL     1     112.355 128.738 137.774  0.00  0.00    +0.000 A 
ATOM     12  C   UNL     1     112.619 129.519 137.808  0.00  0.00    +0.000 A 
ENDROOT
BRANCH   6  13
ATOM     13  C   UNL     1     112.513 126.060 136.638  0.00  0.00    +0.000 A 
ATOM     14  C   UNL     1     111.844 125.869 136.194  0.00  0.00    +0.000 A 
ATOM     15  C   UNL     1     112.916 125.470 137.049  0.00  0.00    +0.000 A 
ATOM     16  C   UNL     1     111.578 125.090 136.161  0.00  0.00    +0.000 A 
ATOM     17  C   UNL     1     111.982 124.499 136.573  0.00  0.00    +0.000 A 
ATOM     18  C   UNL     1     112.651 124.689 137.017  0.00  0.00    +0.000 A 
BRANCH  16  19
ATOM     19  O   UNL     1     110.910 124.899 135.717  0.00  0.00    +0.000 OA
ATOM     20  C   UNL     1     110.491 125.493 135.327  0.00  0.00    +0.000 C 
ENDBRANCH  16  19
BRANCH  17  21
ATOM     21  O   UNL     1     111.717 123.719 136.541  0.00  0.00    +0.000 OA
ATOM     22  C   UNL     1     112.064 123.145 137.020  0.00  0.00    +0.000 C 
ENDBRANCH  17  21
ENDBRANCH   6  13
BRANCH   7  23
ATOM     23  O   UNL     1     114.187 129.493 136.290  0.00  0.00    +0.000 OA
ATOM     24  C   UNL     1     114.062 129.550 135.477  0.00  0.00    +0.000 C 
ENDBRANCH   7  23
BRANCH  10  25
ATOM     25  O   UNL     1     113.492 130.552 137.348  0.00  0.00    +0.000 OA
ATOM     26  C   UNL     1     113.867 130.832 138.026  0.00  0.00    +0.000 C 
ENDBRANCH  10  25
TORSDOF 5
ENDMDL
MODEL 7
REMARK VINA RESULT:      -7.4      9.862     12.533
REMARK  Name = 5491643
REMARK  5 active torsions:
REMARK  status: ('A' for Active; 'I' for Inactive)
REMARK    1  A    between atoms: O_2  and  C_11
REMARK    2  A    between atoms: O_3  and  C_15
REMARK    3  A    between atoms: O_6  and  C_20
REMARK    4  A    between atoms: O_7  and  C_21
REMARK    5  A    between atoms: C_10  and  C_12
REMARK                            x       y       z     vdW  Elec       q    Type
REMARK                         _______ _______ _______ _____ _____    ______ ____
ROOT
ATOM      1  O   UNL     1     112.080 126.665 137.630  0.00  0.00    +0.000 OA
ATOM      2  O   UNL     1     110.859 127.237 135.084  0.00  0.00    +0.000 OA
ATOM      3  O   UNL     1     111.668 124.198 137.236  0.00  0.00    +0.000 OA
ATOM      4  C   UNL     1     111.565 125.584 136.787  0.00  0.00    +0.000 A 
ATOM      5  C   UNL     1     111.698 126.389 136.913  0.00  0.00    +0.000 A 
ATOM      6  C   UNL     1     112.328 126.096 138.225  0.00  0.00    +0.000 A 
ATOM      7  C   UNL     1     111.197 125.331 136.093  0.00  0.00    +0.000 A 
ATOM      8  C   UNL     1     111.805 125.001 137.370  0.00  0.00    +0.000 A 
ATOM      9  C   UNL     1     112.189 125.259 138.094  0.00  0.00    +0.000 A 
ATOM     10  C   UNL     1     110.961 125.881 135.526  0.00  0.00    +0.000 A 
ATOM     11  C   UNL     1     111.463 126.940 136.345  0.00  0.00    +0.000 A 
ATOM     12  C   UNL     1     111.095 126.686 135.652  0.00  0.00    +0.000 A 
ENDROOT
BRANCH   6  13
ATOM     13  C   UNL     1     112.696 126.353 138.918  0.00  0.00    +0.000 A 
ATOM     14  C   UNL     1     112.248 126.488 139.597  0.00  0.00    +0.000 A 
ATOM     15  C   UNL     1     113.511 126.474 138.932  0.00  0.00    +0.000 A 
ATOM     16  C   UNL     1     112.614 126.744 140.290  0.00  0.00    +0.000 A 
ATOM     17  C   UNL     1     113.431 126.866 140.303  0.00  0.00    +0.000 A 
ATOM     18  C   UNL     1     113.879 126.730 139.624  0.00  0.00    +0.000 A 
BRANCH  16  19
ATOM     19  O   UNL     1     112.166 126.880 140.969  0.00  0.00    +0.000 OA
ATOM     20  C   UNL     1     111.346 126.798 140.945  0.00  0.00    +0.000 C 
ENDBRANCH  16  19
BRANCH  17  21
ATOM     21  O   UNL     1     113.798 127.122 140.995  0.00  0.00    +0.000 OA
ATOM     22  C   UNL     1     114.615 127.231 141.013  0.00  0.00    +0.000 C 
ENDBRANCH  17  21
ENDBRANCH   6  13
BRANCH   7  23
ATOM     23  O   UNL     1     111.063 124.527 135.967  0.00  0.00    +0.000 OA
ATOM     24  C   UNL     1     111.695 123.997 135.979  0.00  0.00    +0.000 C 
ENDBRANCH   7  23
BRANCH  10  25
ATOM     25  O   UNL     1     110.593 125.628 134.832  0.00  0.00    +0.000 OA
ATOM     26  C   UNL     1     109.814 125.848 134.674  0.00  0.00    +0.000 C 
ENDBRANCH  10  25
TORSDOF 5
ENDMDL
MODEL 8
REMARK VINA RESULT:      -7.4     12.593     14.151
REMARK  Name = 5491643
REMARK  5 active torsions:
REMARK  status: ('A' for Active; 'I' for Inactive)
REMARK    1  A    between atoms: O_2  and  C_11
REMARK    2  A    between atoms: O_3  and  C_15
REMARK    3  A    between atoms: O_6  and  C_20
REMARK    4  A    between atoms: O_7  and  C_21
REMARK    5  A    between atoms: C_10  and  C_12
REMARK                            x       y       z     vdW  Elec       q    Type
REMARK                         _______ _______ _______ _____ _____    ______ ____
ROOT
ATOM      1  O   UNL     1     112.555 126.945 136.389  0.00  0.00    +0.000 OA
ATOM      2  O   UNL     1     111.277 124.412 135.887  0.00  0.00    +0.000 OA
ATOM      3  O   UNL     1     114.373 125.736 137.671  0.00  0.00    +0.000 OA
ATOM      4  C   UNL     1     113.134 125.700 136.898  0.00  0.00    +0.000 A 
ATOM      5  C   UNL     1     112.540 126.091 136.480  0.00  0.00    +0.000 A 
ATOM      6  C   UNL     1     113.197 127.398 136.737  0.00  0.00    +0.000 A 
ATOM      7  C   UNL     1     113.108 124.879 136.979  0.00  0.00    +0.000 A 
ATOM      8  C   UNL     1     113.783 126.135 137.254  0.00  0.00    +0.000 A 
ATOM      9  C   UNL     1     113.815 126.991 137.173  0.00  0.00    +0.000 A 
ATOM     10  C   UNL     1     112.490 124.450 136.643  0.00  0.00    +0.000 A 
ATOM     11  C   UNL     1     111.921 125.662 136.143  0.00  0.00    +0.000 A 
ATOM     12  C   UNL     1     111.896 124.841 136.224  0.00  0.00    +0.000 A 
ENDROOT
BRANCH   6  13
ATOM     13  C   UNL     1     113.219 128.219 136.655  0.00  0.00    +0.000 A 
ATOM     14  C   UNL     1     113.582 128.557 135.995  0.00  0.00    +0.000 A 
ATOM     15  C   UNL     1     112.880 128.701 137.231  0.00  0.00    +0.000 A 
ATOM     16  C   UNL     1     113.605 129.377 135.911  0.00  0.00    +0.000 A 
ATOM     17  C   UNL     1     113.265 129.860 136.488  0.00  0.00    +0.000 A 
ATOM     18  C   UNL     1     112.903 129.522 137.148  0.00  0.00    +0.000 A 
BRANCH  16  19
ATOM     19  O   UNL     1     113.967 129.715 135.251  0.00  0.00    +0.000 OA
ATOM     20  C   UNL     1     114.452 129.256 134.767  0.00  0.00    +0.000 C 
ENDBRANCH  16  19
BRANCH  17  21
ATOM     21  O   UNL     1     113.288 130.680 136.405  0.00  0.00    +0.000 OA
ATOM     22  C   UNL     1     112.950 131.163 136.982  0.00  0.00    +0.000 C 
ENDBRANCH  17  21
ENDBRANCH   6  13
BRANCH   7  23
ATOM     23  O   UNL     1     113.702 124.488 137.398  0.00  0.00    +0.000 OA
ATOM     24  C   UNL     1     114.487 124.547 137.153  0.00  0.00    +0.000 C 
ENDBRANCH   7  23
BRANCH  10  25
ATOM     25  O   UNL     1     112.465 123.629 136.724  0.00  0.00    +0.000 OA
ATOM     26  C   UNL     1     111.857 123.275 137.154  0.00  0.00    +0.000 C 
ENDBRANCH  10  25
TORSDOF 5
ENDMDL
MODEL 9
REMARK VINA RESULT:      -7.4      1.154      4.726
REMARK  Name = 5491643
REMARK  5 active torsions:
REMARK  status: ('A' for Active; 'I' for Inactive)
REMARK    1  A    between atoms: O_2  and  C_11
REMARK    2  A    between atoms: O_3  and  C_15
REMARK    3  A    between atoms: O_6  and  C_20
REMARK    4  A    between atoms: O_7  and  C_21
REMARK    5  A    between atoms: C_10  and  C_12
REMARK                            x       y       z     vdW  Elec       q    Type
REMARK                         _______ _______ _______ _____ _____    ______ ____
ROOT
ATOM      1  O   UNL     1     104.605 125.157 147.121  0.00  0.00    +0.000 OA
ATOM      2  O   UNL     1     102.320 123.836 148.276  0.00  0.00    +0.000 OA
ATOM      3  O   UNL     1     104.202 123.894 144.964  0.00  0.00    +0.000 OA
ATOM      4  C   UNL     1     103.824 124.193 146.343  0.00  0.00    +0.000 A 
ATOM      5  C   UNL     1     103.953 124.603 147.047  0.00  0.00    +0.000 A 
ATOM      6  C   UNL     1     105.131 125.285 146.453  0.00  0.00    +0.000 A 
ATOM      7  C   UNL     1     103.193 123.664 146.284  0.00  0.00    +0.000 A 
ATOM      8  C   UNL     1     104.338 124.308 145.665  0.00  0.00    +0.000 A 
ATOM      9  C   UNL     1     104.997 124.858 145.720  0.00  0.00    +0.000 A 
ATOM     10  C   UNL     1     102.692 123.545 146.927  0.00  0.00    +0.000 A 
ATOM     11  C   UNL     1     103.451 124.484 147.692  0.00  0.00    +0.000 A 
ATOM     12  C   UNL     1     102.821 123.955 147.631  0.00  0.00    +0.000 A 
ENDROOT
BRANCH   6  13
ATOM     13  C   UNL     1     105.761 125.815 146.516  0.00  0.00    +0.000 A 
ATOM     14  C   UNL     1     106.475 125.569 146.847  0.00  0.00    +0.000 A 
ATOM     15  C   UNL     1     105.676 126.590 146.247  0.00  0.00    +0.000 A 
ATOM     16  C   UNL     1     107.105 126.097 146.910  0.00  0.00    +0.000 A 
ATOM     17  C   UNL     1     107.020 126.874 146.641  0.00  0.00    +0.000 A 
ATOM     18  C   UNL     1     106.306 127.119 146.310  0.00  0.00    +0.000 A 
BRANCH  16  19
ATOM     19  O   UNL     1     107.819 125.852 147.242  0.00  0.00    +0.000 OA
ATOM     20  C   UNL     1     107.838 125.195 147.741  0.00  0.00    +0.000 C 
ENDBRANCH  16  19
BRANCH  17  21
ATOM     21  O   UNL     1     107.649 127.402 146.704  0.00  0.00    +0.000 OA
ATOM     22  C   UNL     1     107.596 128.149 146.359  0.00  0.00    +0.000 C 
ENDBRANCH  17  21
ENDBRANCH   6  13
BRANCH   7  23
ATOM     23  O   UNL     1     103.064 123.254 145.579  0.00  0.00    +0.000 OA
ATOM     24  C   UNL     1     103.640 122.740 145.289  0.00  0.00    +0.000 C 
ENDBRANCH   7  23
BRANCH  10  25
ATOM     25  O   UNL     1     102.062 123.016 146.868  0.00  0.00    +0.000 OA
ATOM     26  C   UNL     1     101.286 123.291 146.918  0.00  0.00    +0.000 C 
ENDBRANCH  10  25
TORSDOF 5
ENDMDL
MODEL 10
REMARK VINA RESULT:      -7.3     12.637     14.931
REMARK  Name = 5491643
REMARK  5 active torsions:
REMARK  status: ('A' for Active; 'I' for Inactive)
REMARK    1  A    between atoms: O_2  and  C_11
REMARK    2  A    between atoms: O_3  and  C_15
REMARK    3  A    between atoms: O_6  and  C_20
REMARK    4  A    between atoms: O_7  and  C_21
REMARK    5  A    between atoms: C_10  and  C_12
REMARK                            x       y       z     vdW  Elec       q    Type
REMARK                         _______ _______ _______ _____ _____    ______ ____
ROOT
ATOM      1  O   UNL     1     112.720 128.327 135.688  0.00  0.00    +0.000 OA
ATOM      2  O   UNL     1     110.272 126.815 135.549  0.00  0.00    +0.000 OA
ATOM      3  O   UNL     1     113.822 126.372 136.861  0.00  0.00    +0.000 OA
ATOM      4  C   UNL     1     112.646 126.971 136.236  0.00  0.00    +0.000 A 
ATOM      5  C   UNL     1     112.284 127.606 135.854  0.00  0.00    +0.000 A 
ATOM      6  C   UNL     1     113.545 128.388 135.924  0.00  0.00    +0.000 A 
ATOM      7  C   UNL     1     112.216 126.283 136.389  0.00  0.00    +0.000 A 
ATOM      8  C   UNL     1     113.468 127.012 136.479  0.00  0.00    +0.000 A 
ATOM      9  C   UNL     1     113.921 127.726 136.322  0.00  0.00    +0.000 A 
ATOM     10  C   UNL     1     111.425 126.231 136.160  0.00  0.00    +0.000 A 
ATOM     11  C   UNL     1     111.493 127.554 135.624  0.00  0.00    +0.000 A 
ATOM     12  C   UNL     1     111.064 126.867 135.778  0.00  0.00    +0.000 A 
ENDROOT
BRANCH   6  13
ATOM     13  C   UNL     1     113.972 129.076 135.770  0.00  0.00    +0.000 A 
ATOM     14  C   UNL     1     113.924 129.717 136.288  0.00  0.00    +0.000 A 
ATOM     15  C   UNL     1     114.447 129.126 135.098  0.00  0.00    +0.000 A 
ATOM     16  C   UNL     1     114.350 130.406 136.134  0.00  0.00    +0.000 A 
ATOM     17  C   UNL     1     114.826 130.455 135.461  0.00  0.00    +0.000 A 
ATOM     18  C   UNL     1     114.874 129.814 134.943  0.00  0.00    +0.000 A 
BRANCH  16  19
ATOM     19  O   UNL     1     114.302 131.046 136.653  0.00  0.00    +0.000 OA
ATOM     20  C   UNL     1     113.786 131.018 137.295  0.00  0.00    +0.000 C 
ENDBRANCH  16  19
BRANCH  17  21
ATOM     21  O   UNL     1     115.253 131.143 135.307  0.00  0.00    +0.000 OA
ATOM     22  C   UNL     1     115.709 131.201 134.623  0.00  0.00    +0.000 C 
ENDBRANCH  17  21
ENDBRANCH   6  13
BRANCH   7  23
ATOM     23  O   UNL     1     112.577 125.648 136.771  0.00  0.00    +0.000 OA
ATOM     24  C   UNL     1     112.785 125.709 137.567  0.00  0.00    +0.000 C 
ENDBRANCH   7  23
BRANCH  10  25
ATOM     25  O   UNL     1     110.995 125.544 136.313  0.00  0.00    +0.000 OA
ATOM     26  C   UNL     1     110.706 125.090 135.689  0.00  0.00    +0.000 C 
ENDBRANCH  10  25
TORSDOF 5
ENDMDL
