MODEL 1
REMARK VINA RESULT:      -8.1      0.000      0.000
REMARK  Name = 332208
REMARK  4 active torsions:
REMARK  status: ('A' for Active; 'I' for Inactive)
REMARK    1  A    between atoms: O_2  and  C_12
REMARK    2  A    between atoms: O_3  and  C_13
REMARK    3  A    between atoms: O_4  and  C_14
REMARK    4  A    between atoms: C_6  and  C_7
REMARK                            x       y       z     vdW  Elec       q    Type
REMARK                         _______ _______ _______ _____ _____    ______ ____
ROOT
ATOM      1  C   UNL     1     104.532 124.500 146.986  0.00  0.00    +0.000 A 
ATOM      2  C   UNL     1     103.940 124.921 147.376  0.00  0.00    +0.000 A 
ATOM      3  C   UNL     1     104.331 123.914 146.442  0.00  0.00    +0.000 A 
ATOM      4  C   UNL     1     103.538 123.748 146.288  0.00  0.00    +0.000 A 
ATOM      5  C   UNL     1     103.146 124.755 147.222  0.00  0.00    +0.000 A 
ATOM      6  C   UNL     1     102.946 124.168 146.678  0.00  0.00    +0.000 A 
ENDROOT
BRANCH   1   9
ATOM      7  O   UNL     1     105.659 124.454 147.864  0.00  0.00    +0.000 OA
ATOM      8  O   UNL     1     107.040 125.589 146.153  0.00  0.00    +0.000 OA
ATOM      9  C   UNL     1     105.325 124.666 147.140  0.00  0.00    +0.000 A 
ATOM     10  C   UNL     1     106.912 124.999 147.447  0.00  0.00    +0.000 A 
ATOM     11  C   UNL     1     106.451 124.620 148.018  0.00  0.00    +0.000 A 
ATOM     12  C   UNL     1     105.786 125.045 146.569  0.00  0.00    +0.000 A 
ATOM     13  C   UNL     1     106.580 125.211 146.724  0.00  0.00    +0.000 A 
ATOM     14  C   UNL     1     107.740 125.177 147.596  0.00  0.00    +0.000 A 
ATOM     15  C   UNL     1     106.787 124.394 148.777  0.00  0.00    +0.000 A 
ATOM     16  C   UNL     1     108.092 124.959 148.348  0.00  0.00    +0.000 A 
ATOM     17  C   UNL     1     107.612 124.564 148.943  0.00  0.00    +0.000 A 
ENDBRANCH   1   9
BRANCH   4  18
ATOM     18  O   UNL     1     103.337 123.161 145.743  0.00  0.00    +0.000 OA
ATOM     19  C   UNL     1     103.904 122.877 145.214  0.00  0.00    +0.000 C 
ENDBRANCH   4  18
BRANCH   5  20
ATOM     20  O   UNL     1     102.554 125.175 147.612  0.00  0.00    +0.000 OA
ATOM     21  C   UNL     1     102.751 125.817 148.092  0.00  0.00    +0.000 C 
ENDBRANCH   5  20
BRANCH   6  22
ATOM     22  O   UNL     1     102.152 124.002 146.524  0.00  0.00    +0.000 OA
ATOM     23  C   UNL     1     101.761 123.419 146.957  0.00  0.00    +0.000 C 
ENDBRANCH   6  22
TORSDOF 4
ENDMDL
MODEL 2
REMARK VINA RESULT:      -8.1      0.055      1.628
REMARK  Name = 332208
REMARK  4 active torsions:
REMARK  status: ('A' for Active; 'I' for Inactive)
REMARK    1  A    between atoms: O_2  and  C_12
REMARK    2  A    between atoms: O_3  and  C_13
REMARK    3  A    between atoms: O_4  and  C_14
REMARK    4  A    between atoms: C_6  and  C_7
REMARK                            x       y       z     vdW  Elec       q    Type
REMARK                         _______ _______ _______ _____ _____    ______ ____
ROOT
ATOM      1  C   UNL     1     104.539 124.518 146.999  0.00  0.00    +0.000 A 
ATOM      2  C   UNL     1     104.329 123.899 146.495  0.00  0.00    +0.000 A 
ATOM      3  C   UNL     1     103.953 124.975 147.357  0.00  0.00    +0.000 A 
ATOM      4  C   UNL     1     103.158 124.815 147.212  0.00  0.00    +0.000 A 
ATOM      5  C   UNL     1     103.532 123.738 146.349  0.00  0.00    +0.000 A 
ATOM      6  C   UNL     1     102.947 124.196 146.708  0.00  0.00    +0.000 A 
ENDROOT
BRANCH   1   9
ATOM      7  O   UNL     1     105.672 124.473 147.868  0.00  0.00    +0.000 OA
ATOM      8  O   UNL     1     107.050 125.571 146.129  0.00  0.00    +0.000 OA
ATOM      9  C   UNL     1     105.335 124.678 147.144  0.00  0.00    +0.000 A 
ATOM     10  C   UNL     1     106.928 125.000 147.433  0.00  0.00    +0.000 A 
ATOM     11  C   UNL     1     106.468 124.634 148.013  0.00  0.00    +0.000 A 
ATOM     12  C   UNL     1     105.794 125.045 146.563  0.00  0.00    +0.000 A 
ATOM     13  C   UNL     1     106.591 125.205 146.709  0.00  0.00    +0.000 A 
ATOM     14  C   UNL     1     107.758 125.173 147.572  0.00  0.00    +0.000 A 
ATOM     15  C   UNL     1     106.808 124.415 148.772  0.00  0.00    +0.000 A 
ATOM     16  C   UNL     1     108.115 124.962 148.325  0.00  0.00    +0.000 A 
ATOM     17  C   UNL     1     107.636 124.580 148.929  0.00  0.00    +0.000 A 
ENDBRANCH   1   9
BRANCH   4  18
ATOM     18  O   UNL     1     102.572 125.272 147.570  0.00  0.00    +0.000 OA
ATOM     19  C   UNL     1     102.782 125.870 148.100  0.00  0.00    +0.000 C 
ENDBRANCH   4  18
BRANCH   5  20
ATOM     20  O   UNL     1     103.322 123.121 145.846  0.00  0.00    +0.000 OA
ATOM     21  C   UNL     1     103.836 122.884 145.245  0.00  0.00    +0.000 C 
ENDBRANCH   5  20
BRANCH   6  22
ATOM     22  O   UNL     1     102.150 124.035 146.563  0.00  0.00    +0.000 OA
ATOM     23  C   UNL     1     101.750 123.486 147.029  0.00  0.00    +0.000 C 
ENDBRANCH   6  22
TORSDOF 4
ENDMDL
MODEL 3
REMARK VINA RESULT:      -7.8     11.107     12.469
REMARK  Name = 332208
REMARK  4 active torsions:
REMARK  status: ('A' for Active; 'I' for Inactive)
REMARK    1  A    between atoms: O_2  and  C_12
REMARK    2  A    between atoms: O_3  and  C_13
REMARK    3  A    between atoms: O_4  and  C_14
REMARK    4  A    between atoms: C_6  and  C_7
REMARK                            x       y       z     vdW  Elec       q    Type
REMARK                         _______ _______ _______ _____ _____    ______ ____
ROOT
ATOM      1  C   UNL     1     110.925 125.810 136.759  0.00  0.00    +0.000 A 
ATOM      2  C   UNL     1     110.552 125.858 136.024  0.00  0.00    +0.000 A 
ATOM      3  C   UNL     1     110.580 126.163 137.420  0.00  0.00    +0.000 A 
ATOM      4  C   UNL     1     109.864 126.564 137.347  0.00  0.00    +0.000 A 
ATOM      5  C   UNL     1     109.835 126.260 135.951  0.00  0.00    +0.000 A 
ATOM      6  C   UNL     1     109.491 126.613 136.613  0.00  0.00    +0.000 A 
ENDROOT
BRANCH   1   9
ATOM      7  O   UNL     1     112.353 125.826 136.810  0.00  0.00    +0.000 OA
ATOM      8  O   UNL     1     112.371 123.367 137.092  0.00  0.00    +0.000 OA
ATOM      9  C   UNL     1     111.642 125.408 136.831  0.00  0.00    +0.000 A 
ATOM     10  C   UNL     1     113.075 124.604 136.977  0.00  0.00    +0.000 A 
ATOM     11  C   UNL     1     113.070 125.424 136.882  0.00  0.00    +0.000 A 
ATOM     12  C   UNL     1     111.647 124.588 136.926  0.00  0.00    +0.000 A 
ATOM     13  C   UNL     1     112.365 124.186 136.998  0.00  0.00    +0.000 A 
ATOM     14  C   UNL     1     113.816 124.174 137.053  0.00  0.00    +0.000 A 
ATOM     15  C   UNL     1     113.804 125.871 136.858  0.00  0.00    +0.000 A 
ATOM     16  C   UNL     1     114.559 124.604 137.031  0.00  0.00    +0.000 A 
ATOM     17  C   UNL     1     114.553 125.458 136.933  0.00  0.00    +0.000 A 
ENDBRANCH   1   9
BRANCH   4  18
ATOM     18  O   UNL     1     109.519 126.917 138.009  0.00  0.00    +0.000 OA
ATOM     19  C   UNL     1     109.706 126.645 138.766  0.00  0.00    +0.000 C 
ENDBRANCH   4  18
BRANCH   5  20
ATOM     20  O   UNL     1     109.462 126.309 135.218  0.00  0.00    +0.000 OA
ATOM     21  C   UNL     1     109.672 125.788 134.613  0.00  0.00    +0.000 C 
ENDBRANCH   5  20
BRANCH   6  22
ATOM     22  O   UNL     1     108.774 127.015 136.540  0.00  0.00    +0.000 OA
ATOM     23  C   UNL     1     108.766 127.804 136.301  0.00  0.00    +0.000 C 
ENDBRANCH   6  22
TORSDOF 4
ENDMDL
MODEL 4
REMARK VINA RESULT:      -7.7      2.521      3.346
REMARK  Name = 332208
REMARK  4 active torsions:
REMARK  status: ('A' for Active; 'I' for Inactive)
REMARK    1  A    between atoms: O_2  and  C_12
REMARK    2  A    between atoms: O_3  and  C_13
REMARK    3  A    between atoms: O_4  and  C_14
REMARK    4  A    between atoms: C_6  and  C_7
REMARK                            x       y       z     vdW  Elec       q    Type
REMARK                         _______ _______ _______ _____ _____    ______ ____
ROOT
ATOM      1  C   UNL     1     106.327 125.928 146.331  0.00  0.00    +0.000 A 
ATOM      2  C   UNL     1     106.166 125.469 145.665  0.00  0.00    +0.000 A 
ATOM      3  C   UNL     1     106.107 126.723 146.347  0.00  0.00    +0.000 A 
ATOM      4  C   UNL     1     105.727 127.059 145.697  0.00  0.00    +0.000 A 
ATOM      5  C   UNL     1     105.784 125.805 145.014  0.00  0.00    +0.000 A 
ATOM      6  C   UNL     1     105.565 126.600 145.031  0.00  0.00    +0.000 A 
ENDROOT
BRANCH   1   9
ATOM      7  O   UNL     1     106.266 125.298 147.612  0.00  0.00    +0.000 OA
ATOM      8  O   UNL     1     108.737 125.171 147.668  0.00  0.00    +0.000 OA
ATOM      9  C   UNL     1     106.708 125.592 146.980  0.00  0.00    +0.000 A 
ATOM     10  C   UNL     1     107.471 124.920 148.280  0.00  0.00    +0.000 A 
ATOM     11  C   UNL     1     106.647 124.962 148.262  0.00  0.00    +0.000 A 
ATOM     12  C   UNL     1     107.533 125.550 146.999  0.00  0.00    +0.000 A 
ATOM     13  C   UNL     1     107.913 125.213 147.649  0.00  0.00    +0.000 A 
ATOM     14  C   UNL     1     107.880 124.572 148.952  0.00  0.00    +0.000 A 
ATOM     15  C   UNL     1     106.175 124.659 148.913  0.00  0.00    +0.000 A 
ATOM     16  C   UNL     1     107.425 124.264 149.612  0.00  0.00    +0.000 A 
ATOM     17  C   UNL     1     106.566 124.308 149.593  0.00  0.00    +0.000 A 
ENDBRANCH   1   9
BRANCH   4  18
ATOM     18  O   UNL     1     105.507 127.855 145.713  0.00  0.00    +0.000 OA
ATOM     19  C   UNL     1     105.423 128.245 146.436  0.00  0.00    +0.000 C 
ENDBRANCH   4  18
BRANCH   5  20
ATOM     20  O   UNL     1     105.623 125.347 144.349  0.00  0.00    +0.000 OA
ATOM     21  C   UNL     1     105.518 124.531 144.425  0.00  0.00    +0.000 C 
ENDBRANCH   5  20
BRANCH   6  22
ATOM     22  O   UNL     1     105.184 126.937 144.381  0.00  0.00    +0.000 OA
ATOM     23  C   UNL     1     105.627 127.290 143.781  0.00  0.00    +0.000 C 
ENDBRANCH   6  22
TORSDOF 4
ENDMDL
MODEL 5
REMARK VINA RESULT:      -7.7     12.634     13.792
REMARK  Name = 332208
REMARK  4 active torsions:
REMARK  status: ('A' for Active; 'I' for Inactive)
REMARK    1  A    between atoms: O_2  and  C_12
REMARK    2  A    between atoms: O_3  and  C_13
REMARK    3  A    between atoms: O_4  and  C_14
REMARK    4  A    between atoms: C_6  and  C_7
REMARK                            x       y       z     vdW  Elec       q    Type
REMARK                         _______ _______ _______ _____ _____    ______ ____
ROOT
ATOM      1  C   UNL     1     112.917 126.301 136.623  0.00  0.00    +0.000 A 
ATOM      2  C   UNL     1     112.197 126.047 136.311  0.00  0.00    +0.000 A 
ATOM      3  C   UNL     1     113.470 125.747 136.886  0.00  0.00    +0.000 A 
ATOM      4  C   UNL     1     113.304 124.942 136.837  0.00  0.00    +0.000 A 
ATOM      5  C   UNL     1     112.030 125.239 136.262  0.00  0.00    +0.000 A 
ATOM      6  C   UNL     1     112.583 124.688 136.525  0.00  0.00    +0.000 A 
ENDROOT
BRANCH   1   9
ATOM      7  O   UNL     1     113.502 127.479 136.066  0.00  0.00    +0.000 OA
ATOM      8  O   UNL     1     112.747 128.782 138.030  0.00  0.00    +0.000 OA
ATOM      9  C   UNL     1     113.084 127.106 136.672  0.00  0.00    +0.000 A 
ATOM     10  C   UNL     1     113.417 128.720 136.770  0.00  0.00    +0.000 A 
ATOM     11  C   UNL     1     113.669 128.285 136.115  0.00  0.00    +0.000 A 
ATOM     12  C   UNL     1     112.832 127.541 137.327  0.00  0.00    +0.000 A 
ATOM     13  C   UNL     1     112.999 128.348 137.375  0.00  0.00    +0.000 A 
ATOM     14  C   UNL     1     113.584 129.561 136.833  0.00  0.00    +0.000 A 
ATOM     15  C   UNL     1     114.106 128.662 135.477  0.00  0.00    +0.000 A 
ATOM     16  C   UNL     1     114.020 129.954 136.205  0.00  0.00    +0.000 A 
ATOM     17  C   UNL     1     114.282 129.501 135.523  0.00  0.00    +0.000 A 
ENDBRANCH   1   9
BRANCH   4  18
ATOM     18  O   UNL     1     113.857 124.389 137.100  0.00  0.00    +0.000 OA
ATOM     19  C   UNL     1     114.637 124.620 137.240  0.00  0.00    +0.000 C 
ENDBRANCH   4  18
BRANCH   5  20
ATOM     20  O   UNL     1     111.310 124.986 135.951  0.00  0.00    +0.000 OA
ATOM     21  C   UNL     1     110.877 125.483 135.455  0.00  0.00    +0.000 C 
ENDBRANCH   5  20
BRANCH   6  22
ATOM     22  O   UNL     1     112.416 123.880 136.476  0.00  0.00    +0.000 OA
ATOM     23  C   UNL     1     112.034 123.501 137.101  0.00  0.00    +0.000 C 
ENDBRANCH   6  22
TORSDOF 4
ENDMDL
MODEL 6
REMARK VINA RESULT:      -7.7     12.636     13.809
REMARK  Name = 332208
REMARK  4 active torsions:
REMARK  status: ('A' for Active; 'I' for Inactive)
REMARK    1  A    between atoms: O_2  and  C_12
REMARK    2  A    between atoms: O_3  and  C_13
REMARK    3  A    between atoms: O_4  and  C_14
REMARK    4  A    between atoms: C_6  and  C_7
REMARK                            x       y       z     vdW  Elec       q    Type
REMARK                         _______ _______ _______ _____ _____    ______ ____
ROOT
ATOM      1  C   UNL     1     112.923 126.311 136.619  0.00  0.00    +0.000 A 
ATOM      2  C   UNL     1     113.473 125.758 136.888  0.00  0.00    +0.000 A 
ATOM      3  C   UNL     1     112.205 126.056 136.302  0.00  0.00    +0.000 A 
ATOM      4  C   UNL     1     112.037 125.250 136.254  0.00  0.00    +0.000 A 
ATOM      5  C   UNL     1     113.306 124.951 136.840  0.00  0.00    +0.000 A 
ATOM      6  C   UNL     1     112.588 124.698 136.523  0.00  0.00    +0.000 A 
ENDROOT
BRANCH   1   9
ATOM      7  O   UNL     1     113.512 127.488 136.063  0.00  0.00    +0.000 OA
ATOM      8  O   UNL     1     112.749 128.795 138.021  0.00  0.00    +0.000 OA
ATOM      9  C   UNL     1     113.090 127.116 136.667  0.00  0.00    +0.000 A 
ATOM     10  C   UNL     1     113.425 128.730 136.764  0.00  0.00    +0.000 A 
ATOM     11  C   UNL     1     113.680 128.293 136.111  0.00  0.00    +0.000 A 
ATOM     12  C   UNL     1     112.835 127.553 137.320  0.00  0.00    +0.000 A 
ATOM     13  C   UNL     1     113.003 128.359 137.368  0.00  0.00    +0.000 A 
ATOM     14  C   UNL     1     113.593 129.571 136.826  0.00  0.00    +0.000 A 
ATOM     15  C   UNL     1     114.120 128.668 135.475  0.00  0.00    +0.000 A 
ATOM     16  C   UNL     1     114.032 129.962 136.200  0.00  0.00    +0.000 A 
ATOM     17  C   UNL     1     114.298 129.507 135.520  0.00  0.00    +0.000 A 
ENDBRANCH   1   9
BRANCH   4  18
ATOM     18  O   UNL     1     111.319 124.996 135.936  0.00  0.00    +0.000 OA
ATOM     19  C   UNL     1     110.880 125.501 135.453  0.00  0.00    +0.000 C 
ENDBRANCH   4  18
BRANCH   5  20
ATOM     20  O   UNL     1     113.855 124.400 137.109  0.00  0.00    +0.000 OA
ATOM     21  C   UNL     1     114.633 124.632 137.261  0.00  0.00    +0.000 C 
ENDBRANCH   5  20
BRANCH   6  22
ATOM     22  O   UNL     1     112.420 123.891 136.475  0.00  0.00    +0.000 OA
ATOM     23  C   UNL     1     112.025 123.515 137.094  0.00  0.00    +0.000 C 
ENDBRANCH   6  22
TORSDOF 4
ENDMDL
MODEL 7
REMARK VINA RESULT:      -7.5      0.864      4.325
REMARK  Name = 332208
REMARK  4 active torsions:
REMARK  status: ('A' for Active; 'I' for Inactive)
REMARK    1  A    between atoms: O_2  and  C_12
REMARK    2  A    between atoms: O_3  and  C_13
REMARK    3  A    between atoms: O_4  and  C_14
REMARK    4  A    between atoms: C_6  and  C_7
REMARK                            x       y       z     vdW  Elec       q    Type
REMARK                         _______ _______ _______ _____ _____    ______ ____
ROOT
ATOM      1  C   UNL     1     105.456 124.747 147.253  0.00  0.00    +0.000 A 
ATOM      2  C   UNL     1     105.886 125.249 146.759  0.00  0.00    +0.000 A 
ATOM      3  C   UNL     1     105.784 124.491 147.966  0.00  0.00    +0.000 A 
ATOM      4  C   UNL     1     106.540 124.737 148.184  0.00  0.00    +0.000 A 
ATOM      5  C   UNL     1     106.643 125.495 146.977  0.00  0.00    +0.000 A 
ATOM      6  C   UNL     1     106.970 125.238 147.690  0.00  0.00    +0.000 A 
ENDROOT
BRANCH   1   9
ATOM      7  O   UNL     1     104.606 123.886 146.493  0.00  0.00    +0.000 OA
ATOM      8  O   UNL     1     102.617 124.997 147.461  0.00  0.00    +0.000 OA
ATOM      9  C   UNL     1     104.700 124.502 147.034  0.00  0.00    +0.000 A 
ATOM     10  C   UNL     1     103.186 124.012 146.597  0.00  0.00    +0.000 A 
ATOM     11  C   UNL     1     103.850 123.641 146.274  0.00  0.00    +0.000 A 
ATOM     12  C   UNL     1     104.036 124.873 147.357  0.00  0.00    +0.000 A 
ATOM     13  C   UNL     1     103.280 124.627 147.138  0.00  0.00    +0.000 A 
ATOM     14  C   UNL     1     102.392 123.765 146.377  0.00  0.00    +0.000 A 
ATOM     15  C   UNL     1     103.765 122.999 145.709  0.00  0.00    +0.000 A 
ATOM     16  C   UNL     1     102.289 123.125 145.814  0.00  0.00    +0.000 A 
ATOM     17  C   UNL     1     102.980 122.739 145.478  0.00  0.00    +0.000 A 
ENDBRANCH   1   9
BRANCH   4  18
ATOM     18  O   UNL     1     106.868 124.481 148.897  0.00  0.00    +0.000 OA
ATOM     19  C   UNL     1     106.376 124.297 149.535  0.00  0.00    +0.000 C 
ENDBRANCH   4  18
BRANCH   5  20
ATOM     20  O   UNL     1     107.072 125.996 146.484  0.00  0.00    +0.000 OA
ATOM     21  C   UNL     1     106.678 126.493 145.956  0.00  0.00    +0.000 C 
ENDBRANCH   5  20
BRANCH   6  22
ATOM     22  O   UNL     1     107.727 125.484 147.909  0.00  0.00    +0.000 OA
ATOM     23  C   UNL     1     108.375 124.992 147.773  0.00  0.00    +0.000 C 
ENDBRANCH   6  22
TORSDOF 4
ENDMDL
MODEL 8
REMARK VINA RESULT:      -7.5     10.664     12.631
REMARK  Name = 332208
REMARK  4 active torsions:
REMARK  status: ('A' for Active; 'I' for Inactive)
REMARK    1  A    between atoms: O_2  and  C_12
REMARK    2  A    between atoms: O_3  and  C_13
REMARK    3  A    between atoms: O_4  and  C_14
REMARK    4  A    between atoms: C_6  and  C_7
REMARK                            x       y       z     vdW  Elec       q    Type
REMARK                         _______ _______ _______ _____ _____    ______ ____
ROOT
ATOM      1  C   UNL     1     113.254 126.832 138.748  0.00  0.00    +0.000 A 
ATOM      2  C   UNL     1     113.215 126.767 139.569  0.00  0.00    +0.000 A 
ATOM      3  C   UNL     1     113.260 127.577 138.393  0.00  0.00    +0.000 A 
ATOM      4  C   UNL     1     113.227 128.257 138.859  0.00  0.00    +0.000 A 
ATOM      5  C   UNL     1     113.182 127.448 140.036  0.00  0.00    +0.000 A 
ATOM      6  C   UNL     1     113.188 128.192 139.680  0.00  0.00    +0.000 A 
ENDROOT
BRANCH   1   9
ATOM      7  O   UNL     1     112.590 125.804 138.009  0.00  0.00    +0.000 OA
ATOM      8  O   UNL     1     114.780 124.809 137.427  0.00  0.00    +0.000 OA
ATOM      9  C   UNL     1     113.287 126.153 138.282  0.00  0.00    +0.000 A 
ATOM     10  C   UNL     1     113.354 124.793 137.349  0.00  0.00    +0.000 A 
ATOM     11  C   UNL     1     112.623 125.125 137.544  0.00  0.00    +0.000 A 
ATOM     12  C   UNL     1     114.018 125.821 138.087  0.00  0.00    +0.000 A 
ATOM     13  C   UNL     1     114.050 125.141 137.621  0.00  0.00    +0.000 A 
ATOM     14  C   UNL     1     113.401 124.085 136.864  0.00  0.00    +0.000 A 
ATOM     15  C   UNL     1     111.890 124.772 137.266  0.00  0.00    +0.000 A 
ATOM     16  C   UNL     1     112.679 123.718 136.578  0.00  0.00    +0.000 A 
ATOM     17  C   UNL     1     111.918 124.064 136.780  0.00  0.00    +0.000 A 
ENDBRANCH   1   9
BRANCH   4  18
ATOM     18  O   UNL     1     113.233 129.002 138.504  0.00  0.00    +0.000 OA
ATOM     19  C   UNL     1     112.958 129.093 137.731  0.00  0.00    +0.000 C 
ENDBRANCH   4  18
BRANCH   5  20
ATOM     20  O   UNL     1     113.142 127.383 140.856  0.00  0.00    +0.000 OA
ATOM     21  C   UNL     1     112.721 126.762 141.202  0.00  0.00    +0.000 C 
ENDBRANCH   5  20
BRANCH   6  22
ATOM     22  O   UNL     1     113.155 128.872 140.147  0.00  0.00    +0.000 OA
ATOM     23  C   UNL     1     113.852 129.215 140.425  0.00  0.00    +0.000 C 
ENDBRANCH   6  22
TORSDOF 4
ENDMDL
MODEL 9
REMARK VINA RESULT:      -7.5     12.518     14.026
REMARK  Name = 332208
REMARK  4 active torsions:
REMARK  status: ('A' for Active; 'I' for Inactive)
REMARK    1  A    between atoms: O_2  and  C_12
REMARK    2  A    between atoms: O_3  and  C_13
REMARK    3  A    between atoms: O_4  and  C_14
REMARK    4  A    between atoms: C_6  and  C_7
REMARK                            x       y       z     vdW  Elec       q    Type
REMARK                         _______ _______ _______ _____ _____    ______ ____
ROOT
ATOM      1  C   UNL     1     113.243 127.591 136.760  0.00  0.00    +0.000 A 
ATOM      2  C   UNL     1     113.239 128.040 136.068  0.00  0.00    +0.000 A 
ATOM      3  C   UNL     1     113.220 127.966 137.495  0.00  0.00    +0.000 A 
ATOM      4  C   UNL     1     113.194 128.789 137.538  0.00  0.00    +0.000 A 
ATOM      5  C   UNL     1     113.212 128.864 136.111  0.00  0.00    +0.000 A 
ATOM      6  C   UNL     1     113.190 129.238 136.846  0.00  0.00    +0.000 A 
ENDROOT
BRANCH   1   9
ATOM      7  O   UNL     1     112.569 126.333 136.691  0.00  0.00    +0.000 OA
ATOM      8  O   UNL     1     114.751 125.166 136.642  0.00  0.00    +0.000 OA
ATOM      9  C   UNL     1     113.269 126.768 136.718  0.00  0.00    +0.000 A 
ATOM     10  C   UNL     1     113.323 125.120 136.632  0.00  0.00    +0.000 A 
ATOM     11  C   UNL     1     112.595 125.510 136.648  0.00  0.00    +0.000 A 
ATOM     12  C   UNL     1     113.997 126.378 136.701  0.00  0.00    +0.000 A 
ATOM     13  C   UNL     1     114.023 125.555 136.659  0.00  0.00    +0.000 A 
ATOM     14  C   UNL     1     113.364 124.263 136.588  0.00  0.00    +0.000 A 
ATOM     15  C   UNL     1     111.858 125.068 136.621  0.00  0.00    +0.000 A 
ATOM     16  C   UNL     1     112.638 123.805 136.560  0.00  0.00    +0.000 A 
ATOM     17  C   UNL     1     111.879 124.210 136.577  0.00  0.00    +0.000 A 
ENDBRANCH   1   9
BRANCH   4  18
ATOM     18  O   UNL     1     113.171 129.164 138.272  0.00  0.00    +0.000 OA
ATOM     19  C   UNL     1     112.855 128.771 138.927  0.00  0.00    +0.000 C 
ENDBRANCH   4  18
BRANCH   5  20
ATOM     20  O   UNL     1     113.208 129.312 135.420  0.00  0.00    +0.000 OA
ATOM     21  C   UNL     1     112.800 129.042 134.754  0.00  0.00    +0.000 C 
ENDBRANCH   5  20
BRANCH   6  22
ATOM     22  O   UNL     1     113.163 130.062 136.888  0.00  0.00    +0.000 OA
ATOM     23  C   UNL     1     113.864 130.495 136.925  0.00  0.00    +0.000 C 
ENDBRANCH   6  22
TORSDOF 4
ENDMDL
MODEL 10
REMARK VINA RESULT:      -7.5     12.536     13.965
REMARK  Name = 332208
REMARK  4 active torsions:
REMARK  status: ('A' for Active; 'I' for Inactive)
REMARK    1  A    between atoms: O_2  and  C_12
REMARK    2  A    between atoms: O_3  and  C_13
REMARK    3  A    between atoms: O_4  and  C_14
REMARK    4  A    between atoms: C_6  and  C_7
REMARK                            x       y       z     vdW  Elec       q    Type
REMARK                         _______ _______ _______ _____ _____    ______ ____
ROOT
ATOM      1  C   UNL     1     113.231 127.582 136.747  0.00  0.00    +0.000 A 
ATOM      2  C   UNL     1     113.221 127.962 137.480  0.00  0.00    +0.000 A 
ATOM      3  C   UNL     1     113.209 128.027 136.053  0.00  0.00    +0.000 A 
ATOM      4  C   UNL     1     113.178 128.850 136.090  0.00  0.00    +0.000 A 
ATOM      5  C   UNL     1     113.190 128.786 137.518  0.00  0.00    +0.000 A 
ATOM      6  C   UNL     1     113.169 129.230 136.823  0.00  0.00    +0.000 A 
ENDROOT
BRANCH   1   9
ATOM      7  O   UNL     1     112.563 126.320 136.693  0.00  0.00    +0.000 OA
ATOM      8  O   UNL     1     114.752 125.166 136.631  0.00  0.00    +0.000 OA
ATOM      9  C   UNL     1     113.262 126.759 136.710  0.00  0.00    +0.000 A 
ATOM     10  C   UNL     1     113.324 125.112 136.635  0.00  0.00    +0.000 A 
ATOM     11  C   UNL     1     112.594 125.497 136.656  0.00  0.00    +0.000 A 
ATOM     12  C   UNL     1     113.992 126.374 136.689  0.00  0.00    +0.000 A 
ATOM     13  C   UNL     1     114.022 125.550 136.652  0.00  0.00    +0.000 A 
ATOM     14  C   UNL     1     113.370 124.254 136.596  0.00  0.00    +0.000 A 
ATOM     15  C   UNL     1     111.859 125.051 136.639  0.00  0.00    +0.000 A 
ATOM     16  C   UNL     1     112.646 123.792 136.578  0.00  0.00    +0.000 A 
ATOM     17  C   UNL     1     111.886 124.193 136.600  0.00  0.00    +0.000 A 
ENDBRANCH   1   9
BRANCH   4  18
ATOM     18  O   UNL     1     113.157 129.295 135.396  0.00  0.00    +0.000 OA
ATOM     19  C   UNL     1     112.723 129.025 134.746  0.00  0.00    +0.000 C 
ENDBRANCH   4  18
BRANCH   5  20
ATOM     20  O   UNL     1     113.181 129.165 138.250  0.00  0.00    +0.000 OA
ATOM     21  C   UNL     1     112.885 128.774 138.913  0.00  0.00    +0.000 C 
ENDBRANCH   5  20
BRANCH   6  22
ATOM     22  O   UNL     1     113.138 130.054 136.861  0.00  0.00    +0.000 OA
ATOM     23  C   UNL     1     113.837 130.492 136.878  0.00  0.00    +0.000 C 
ENDBRANCH   6  22
TORSDOF 4
ENDMDL
