MODEL 1
REMARK VINA RESULT:      -8.3      0.000      0.000
REMARK  Name = 5322060
REMARK  3 active torsions:
REMARK  status: ('A' for Active; 'I' for Inactive)
REMARK    1  A    between atoms: O_2  and  C_12
REMARK    2  A    between atoms: O_3  and  C_17
REMARK    3  A    between atoms: C_10  and  C_11
REMARK                            x       y       z     vdW  Elec       q    Type
REMARK                         _______ _______ _______ _____ _____    ______ ____
ROOT
ATOM      1  O   UNL     1     106.651 125.349 146.561  0.00  0.00    +0.000 OA
ATOM      2  O   UNL     1     106.337 127.912 145.266  0.00  0.00    +0.000 OA
ATOM      3  O   UNL     1     105.665 125.462 143.824  0.00  0.00    +0.000 OA
ATOM      4  O   UNL     1     106.823 127.817 146.620  0.00  0.00    +0.000 OA
ATOM      5  C   UNL     1     106.495 126.616 145.920  0.00  0.00    +0.000 A 
ATOM      6  C   UNL     1     106.438 125.793 145.900  0.00  0.00    +0.000 A 
ATOM      7  C   UNL     1     106.922 125.728 147.243  0.00  0.00    +0.000 A 
ATOM      8  C   UNL     1     106.158 125.387 145.196  0.00  0.00    +0.000 A 
ATOM      9  C   UNL     1     106.766 126.994 146.601  0.00  0.00    +0.000 A 
ATOM     10  C   UNL     1     106.979 126.551 147.263  0.00  0.00    +0.000 A 
ATOM     11  C   UNL     1     106.276 127.090 145.237  0.00  0.00    +0.000 A 
ATOM     12  C   UNL     1     105.935 125.845 144.504  0.00  0.00    +0.000 A 
ATOM     13  C   UNL     1     105.994 126.701 144.524  0.00  0.00    +0.000 A 
ENDROOT
BRANCH   7  15
ATOM     14  O   UNL     1     108.493 125.274 147.462  0.00  0.00    +0.000 OA
ATOM     15  C   UNL     1     107.135 125.283 147.904  0.00  0.00    +0.000 A 
ATOM     16  C   UNL     1     106.561 125.065 148.457  0.00  0.00    +0.000 A 
ATOM     17  C   UNL     1     107.921 125.056 148.014  0.00  0.00    +0.000 A 
ATOM     18  C   UNL     1     106.774 124.620 149.118  0.00  0.00    +0.000 A 
ATOM     19  C   UNL     1     108.132 124.611 148.676  0.00  0.00    +0.000 A 
ATOM     20  C   UNL     1     107.560 124.394 149.228  0.00  0.00    +0.000 A 
BRANCH  16  21
ATOM     21  O   UNL     1     105.776 125.292 148.347  0.00  0.00    +0.000 OA
ATOM     22  C   UNL     1     105.200 125.059 148.889  0.00  0.00    +0.000 C 
ENDBRANCH  16  21
ENDBRANCH   7  15
BRANCH   8  23
ATOM     23  O   UNL     1     106.104 124.564 145.186  0.00  0.00    +0.000 OA
ATOM     24  C   UNL     1     105.400 124.200 144.958  0.00  0.00    +0.000 C 
ENDBRANCH   8  23
TORSDOF 3
ENDMDL
MODEL 2
REMARK VINA RESULT:      -8.2      1.826      3.637
REMARK  Name = 5322060
REMARK  3 active torsions:
REMARK  status: ('A' for Active; 'I' for Inactive)
REMARK    1  A    between atoms: O_2  and  C_12
REMARK    2  A    between atoms: O_3  and  C_17
REMARK    3  A    between atoms: C_10  and  C_11
REMARK                            x       y       z     vdW  Elec       q    Type
REMARK                         _______ _______ _______ _____ _____    ______ ____
ROOT
ATOM      1  O   UNL     1     105.311 124.422 147.450  0.00  0.00    +0.000 OA
ATOM      2  O   UNL     1     107.508 125.942 146.349  0.00  0.00    +0.000 OA
ATOM      3  O   UNL     1     107.786 124.671 148.964  0.00  0.00    +0.000 OA
ATOM      4  O   UNL     1     106.268 125.798 145.628  0.00  0.00    +0.000 OA
ATOM      5  C   UNL     1     106.398 125.174 146.906  0.00  0.00    +0.000 A 
ATOM      6  C   UNL     1     106.079 124.716 147.513  0.00  0.00    +0.000 A 
ATOM      7  C   UNL     1     104.861 124.588 146.778  0.00  0.00    +0.000 A 
ATOM      8  C   UNL     1     106.538 124.536 148.218  0.00  0.00    +0.000 A 
ATOM      9  C   UNL     1     105.949 125.339 146.235  0.00  0.00    +0.000 A 
ATOM     10  C   UNL     1     105.180 125.047 146.170  0.00  0.00    +0.000 A 
ATOM     11  C   UNL     1     107.198 125.485 146.961  0.00  0.00    +0.000 A 
ATOM     12  C   UNL     1     107.339 124.839 148.291  0.00  0.00    +0.000 A 
ATOM     13  C   UNL     1     107.671 125.316 147.658  0.00  0.00    +0.000 A 
ENDROOT
BRANCH   7  15
ATOM     14  O   UNL     1     104.577 123.188 145.953  0.00  0.00    +0.000 OA
ATOM     15  C   UNL     1     104.093 124.295 146.714  0.00  0.00    +0.000 A 
ATOM     16  C   UNL     1     103.466 124.703 147.064  0.00  0.00    +0.000 A 
ATOM     17  C   UNL     1     103.951 123.595 146.302  0.00  0.00    +0.000 A 
ATOM     18  C   UNL     1     102.697 124.410 147.000  0.00  0.00    +0.000 A 
ATOM     19  C   UNL     1     103.181 123.302 146.239  0.00  0.00    +0.000 A 
ATOM     20  C   UNL     1     102.555 123.710 146.588  0.00  0.00    +0.000 A 
BRANCH  16  21
ATOM     21  O   UNL     1     103.608 125.403 147.476  0.00  0.00    +0.000 OA
ATOM     22  C   UNL     1     102.997 125.767 147.892  0.00  0.00    +0.000 C 
ENDBRANCH  16  21
ENDBRANCH   7  15
BRANCH   8  23
ATOM     23  O   UNL     1     106.211 124.077 148.820  0.00  0.00    +0.000 OA
ATOM     24  C   UNL     1     106.233 124.344 149.601  0.00  0.00    +0.000 C 
ENDBRANCH   8  23
TORSDOF 3
ENDMDL
MODEL 3
REMARK VINA RESULT:      -8.0     10.116     12.090
REMARK  Name = 5322060
REMARK  3 active torsions:
REMARK  status: ('A' for Active; 'I' for Inactive)
REMARK    1  A    between atoms: O_2  and  C_12
REMARK    2  A    between atoms: O_3  and  C_17
REMARK    3  A    between atoms: C_10  and  C_11
REMARK                            x       y       z     vdW  Elec       q    Type
REMARK                         _______ _______ _______ _____ _____    ______ ____
ROOT
ATOM      1  O   UNL     1     111.948 125.842 136.221  0.00  0.00    +0.000 OA
ATOM      2  O   UNL     1     113.291 123.433 137.081  0.00  0.00    +0.000 OA
ATOM      3  O   UNL     1     114.817 125.897 136.720  0.00  0.00    +0.000 OA
ATOM      4  O   UNL     1     111.872 123.443 136.825  0.00  0.00    +0.000 OA
ATOM      5  C   UNL     1     112.613 124.651 136.646  0.00  0.00    +0.000 A 
ATOM      6  C   UNL     1     112.638 125.451 136.445  0.00  0.00    +0.000 A 
ATOM      7  C   UNL     1     111.231 125.433 136.198  0.00  0.00    +0.000 A 
ATOM      8  C   UNL     1     113.379 125.887 136.465  0.00  0.00    +0.000 A 
ATOM      9  C   UNL     1     111.897 124.243 136.623  0.00  0.00    +0.000 A 
ATOM     10  C   UNL     1     111.206 124.634 136.399  0.00  0.00    +0.000 A 
ATOM     11  C   UNL     1     113.326 124.232 136.881  0.00  0.00    +0.000 A 
ATOM     12  C   UNL     1     114.102 125.485 136.698  0.00  0.00    +0.000 A 
ATOM     13  C   UNL     1     114.075 124.653 136.907  0.00  0.00    +0.000 A 
ENDROOT
BRANCH   7  15
ATOM     14  O   UNL     1     110.777 125.465 134.612  0.00  0.00    +0.000 OA
ATOM     15  C   UNL     1     110.541 125.825 135.974  0.00  0.00    +0.000 A 
ATOM     16  C   UNL     1     110.077 126.201 136.544  0.00  0.00    +0.000 A 
ATOM     17  C   UNL     1     110.314 125.841 135.181  0.00  0.00    +0.000 A 
ATOM     18  C   UNL     1     109.386 126.593 136.320  0.00  0.00    +0.000 A 
ATOM     19  C   UNL     1     109.622 126.233 134.958  0.00  0.00    +0.000 A 
ATOM     20  C   UNL     1     109.159 126.609 135.527  0.00  0.00    +0.000 A 
BRANCH  16  21
ATOM     21  O   UNL     1     110.304 126.185 137.337  0.00  0.00    +0.000 OA
ATOM     22  C   UNL     1     109.843 126.565 137.906  0.00  0.00    +0.000 C 
ENDBRANCH  16  21
ENDBRANCH   7  15
BRANCH   8  23
ATOM     23  O   UNL     1     113.394 126.687 136.262  0.00  0.00    +0.000 OA
ATOM     24  C   UNL     1     113.666 127.245 136.806  0.00  0.00    +0.000 C 
ENDBRANCH   8  23
TORSDOF 3
ENDMDL
MODEL 4
REMARK VINA RESULT:      -7.9      9.618     11.427
REMARK  Name = 5322060
REMARK  3 active torsions:
REMARK  status: ('A' for Active; 'I' for Inactive)
REMARK    1  A    between atoms: O_2  and  C_12
REMARK    2  A    between atoms: O_3  and  C_17
REMARK    3  A    between atoms: C_10  and  C_11
REMARK                            x       y       z     vdW  Elec       q    Type
REMARK                         _______ _______ _______ _____ _____    ______ ____
ROOT
ATOM      1  O   UNL     1     111.318 125.662 137.025  0.00  0.00    +0.000 OA
ATOM      2  O   UNL     1     109.301 126.310 135.060  0.00  0.00    +0.000 OA
ATOM      3  O   UNL     1     108.932 127.117 137.842  0.00  0.00    +0.000 OA
ATOM      4  O   UNL     1     110.496 125.591 134.691  0.00  0.00    +0.000 OA
ATOM      5  C   UNL     1     110.320 125.983 136.053  0.00  0.00    +0.000 A 
ATOM      6  C   UNL     1     110.594 126.007 136.831  0.00  0.00    +0.000 A 
ATOM      7  C   UNL     1     111.768 125.293 136.439  0.00  0.00    +0.000 A 
ATOM      8  C   UNL     1     110.134 126.388 137.449  0.00  0.00    +0.000 A 
ATOM      9  C   UNL     1     110.770 125.615 135.469  0.00  0.00    +0.000 A 
ATOM     10  C   UNL     1     111.494 125.269 135.661  0.00  0.00    +0.000 A 
ATOM     11  C   UNL     1     109.567 126.339 135.840  0.00  0.00    +0.000 A 
ATOM     12  C   UNL     1     109.380 126.749 137.255  0.00  0.00    +0.000 A 
ATOM     13  C   UNL     1     109.094 126.724 136.445  0.00  0.00    +0.000 A 
ENDROOT
BRANCH   7  15
ATOM     14  O   UNL     1     111.843 123.691 136.827  0.00  0.00    +0.000 OA
ATOM     15  C   UNL     1     112.492 124.948 136.632  0.00  0.00    +0.000 A 
ATOM     16  C   UNL     1     113.180 125.406 136.632  0.00  0.00    +0.000 A 
ATOM     17  C   UNL     1     112.530 124.147 136.826  0.00  0.00    +0.000 A 
ATOM     18  C   UNL     1     113.904 125.061 136.825  0.00  0.00    +0.000 A 
ATOM     19  C   UNL     1     113.255 123.804 137.020  0.00  0.00    +0.000 A 
ATOM     20  C   UNL     1     113.941 124.260 137.019  0.00  0.00    +0.000 A 
BRANCH  16  21
ATOM     21  O   UNL     1     113.142 126.207 136.438  0.00  0.00    +0.000 OA
ATOM     22  C   UNL     1     113.819 126.675 136.490  0.00  0.00    +0.000 C 
ENDBRANCH  16  21
ENDBRANCH   7  15
BRANCH   8  23
ATOM     23  O   UNL     1     110.417 126.407 138.224  0.00  0.00    +0.000 OA
ATOM     24  C   UNL     1     109.939 126.143 138.844  0.00  0.00    +0.000 C 
ENDBRANCH   8  23
TORSDOF 3
ENDMDL
MODEL 5
REMARK VINA RESULT:      -7.9     10.370     11.971
REMARK  Name = 5322060
REMARK  3 active torsions:
REMARK  status: ('A' for Active; 'I' for Inactive)
REMARK    1  A    between atoms: O_2  and  C_12
REMARK    2  A    between atoms: O_3  and  C_17
REMARK    3  A    between atoms: C_10  and  C_11
REMARK                            x       y       z     vdW  Elec       q    Type
REMARK                         _______ _______ _______ _____ _____    ______ ____
ROOT
ATOM      1  O   UNL     1     112.400 126.428 136.241  0.00  0.00    +0.000 OA
ATOM      2  O   UNL     1     109.998 125.366 135.035  0.00  0.00    +0.000 OA
ATOM      3  O   UNL     1     110.723 128.164 134.612  0.00  0.00    +0.000 OA
ATOM      4  O   UNL     1     110.853 124.536 135.848  0.00  0.00    +0.000 OA
ATOM      5  C   UNL     1     111.212 125.903 135.644  0.00  0.00    +0.000 A 
ATOM      6  C   UNL     1     111.728 126.534 135.775  0.00  0.00    +0.000 A 
ATOM      7  C   UNL     1     112.557 125.690 136.576  0.00  0.00    +0.000 A 
ATOM      8  C   UNL     1     111.575 127.307 135.431  0.00  0.00    +0.000 A 
ATOM      9  C   UNL     1     111.369 125.167 135.979  0.00  0.00    +0.000 A 
ATOM     10  C   UNL     1     112.041 125.059 136.445  0.00  0.00    +0.000 A 
ATOM     11  C   UNL     1     110.508 126.002 135.161  0.00  0.00    +0.000 A 
ATOM     12  C   UNL     1     110.876 127.424 134.946  0.00  0.00    +0.000 A 
ATOM     13  C   UNL     1     110.339 126.768 134.809  0.00  0.00    +0.000 A 
ENDROOT
BRANCH   7  15
ATOM     14  O   UNL     1     113.942 125.096 135.903  0.00  0.00    +0.000 OA
ATOM     15  C   UNL     1     113.229 125.583 137.041  0.00  0.00    +0.000 A 
ATOM     16  C   UNL     1     113.209 125.774 137.844  0.00  0.00    +0.000 A 
ATOM     17  C   UNL     1     113.922 125.286 136.705  0.00  0.00    +0.000 A 
ATOM     18  C   UNL     1     113.882 125.668 138.310  0.00  0.00    +0.000 A 
ATOM     19  C   UNL     1     114.594 125.180 137.172  0.00  0.00    +0.000 A 
ATOM     20  C   UNL     1     114.574 125.371 137.974  0.00  0.00    +0.000 A 
BRANCH  16  21
ATOM     21  O   UNL     1     112.517 126.071 138.181  0.00  0.00    +0.000 OA
ATOM     22  C   UNL     1     112.503 126.281 138.978  0.00  0.00    +0.000 C 
ENDBRANCH  16  21
ENDBRANCH   7  15
BRANCH   8  23
ATOM     23  O   UNL     1     112.096 127.932 135.568  0.00  0.00    +0.000 OA
ATOM     24  C   UNL     1     111.810 128.656 135.842  0.00  0.00    +0.000 C 
ENDBRANCH   8  23
TORSDOF 3
ENDMDL
MODEL 6
REMARK VINA RESULT:      -7.8      1.855      2.979
REMARK  Name = 5322060
REMARK  3 active torsions:
REMARK  status: ('A' for Active; 'I' for Inactive)
REMARK    1  A    between atoms: O_2  and  C_12
REMARK    2  A    between atoms: O_3  and  C_17
REMARK    3  A    between atoms: C_10  and  C_11
REMARK                            x       y       z     vdW  Elec       q    Type
REMARK                         _______ _______ _______ _____ _____    ______ ____
ROOT
ATOM      1  O   UNL     1     105.156 124.486 147.131  0.00  0.00    +0.000 OA
ATOM      2  O   UNL     1     102.483 125.270 147.899  0.00  0.00    +0.000 OA
ATOM      3  O   UNL     1     102.869 123.347 145.735  0.00  0.00    +0.000 OA
ATOM      4  O   UNL     1     103.640 125.813 148.568  0.00  0.00    +0.000 OA
ATOM      5  C   UNL     1     103.834 124.873 147.510  0.00  0.00    +0.000 A 
ATOM      6  C   UNL     1     104.339 124.431 147.032  0.00  0.00    +0.000 A 
ATOM      7  C   UNL     1     105.468 124.985 147.711  0.00  0.00    +0.000 A 
ATOM      8  C   UNL     1     104.027 123.908 146.425  0.00  0.00    +0.000 A 
ATOM      9  C   UNL     1     104.145 125.371 148.089  0.00  0.00    +0.000 A 
ATOM     10  C   UNL     1     104.962 125.427 148.190  0.00  0.00    +0.000 A 
ATOM     11  C   UNL     1     102.981 124.824 147.415  0.00  0.00    +0.000 A 
ATOM     12  C   UNL     1     103.177 123.846 146.315  0.00  0.00    +0.000 A 
ATOM     13  C   UNL     1     102.651 124.307 146.814  0.00  0.00    +0.000 A 
ENDROOT
BRANCH   7  15
ATOM     14  O   UNL     1     106.229 124.040 148.829  0.00  0.00    +0.000 OA
ATOM     15  C   UNL     1     106.285 125.040 147.811  0.00  0.00    +0.000 A 
ATOM     16  C   UNL     1     106.721 125.569 147.351  0.00  0.00    +0.000 A 
ATOM     17  C   UNL     1     106.665 124.568 148.370  0.00  0.00    +0.000 A 
ATOM     18  C   UNL     1     107.538 125.624 147.451  0.00  0.00    +0.000 A 
ATOM     19  C   UNL     1     107.483 124.624 148.469  0.00  0.00    +0.000 A 
ATOM     20  C   UNL     1     107.919 125.151 148.010  0.00  0.00    +0.000 A 
BRANCH  16  21
ATOM     21  O   UNL     1     106.341 126.041 146.792  0.00  0.00    +0.000 OA
ATOM     22  C   UNL     1     106.776 126.575 146.339  0.00  0.00    +0.000 C 
ENDBRANCH  16  21
ENDBRANCH   7  15
BRANCH   8  23
ATOM     23  O   UNL     1     104.540 123.470 145.950  0.00  0.00    +0.000 OA
ATOM     24  C   UNL     1     104.453 123.478 145.130  0.00  0.00    +0.000 C 
ENDBRANCH   8  23
TORSDOF 3
ENDMDL
MODEL 7
REMARK VINA RESULT:      -7.8      9.895     11.860
REMARK  Name = 5322060
REMARK  3 active torsions:
REMARK  status: ('A' for Active; 'I' for Inactive)
REMARK    1  A    between atoms: O_2  and  C_12
REMARK    2  A    between atoms: O_3  and  C_17
REMARK    3  A    between atoms: C_10  and  C_11
REMARK                            x       y       z     vdW  Elec       q    Type
REMARK                         _______ _______ _______ _____ _____    ______ ____
ROOT
ATOM      1  O   UNL     1     111.826 126.220 137.149  0.00  0.00    +0.000 OA
ATOM      2  O   UNL     1     114.558 125.551 137.810  0.00  0.00    +0.000 OA
ATOM      3  O   UNL     1     112.779 126.604 139.874  0.00  0.00    +0.000 OA
ATOM      4  O   UNL     1     114.051 125.374 136.471  0.00  0.00    +0.000 OA
ATOM      5  C   UNL     1     113.177 125.890 137.477  0.00  0.00    +0.000 A 
ATOM      6  C   UNL     1     112.436 126.172 137.702  0.00  0.00    +0.000 A 
ATOM      7  C   UNL     1     111.959 125.987 136.368  0.00  0.00    +0.000 A 
ATOM      8  C   UNL     1     112.285 126.418 138.512  0.00  0.00    +0.000 A 
ATOM      9  C   UNL     1     113.310 125.656 136.697  0.00  0.00    +0.000 A 
ATOM     10  C   UNL     1     112.701 125.705 136.142  0.00  0.00    +0.000 A 
ATOM     11  C   UNL     1     113.820 125.834 138.045  0.00  0.00    +0.000 A 
ATOM     12  C   UNL     1     112.915 126.369 139.094  0.00  0.00    +0.000 A 
ATOM     13  C   UNL     1     113.688 126.076 138.859  0.00  0.00    +0.000 A 
ENDROOT
BRANCH   7  15
ATOM     14  O   UNL     1     110.997 124.677 136.080  0.00  0.00    +0.000 OA
ATOM     15  C   UNL     1     111.350 126.036 135.814  0.00  0.00    +0.000 A 
ATOM     16  C   UNL     1     111.221 126.741 135.404  0.00  0.00    +0.000 A 
ATOM     17  C   UNL     1     110.869 125.381 135.670  0.00  0.00    +0.000 A 
ATOM     18  C   UNL     1     110.612 126.789 134.850  0.00  0.00    +0.000 A 
ATOM     19  C   UNL     1     110.259 125.431 135.116  0.00  0.00    +0.000 A 
ATOM     20  C   UNL     1     110.131 126.135 134.706  0.00  0.00    +0.000 A 
BRANCH  16  21
ATOM     21  O   UNL     1     111.702 127.395 135.547  0.00  0.00    +0.000 OA
ATOM     22  C   UNL     1     111.557 128.107 135.158  0.00  0.00    +0.000 C 
ENDBRANCH  16  21
ENDBRANCH   7  15
BRANCH   8  23
ATOM     23  O   UNL     1     111.540 126.698 138.729  0.00  0.00    +0.000 OA
ATOM     24  C   UNL     1     111.139 126.356 139.364  0.00  0.00    +0.000 C 
ENDBRANCH   8  23
TORSDOF 3
ENDMDL
MODEL 8
REMARK VINA RESULT:      -7.7      9.464     10.931
REMARK  Name = 5322060
REMARK  3 active torsions:
REMARK  status: ('A' for Active; 'I' for Inactive)
REMARK    1  A    between atoms: O_2  and  C_12
REMARK    2  A    between atoms: O_3  and  C_17
REMARK    3  A    between atoms: C_10  and  C_11
REMARK                            x       y       z     vdW  Elec       q    Type
REMARK                         _______ _______ _______ _____ _____    ______ ____
ROOT
ATOM      1  O   UNL     1     112.341 126.003 138.063  0.00  0.00    +0.000 OA
ATOM      2  O   UNL     1     114.498 124.301 137.170  0.00  0.00    +0.000 OA
ATOM      3  O   UNL     1     111.785 123.846 136.188  0.00  0.00    +0.000 OA
ATOM      4  O   UNL     1     114.736 125.379 138.098  0.00  0.00    +0.000 OA
ATOM      5  C   UNL     1     113.407 125.161 137.621  0.00  0.00    +0.000 A 
ATOM      6  C   UNL     1     112.609 125.369 137.609  0.00  0.00    +0.000 A 
ATOM      7  C   UNL     1     112.872 126.430 138.529  0.00  0.00    +0.000 A 
ATOM      8  C   UNL     1     112.046 124.932 137.128  0.00  0.00    +0.000 A 
ATOM      9  C   UNL     1     113.937 125.587 138.086  0.00  0.00    +0.000 A 
ATOM     10  C   UNL     1     113.670 126.222 138.541  0.00  0.00    +0.000 A 
ATOM     11  C   UNL     1     113.698 124.502 137.152  0.00  0.00    +0.000 A 
ATOM     12  C   UNL     1     112.319 124.271 136.653  0.00  0.00    +0.000 A 
ATOM     13  C   UNL     1     113.150 124.054 136.665  0.00  0.00    +0.000 A 
ENDROOT
BRANCH   7  15
ATOM     14  O   UNL     1     112.344 126.177 140.072  0.00  0.00    +0.000 OA
ATOM     15  C   UNL     1     112.604 127.064 138.983  0.00  0.00    +0.000 A 
ATOM     16  C   UNL     1     112.600 127.826 138.665  0.00  0.00    +0.000 A 
ATOM     17  C   UNL     1     112.340 126.938 139.755  0.00  0.00    +0.000 A 
ATOM     18  C   UNL     1     112.331 128.461 139.119  0.00  0.00    +0.000 A 
ATOM     19  C   UNL     1     112.072 127.573 140.208  0.00  0.00    +0.000 A 
ATOM     20  C   UNL     1     112.068 128.334 139.890  0.00  0.00    +0.000 A 
BRANCH  16  21
ATOM     21  O   UNL     1     112.864 127.953 137.894  0.00  0.00    +0.000 OA
ATOM     22  C   UNL     1     112.842 128.711 137.570  0.00  0.00    +0.000 C 
ENDBRANCH  16  21
ENDBRANCH   7  15
BRANCH   8  23
ATOM     23  O   UNL     1     111.250 125.147 137.122  0.00  0.00    +0.000 OA
ATOM     24  C   UNL     1     110.875 125.322 136.408  0.00  0.00    +0.000 C 
ENDBRANCH   8  23
TORSDOF 3
ENDMDL
MODEL 9
REMARK VINA RESULT:      -7.6      9.679     11.531
REMARK  Name = 5322060
REMARK  3 active torsions:
REMARK  status: ('A' for Active; 'I' for Inactive)
REMARK    1  A    between atoms: O_2  and  C_12
REMARK    2  A    between atoms: O_3  and  C_17
REMARK    3  A    between atoms: C_10  and  C_11
REMARK                            x       y       z     vdW  Elec       q    Type
REMARK                         _______ _______ _______ _____ _____    ______ ____
ROOT
ATOM      1  O   UNL     1     110.644 127.220 136.017  0.00  0.00    +0.000 OA
ATOM      2  O   UNL     1     108.089 128.545 135.770  0.00  0.00    +0.000 OA
ATOM      3  O   UNL     1     110.552 130.036 135.284  0.00  0.00    +0.000 OA
ATOM      4  O   UNL     1     108.173 127.151 136.132  0.00  0.00    +0.000 OA
ATOM      5  C   UNL     1     109.381 127.876 135.895  0.00  0.00    +0.000 A 
ATOM      6  C   UNL     1     110.205 127.899 135.857  0.00  0.00    +0.000 A 
ATOM      7  C   UNL     1     110.260 126.517 136.216  0.00  0.00    +0.000 A 
ATOM      8  C   UNL     1     110.617 128.625 135.650  0.00  0.00    +0.000 A 
ATOM      9  C   UNL     1     108.997 127.174 136.093  0.00  0.00    +0.000 A 
ATOM     10  C   UNL     1     109.436 126.494 136.254  0.00  0.00    +0.000 A 
ATOM     11  C   UNL     1     108.912 128.578 135.730  0.00  0.00    +0.000 A 
ATOM     12  C   UNL     1     110.164 129.335 135.482  0.00  0.00    +0.000 A 
ATOM     13  C   UNL     1     109.307 129.312 135.522  0.00  0.00    +0.000 A 
ENDROOT
BRANCH   7  15
ATOM     14  O   UNL     1     110.637 125.470 134.997  0.00  0.00    +0.000 OA
ATOM     15  C   UNL     1     110.699 125.838 136.376  0.00  0.00    +0.000 A 
ATOM     16  C   UNL     1     110.951 125.682 137.147  0.00  0.00    +0.000 A 
ATOM     17  C   UNL     1     110.888 125.314 135.767  0.00  0.00    +0.000 A 
ATOM     18  C   UNL     1     111.391 125.003 137.307  0.00  0.00    +0.000 A 
ATOM     19  C   UNL     1     111.328 124.635 135.929  0.00  0.00    +0.000 A 
ATOM     20  C   UNL     1     111.579 124.480 136.698  0.00  0.00    +0.000 A 
BRANCH  16  21
ATOM     21  O   UNL     1     110.762 126.205 137.756  0.00  0.00    +0.000 OA
ATOM     22  C   UNL     1     111.008 126.047 138.527  0.00  0.00    +0.000 C 
ENDBRANCH  16  21
ENDBRANCH   7  15
BRANCH   8  23
ATOM     23  O   UNL     1     111.441 128.638 135.615  0.00  0.00    +0.000 OA
ATOM     24  C   UNL     1     111.820 128.914 134.936  0.00  0.00    +0.000 C 
ENDBRANCH   8  23
TORSDOF 3
ENDMDL
MODEL 10
REMARK VINA RESULT:      -7.6      9.528     11.056
REMARK  Name = 5322060
REMARK  3 active torsions:
REMARK  status: ('A' for Active; 'I' for Inactive)
REMARK    1  A    between atoms: O_2  and  C_12
REMARK    2  A    between atoms: O_3  and  C_17
REMARK    3  A    between atoms: C_10  and  C_11
REMARK                            x       y       z     vdW  Elec       q    Type
REMARK                         _______ _______ _______ _____ _____    ______ ____
ROOT
ATOM      1  O   UNL     1     111.478 125.793 136.627  0.00  0.00    +0.000 OA
ATOM      2  O   UNL     1     109.195 126.493 138.255  0.00  0.00    +0.000 OA
ATOM      3  O   UNL     1     109.117 126.945 135.371  0.00  0.00    +0.000 OA
ATOM      4  O   UNL     1     110.382 125.921 138.843  0.00  0.00    +0.000 OA
ATOM      5  C   UNL     1     110.349 126.140 137.432  0.00  0.00    +0.000 A 
ATOM      6  C   UNL     1     110.714 126.097 136.693  0.00  0.00    +0.000 A 
ATOM      7  C   UNL     1     111.877 125.532 137.301  0.00  0.00    +0.000 A 
ATOM      8  C   UNL     1     110.309 126.367 135.985  0.00  0.00    +0.000 A 
ATOM      9  C   UNL     1     110.747 125.878 138.104  0.00  0.00    +0.000 A 
ATOM     10  C   UNL     1     111.511 125.574 138.040  0.00  0.00    +0.000 A 
ATOM     11  C   UNL     1     109.553 126.455 137.512  0.00  0.00    +0.000 A 
ATOM     12  C   UNL     1     109.513 126.684 136.046  0.00  0.00    +0.000 A 
ATOM     13  C   UNL     1     109.132 126.729 136.815  0.00  0.00    +0.000 A 
ENDROOT
BRANCH   7  15
ATOM     14  O   UNL     1     113.180 126.534 137.445  0.00  0.00    +0.000 OA
ATOM     15  C   UNL     1     112.641 125.228 137.235  0.00  0.00    +0.000 A 
ATOM     16  C   UNL     1     112.753 124.421 137.097  0.00  0.00    +0.000 A 
ATOM     17  C   UNL     1     113.292 125.729 137.307  0.00  0.00    +0.000 A 
ATOM     18  C   UNL     1     113.517 124.118 137.031  0.00  0.00    +0.000 A 
ATOM     19  C   UNL     1     114.056 125.423 137.241  0.00  0.00    +0.000 A 
ATOM     20  C   UNL     1     114.169 124.618 137.103  0.00  0.00    +0.000 A 
BRANCH  16  21
ATOM     21  O   UNL     1     112.102 123.920 137.025  0.00  0.00    +0.000 OA
ATOM     22  C   UNL     1     112.214 123.110 136.922  0.00  0.00    +0.000 C 
ENDBRANCH  16  21
ENDBRANCH   7  15
BRANCH   8  23
ATOM     23  O   UNL     1     110.682 126.321 135.250  0.00  0.00    +0.000 OA
ATOM     24  C   UNL     1     110.307 125.941 134.620  0.00  0.00    +0.000 C 
ENDBRANCH   8  23
TORSDOF 3
ENDMDL
