MODEL 1
REMARK VINA RESULT:      -9.8      0.000      0.000
REMARK  Name = 44259135
REMARK  7 active torsions:
REMARK  status: ('A' for Active; 'I' for Inactive)
REMARK    1  A    between atoms: O_3  and  C_18
REMARK    2  A    between atoms: O_3  and  C_20
REMARK    3  A    between atoms: O_6  and  C_19
REMARK    4  A    between atoms: O_6  and  C_24
REMARK    5  A    between atoms: C_16  and  C_19
REMARK    6  A    between atoms: C_24  and  C_27
REMARK    7  A    between atoms: C_29  and  C_31
REMARK                            x       y       z     vdW  Elec       q    Type
REMARK                         _______ _______ _______ _____ _____    ______ ____
ROOT
ATOM      1  O   UNL     1     111.569 126.046 136.892  0.00  0.00    +0.000 OA
ATOM      2  O   UNL     1     109.109 126.302 138.386  0.00  0.00    +0.000 OA
ATOM      3  O   UNL     1     110.214 125.529 138.898  0.00  0.00    +0.000 OA
ATOM      4  O   UNL     1     111.744 124.929 138.759  0.00  0.00    +0.000 OA
ATOM      5  C   UNL     1     109.691 127.153 136.397  0.00  0.00    +0.000 A 
ATOM      6  C   UNL     1     110.488 126.837 136.331  0.00  0.00    +0.000 A 
ATOM      7  C   UNL     1     109.221 126.973 137.093  0.00  0.00    +0.000 A 
ATOM      8  C   UNL     1     110.803 126.346 136.961  0.00  0.00    +0.000 A 
ATOM      9  C   UNL     1     110.351 126.174 137.630  0.00  0.00    +0.000 A 
ATOM     10  C   UNL     1     109.553 126.480 137.714  0.00  0.00    +0.000 A 
ATOM     11  C   UNL     1     110.665 125.702 138.229  0.00  0.00    +0.000 A 
ATOM     12  C   UNL     1     111.882 125.574 137.491  0.00  0.00    +0.000 A 
ATOM     13  C   UNL     1     111.430 125.402 138.160  0.00  0.00    +0.000 A 
ENDROOT
BRANCH  12  16
ATOM     14  O   UNL     1     114.670 125.740 138.100  0.00  0.00    +0.000 OA
ATOM     15  O   UNL     1     114.944 124.375 137.215  0.00  0.00    +0.000 OA
ATOM     16  C   UNL     1     112.648 125.274 137.422  0.00  0.00    +0.000 A 
ATOM     17  C   UNL     1     113.276 125.658 137.796  0.00  0.00    +0.000 A 
ATOM     18  C   UNL     1     112.785 124.591 136.980  0.00  0.00    +0.000 A 
ATOM     19  C   UNL     1     114.041 125.358 137.727  0.00  0.00    +0.000 A 
ATOM     20  C   UNL     1     113.550 124.292 136.911  0.00  0.00    +0.000 A 
ATOM     21  C   UNL     1     114.179 124.675 137.285  0.00  0.00    +0.000 A 
ENDBRANCH  12  16
BRANCH   5  22
ATOM     22  O   UNL     1     109.379 127.625 135.796  0.00  0.00    +0.000 OA
BRANCH  22  31
ATOM     23  O   UNL     1     110.168 128.805 135.966  0.00  0.00    +0.000 OA
ATOM     24  O   UNL     1     109.599 130.911 136.000  0.00  0.00    +0.000 OA
ATOM     25  O   UNL     1     108.131 130.196 135.762  0.00  0.00    +0.000 OA
ATOM     26  O   UNL     1     108.022 128.552 135.660  0.00  0.00    +0.000 OA
ATOM     27  C   UNL     1     109.544 130.089 135.949  0.00  0.00    +0.000 C 
ATOM     28  C   UNL     1     108.810 129.732 135.830  0.00  0.00    +0.000 C 
ATOM     29  C   UNL     1     110.223 129.625 136.017  0.00  0.00    +0.000 C 
ATOM     30  C   UNL     1     108.755 128.910 135.779  0.00  0.00    +0.000 C 
ATOM     31  C   UNL     1     109.434 128.446 135.847  0.00  0.00    +0.000 C 
BRANCH  29  32
ATOM     32  C   UNL     1     110.956 129.984 136.136  0.00  0.00    +0.000 C 
BRANCH  32  33
ATOM     33  O   UNL     1     111.649 129.545 136.052  0.00  0.00    +0.000 OA
BRANCH  33  35
ATOM     34  O   UNL     1     112.434 130.682 136.417  0.00  0.00    +0.000 OA
ATOM     35  C   UNL     1     112.375 129.873 136.269  0.00  0.00    +0.000 C 
BRANCH  35  36
ATOM     36  C   UNL     1     113.041 129.392 136.337  0.00  0.00    +0.000 C 
ATOM     37  C   UNL     1     113.347 129.215 137.083  0.00  0.00    +0.000 C 
ATOM     38  C   UNL     1     113.402 129.087 135.661  0.00  0.00    +0.000 C 
ATOM     39  C   UNL     1     114.068 128.606 135.729  0.00  0.00    +0.000 C 
ENDBRANCH  35  36
ENDBRANCH  33  35
ENDBRANCH  32  33
ENDBRANCH  29  32
ENDBRANCH  22  31
ENDBRANCH   5  22
TORSDOF 7
ENDMDL
MODEL 2
REMARK VINA RESULT:      -9.8      1.648      3.480
REMARK  Name = 44259135
REMARK  7 active torsions:
REMARK  status: ('A' for Active; 'I' for Inactive)
REMARK    1  A    between atoms: O_3  and  C_18
REMARK    2  A    between atoms: O_3  and  C_20
REMARK    3  A    between atoms: O_6  and  C_19
REMARK    4  A    between atoms: O_6  and  C_24
REMARK    5  A    between atoms: C_16  and  C_19
REMARK    6  A    between atoms: C_24  and  C_27
REMARK    7  A    between atoms: C_29  and  C_31
REMARK                            x       y       z     vdW  Elec       q    Type
REMARK                         _______ _______ _______ _____ _____    ______ ____
ROOT
ATOM      1  O   UNL     1     112.603 127.882 137.435  0.00  0.00    +0.000 OA
ATOM      2  O   UNL     1     113.154 130.452 136.235  0.00  0.00    +0.000 OA
ATOM      3  O   UNL     1     113.793 129.253 135.751  0.00  0.00    +0.000 OA
ATOM      4  O   UNL     1     114.043 127.623 135.815  0.00  0.00    +0.000 OA
ATOM      5  C   UNL     1     111.797 129.907 137.932  0.00  0.00    +0.000 A 
ATOM      6  C   UNL     1     111.932 129.058 137.960  0.00  0.00    +0.000 A 
ATOM      7  C   UNL     1     112.210 130.382 137.348  0.00  0.00    +0.000 A 
ATOM      8  C   UNL     1     112.478 128.697 137.403  0.00  0.00    +0.000 A 
ATOM      9  C   UNL     1     112.874 129.154 136.842  0.00  0.00    +0.000 A 
ATOM     10  C   UNL     1     112.752 130.003 136.799  0.00  0.00    +0.000 A 
ATOM     11  C   UNL     1     113.396 128.796 136.313  0.00  0.00    +0.000 A 
ATOM     12  C   UNL     1     113.125 127.524 136.905  0.00  0.00    +0.000 A 
ATOM     13  C   UNL     1     113.521 127.981 136.344  0.00  0.00    +0.000 A 
ENDROOT
BRANCH  12  16
ATOM     14  O   UNL     1     114.549 125.278 137.951  0.00  0.00    +0.000 OA
ATOM     15  O   UNL     1     113.626 124.265 137.031  0.00  0.00    +0.000 OA
ATOM     16  C   UNL     1     113.250 126.709 136.937  0.00  0.00    +0.000 A 
ATOM     17  C   UNL     1     113.837 126.401 137.428  0.00  0.00    +0.000 A 
ATOM     18  C   UNL     1     112.789 126.203 136.477  0.00  0.00    +0.000 A 
ATOM     19  C   UNL     1     113.963 125.586 137.460  0.00  0.00    +0.000 A 
ATOM     20  C   UNL     1     112.914 125.388 136.509  0.00  0.00    +0.000 A 
ATOM     21  C   UNL     1     113.501 125.080 137.000  0.00  0.00    +0.000 A 
ENDBRANCH  12  16
BRANCH   5  22
ATOM     22  O   UNL     1     111.275 130.262 138.463  0.00  0.00    +0.000 OA
BRANCH  22  31
ATOM     23  O   UNL     1     110.107 130.044 137.668  0.00  0.00    +0.000 OA
ATOM     24  O   UNL     1     108.291 131.233 137.440  0.00  0.00    +0.000 OA
ATOM     25  O   UNL     1     109.135 132.156 138.518  0.00  0.00    +0.000 OA
ATOM     26  O   UNL     1     110.627 131.670 139.029  0.00  0.00    +0.000 OA
ATOM     27  C   UNL     1     109.038 130.990 137.696  0.00  0.00    +0.000 C 
ATOM     28  C   UNL     1     109.459 131.452 138.234  0.00  0.00    +0.000 C 
ATOM     29  C   UNL     1     109.362 130.286 137.413  0.00  0.00    +0.000 C 
ATOM     30  C   UNL     1     110.205 131.208 138.490  0.00  0.00    +0.000 C 
ATOM     31  C   UNL     1     110.529 130.504 138.207  0.00  0.00    +0.000 C 
BRANCH  29  32
ATOM     32  C   UNL     1     108.939 129.825 136.874  0.00  0.00    +0.000 C 
BRANCH  32  33
ATOM     33  O   UNL     1     109.233 129.093 136.638  0.00  0.00    +0.000 OA
BRANCH  33  35
ATOM     34  O   UNL     1     108.102 128.882 135.791  0.00  0.00    +0.000 OA
ATOM     35  C   UNL     1     108.865 128.677 136.027  0.00  0.00    +0.000 C 
BRANCH  35  36
ATOM     36  C   UNL     1     109.260 128.057 135.654  0.00  0.00    +0.000 C 
ATOM     37  C   UNL     1     109.192 127.289 135.947  0.00  0.00    +0.000 C 
ATOM     38  C   UNL     1     109.722 128.204 134.986  0.00  0.00    +0.000 C 
ATOM     39  C   UNL     1     110.117 127.584 134.612  0.00  0.00    +0.000 C 
ENDBRANCH  35  36
ENDBRANCH  33  35
ENDBRANCH  32  33
ENDBRANCH  29  32
ENDBRANCH  22  31
ENDBRANCH   5  22
TORSDOF 7
ENDMDL
MODEL 3
REMARK VINA RESULT:      -9.7      1.697      2.513
REMARK  Name = 44259135
REMARK  7 active torsions:
REMARK  status: ('A' for Active; 'I' for Inactive)
REMARK    1  A    between atoms: O_3  and  C_18
REMARK    2  A    between atoms: O_3  and  C_20
REMARK    3  A    between atoms: O_6  and  C_19
REMARK    4  A    between atoms: O_6  and  C_24
REMARK    5  A    between atoms: C_16  and  C_19
REMARK    6  A    between atoms: C_24  and  C_27
REMARK    7  A    between atoms: C_29  and  C_31
REMARK                            x       y       z     vdW  Elec       q    Type
REMARK                         _______ _______ _______ _____ _____    ______ ____
ROOT
ATOM      1  O   UNL     1     112.102 126.690 136.235  0.00  0.00    +0.000 OA
ATOM      2  O   UNL     1     109.613 125.961 134.963  0.00  0.00    +0.000 OA
ATOM      3  O   UNL     1     110.507 124.954 135.480  0.00  0.00    +0.000 OA
ATOM      4  O   UNL     1     111.907 124.516 136.235  0.00  0.00    +0.000 OA
ATOM      5  C   UNL     1     110.511 127.979 135.339  0.00  0.00    +0.000 A 
ATOM      6  C   UNL     1     111.239 127.744 135.732  0.00  0.00    +0.000 A 
ATOM      7  C   UNL     1     109.958 127.376 135.077  0.00  0.00    +0.000 A 
ATOM      8  C   UNL     1     111.402 126.910 135.857  0.00  0.00    +0.000 A 
ATOM      9  C   UNL     1     110.871 126.331 135.606  0.00  0.00    +0.000 A 
ATOM     10  C   UNL     1     110.139 126.547 135.211  0.00  0.00    +0.000 A 
ATOM     11  C   UNL     1     111.039 125.534 135.732  0.00  0.00    +0.000 A 
ATOM     12  C   UNL     1     112.270 125.892 136.361  0.00  0.00    +0.000 A 
ATOM     13  C   UNL     1     111.739 125.314 136.109  0.00  0.00    +0.000 A 
ENDROOT
BRANCH  12  16
ATOM     14  O   UNL     1     115.035 125.178 136.229  0.00  0.00    +0.000 OA
ATOM     15  O   UNL     1     115.070 125.014 137.871  0.00  0.00    +0.000 OA
ATOM     16  C   UNL     1     112.970 125.673 136.739  0.00  0.00    +0.000 A 
ATOM     17  C   UNL     1     113.653 125.535 136.295  0.00  0.00    +0.000 A 
ATOM     18  C   UNL     1     112.988 125.591 137.559  0.00  0.00    +0.000 A 
ATOM     19  C   UNL     1     114.352 125.316 136.672  0.00  0.00    +0.000 A 
ATOM     20  C   UNL     1     113.688 125.371 137.936  0.00  0.00    +0.000 A 
ATOM     21  C   UNL     1     114.370 125.234 137.493  0.00  0.00    +0.000 A 
ENDBRANCH  12  16
BRANCH   5  22
ATOM     22  O   UNL     1     110.346 128.777 135.214  0.00  0.00    +0.000 OA
BRANCH  22  31
ATOM     23  O   UNL     1     109.908 129.069 136.543  0.00  0.00    +0.000 OA
ATOM     24  O   UNL     1     108.324 130.384 137.270  0.00  0.00    +0.000 OA
ATOM     25  O   UNL     1     108.188 130.603 135.640  0.00  0.00    +0.000 OA
ATOM     26  O   UNL     1     109.199 129.800 134.612  0.00  0.00    +0.000 OA
ATOM     27  C   UNL     1     108.830 129.982 136.755  0.00  0.00    +0.000 C 
ATOM     28  C   UNL     1     108.762 130.092 135.941  0.00  0.00    +0.000 C 
ATOM     29  C   UNL     1     109.403 129.471 137.057  0.00  0.00    +0.000 C 
ATOM     30  C   UNL     1     109.267 129.690 135.427  0.00  0.00    +0.000 C 
ATOM     31  C   UNL     1     109.841 129.179 135.728  0.00  0.00    +0.000 C 
BRANCH  29  32
ATOM     32  C   UNL     1     109.471 129.361 137.872  0.00  0.00    +0.000 C 
BRANCH  32  33
ATOM     33  O   UNL     1     109.539 128.601 138.182  0.00  0.00    +0.000 OA
BRANCH  33  35
ATOM     34  O   UNL     1     109.560 129.095 139.523  0.00  0.00    +0.000 OA
ATOM     35  C   UNL     1     109.722 128.495 138.980  0.00  0.00    +0.000 C 
BRANCH  35  36
ATOM     36  C   UNL     1     110.066 127.790 139.235  0.00  0.00    +0.000 C 
ATOM     37  C   UNL     1     110.804 127.801 139.603  0.00  0.00    +0.000 C 
ATOM     38  C   UNL     1     109.672 127.074 139.122  0.00  0.00    +0.000 C 
ATOM     39  C   UNL     1     110.016 126.369 139.377  0.00  0.00    +0.000 C 
ENDBRANCH  35  36
ENDBRANCH  33  35
ENDBRANCH  32  33
ENDBRANCH  29  32
ENDBRANCH  22  31
ENDBRANCH   5  22
TORSDOF 7
ENDMDL
MODEL 4
REMARK VINA RESULT:      -9.6      1.681      5.662
REMARK  Name = 44259135
REMARK  7 active torsions:
REMARK  status: ('A' for Active; 'I' for Inactive)
REMARK    1  A    between atoms: O_3  and  C_18
REMARK    2  A    between atoms: O_3  and  C_20
REMARK    3  A    between atoms: O_6  and  C_19
REMARK    4  A    between atoms: O_6  and  C_24
REMARK    5  A    between atoms: C_16  and  C_19
REMARK    6  A    between atoms: C_24  and  C_27
REMARK    7  A    between atoms: C_29  and  C_31
REMARK                            x       y       z     vdW  Elec       q    Type
REMARK                         _______ _______ _______ _____ _____    ______ ____
ROOT
ATOM      1  O   UNL     1     111.080 129.407 136.785  0.00  0.00    +0.000 OA
ATOM      2  O   UNL     1     113.524 128.445 135.583  0.00  0.00    +0.000 OA
ATOM      3  O   UNL     1     112.429 128.912 134.769  0.00  0.00    +0.000 OA
ATOM      4  O   UNL     1     110.910 129.535 134.612  0.00  0.00    +0.000 OA
ATOM      5  C   UNL     1     112.943 128.623 137.739  0.00  0.00    +0.000 A 
ATOM      6  C   UNL     1     112.151 128.947 137.650  0.00  0.00    +0.000 A 
ATOM      7  C   UNL     1     113.411 128.452 137.039  0.00  0.00    +0.000 A 
ATOM      8  C   UNL     1     111.840 129.096 136.864  0.00  0.00    +0.000 A 
ATOM      9  C   UNL     1     112.290 128.931 136.192  0.00  0.00    +0.000 A 
ATOM     10  C   UNL     1     113.082 128.606 136.261  0.00  0.00    +0.000 A 
ATOM     11  C   UNL     1     111.980 129.077 135.442  0.00  0.00    +0.000 A 
ATOM     12  C   UNL     1     110.770 129.554 136.034  0.00  0.00    +0.000 A 
ATOM     13  C   UNL     1     111.220 129.389 135.363  0.00  0.00    +0.000 A 
ENDROOT
BRANCH  12  16
ATOM     14  O   UNL     1     107.943 129.168 135.857  0.00  0.00    +0.000 OA
ATOM     15  O   UNL     1     107.730 130.798 135.718  0.00  0.00    +0.000 OA
ATOM     16  C   UNL     1     110.010 129.865 135.955  0.00  0.00    +0.000 A 
ATOM     17  C   UNL     1     109.357 129.360 135.946  0.00  0.00    +0.000 A 
ATOM     18  C   UNL     1     109.903 130.680 135.886  0.00  0.00    +0.000 A 
ATOM     19  C   UNL     1     108.597 129.672 135.867  0.00  0.00    +0.000 A 
ATOM     20  C   UNL     1     109.143 130.990 135.807  0.00  0.00    +0.000 A 
ATOM     21  C   UNL     1     108.490 130.487 135.797  0.00  0.00    +0.000 A 
ENDBRANCH  12  16
BRANCH   5  22
ATOM     22  O   UNL     1     113.250 128.478 138.491  0.00  0.00    +0.000 OA
BRANCH  22  31
ATOM     23  O   UNL     1     112.665 127.178 138.602  0.00  0.00    +0.000 OA
ATOM     24  O   UNL     1     111.988 126.060 140.350  0.00  0.00    +0.000 OA
ATOM     25  O   UNL     1     112.527 127.450 141.058  0.00  0.00    +0.000 OA
ATOM     26  O   UNL     1     113.157 128.659 140.128  0.00  0.00    +0.000 OA
ATOM     27  C   UNL     1     112.304 126.665 139.884  0.00  0.00    +0.000 C 
ATOM     28  C   UNL     1     112.573 127.360 140.239  0.00  0.00    +0.000 C 
ATOM     29  C   UNL     1     112.350 126.574 139.066  0.00  0.00    +0.000 C 
ATOM     30  C   UNL     1     112.888 127.964 139.774  0.00  0.00    +0.000 C 
ATOM     31  C   UNL     1     112.935 127.874 138.955  0.00  0.00    +0.000 C 
BRANCH  29  32
ATOM     32  C   UNL     1     112.080 125.879 138.712  0.00  0.00    +0.000 C 
BRANCH  32  33
ATOM     33  O   UNL     1     111.700 125.908 137.982  0.00  0.00    +0.000 OA
BRANCH  33  35
ATOM     34  O   UNL     1     111.463 124.499 138.010  0.00  0.00    +0.000 OA
ATOM     35  C   UNL     1     111.503 125.209 137.590  0.00  0.00    +0.000 C 
BRANCH  35  36
ATOM     36  C   UNL     1     111.345 125.218 136.781  0.00  0.00    +0.000 C 
ATOM     37  C   UNL     1     111.861 124.847 136.256  0.00  0.00    +0.000 C 
ATOM     38  C   UNL     1     110.671 125.600 136.496  0.00  0.00    +0.000 C 
ATOM     39  C   UNL     1     110.514 125.610 135.687  0.00  0.00    +0.000 C 
ENDBRANCH  35  36
ENDBRANCH  33  35
ENDBRANCH  32  33
ENDBRANCH  29  32
ENDBRANCH  22  31
ENDBRANCH   5  22
TORSDOF 7
ENDMDL
MODEL 5
REMARK VINA RESULT:      -9.6      7.495     10.265
REMARK  Name = 44259135
REMARK  7 active torsions:
REMARK  status: ('A' for Active; 'I' for Inactive)
REMARK    1  A    between atoms: O_3  and  C_18
REMARK    2  A    between atoms: O_3  and  C_20
REMARK    3  A    between atoms: O_6  and  C_19
REMARK    4  A    between atoms: O_6  and  C_24
REMARK    5  A    between atoms: C_16  and  C_19
REMARK    6  A    between atoms: C_24  and  C_27
REMARK    7  A    between atoms: C_29  and  C_31
REMARK                            x       y       z     vdW  Elec       q    Type
REMARK                         _______ _______ _______ _____ _____    ______ ____
ROOT
ATOM      1  O   UNL     1     104.940 127.717 142.521  0.00  0.00    +0.000 OA
ATOM      2  O   UNL     1     107.760 127.224 142.133  0.00  0.00    +0.000 OA
ATOM      3  O   UNL     1     107.146 128.442 141.664  0.00  0.00    +0.000 OA
ATOM      4  O   UNL     1     105.828 129.415 141.476  0.00  0.00    +0.000 OA
ATOM      5  C   UNL     1     106.191 125.962 143.114  0.00  0.00    +0.000 A 
ATOM      6  C   UNL     1     105.507 126.474 143.013  0.00  0.00    +0.000 A 
ATOM      7  C   UNL     1     106.956 126.214 142.817  0.00  0.00    +0.000 A 
ATOM      8  C   UNL     1     105.599 127.230 142.616  0.00  0.00    +0.000 A 
ATOM      9  C   UNL     1     106.335 127.471 142.330  0.00  0.00    +0.000 A 
ATOM     10  C   UNL     1     107.029 126.973 142.422  0.00  0.00    +0.000 A 
ATOM     11  C   UNL     1     106.411 128.200 141.950  0.00  0.00    +0.000 A 
ATOM     12  C   UNL     1     105.016 128.445 142.141  0.00  0.00    +0.000 A 
ATOM     13  C   UNL     1     105.752 128.687 141.856  0.00  0.00    +0.000 A 
ENDROOT
BRANCH  12  16
ATOM     14  O   UNL     1     102.763 129.289 140.598  0.00  0.00    +0.000 OA
ATOM     15  O   UNL     1     102.379 130.393 141.763  0.00  0.00    +0.000 OA
ATOM     16  C   UNL     1     104.357 128.932 142.047  0.00  0.00    +0.000 A 
ATOM     17  C   UNL     1     103.890 128.867 141.370  0.00  0.00    +0.000 A 
ATOM     18  C   UNL     1     104.165 129.484 142.629  0.00  0.00    +0.000 A 
ATOM     19  C   UNL     1     103.230 129.354 141.275  0.00  0.00    +0.000 A 
ATOM     20  C   UNL     1     103.506 129.970 142.534  0.00  0.00    +0.000 A 
ATOM     21  C   UNL     1     103.038 129.906 141.858  0.00  0.00    +0.000 A 
ENDBRANCH  12  16
BRANCH   5  22
ATOM     22  O   UNL     1     106.112 125.234 143.494  0.00  0.00    +0.000 OA
BRANCH  22  31
ATOM     23  O   UNL     1     106.415 125.748 144.793  0.00  0.00    +0.000 OA
ATOM     24  O   UNL     1     105.748 125.116 146.772  0.00  0.00    +0.000 OA
ATOM     25  O   UNL     1     104.959 124.028 145.815  0.00  0.00    +0.000 OA
ATOM     26  O   UNL     1     105.141 124.087 144.176  0.00  0.00    +0.000 OA
ATOM     27  C   UNL     1     105.839 125.145 145.952  0.00  0.00    +0.000 C 
ATOM     28  C   UNL     1     105.445 124.601 145.474  0.00  0.00    +0.000 C 
ATOM     29  C   UNL     1     106.325 125.719 145.611  0.00  0.00    +0.000 C 
ATOM     30  C   UNL     1     105.536 124.631 144.654  0.00  0.00    +0.000 C 
ATOM     31  C   UNL     1     106.021 125.204 144.313  0.00  0.00    +0.000 C 
BRANCH  29  32
ATOM     32  C   UNL     1     106.719 126.263 146.091  0.00  0.00    +0.000 C 
BRANCH  32  33
ATOM     33  O   UNL     1     106.585 127.070 145.995  0.00  0.00    +0.000 OA
BRANCH  33  35
ATOM     34  O   UNL     1     107.768 127.361 146.742  0.00  0.00    +0.000 OA
ATOM     35  C   UNL     1     107.134 127.617 146.280  0.00  0.00    +0.000 C 
BRANCH  35  36
ATOM     36  C   UNL     1     107.050 128.418 146.103  0.00  0.00    +0.000 C 
ATOM     37  C   UNL     1     106.425 128.848 146.427  0.00  0.00    +0.000 C 
ATOM     38  C   UNL     1     107.590 128.789 145.602  0.00  0.00    +0.000 C 
ATOM     39  C   UNL     1     107.505 129.590 145.425  0.00  0.00    +0.000 C 
ENDBRANCH  35  36
ENDBRANCH  33  35
ENDBRANCH  32  33
ENDBRANCH  29  32
ENDBRANCH  22  31
ENDBRANCH   5  22
TORSDOF 7
ENDMDL
MODEL 6
REMARK VINA RESULT:      -9.6      1.440      2.264
REMARK  Name = 44259135
REMARK  7 active torsions:
REMARK  status: ('A' for Active; 'I' for Inactive)
REMARK    1  A    between atoms: O_3  and  C_18
REMARK    2  A    between atoms: O_3  and  C_20
REMARK    3  A    between atoms: O_6  and  C_19
REMARK    4  A    between atoms: O_6  and  C_24
REMARK    5  A    between atoms: C_16  and  C_19
REMARK    6  A    between atoms: C_24  and  C_27
REMARK    7  A    between atoms: C_29  and  C_31
REMARK                            x       y       z     vdW  Elec       q    Type
REMARK                         _______ _______ _______ _____ _____    ______ ____
ROOT
ATOM      1  O   UNL     1     110.379 126.722 138.057  0.00  0.00    +0.000 OA
ATOM      2  O   UNL     1     110.507 125.253 135.573  0.00  0.00    +0.000 OA
ATOM      3  O   UNL     1     111.216 124.798 136.743  0.00  0.00    +0.000 OA
ATOM      4  O   UNL     1     111.649 124.968 138.326  0.00  0.00    +0.000 OA
ATOM      5  C   UNL     1     109.416 127.142 136.084  0.00  0.00    +0.000 A 
ATOM      6  C   UNL     1     109.646 127.224 136.908  0.00  0.00    +0.000 A 
ATOM      7  C   UNL     1     109.707 126.474 135.628  0.00  0.00    +0.000 A 
ATOM      8  C   UNL     1     110.162 126.638 137.265  0.00  0.00    +0.000 A 
ATOM      9  C   UNL     1     110.441 125.997 136.827  0.00  0.00    +0.000 A 
ATOM     10  C   UNL     1     110.223 125.897 136.003  0.00  0.00    +0.000 A 
ATOM     11  C   UNL     1     110.937 125.440 137.181  0.00  0.00    +0.000 A 
ATOM     12  C   UNL     1     110.875 126.165 138.410  0.00  0.00    +0.000 A 
ATOM     13  C   UNL     1     111.154 125.524 137.972  0.00  0.00    +0.000 A 
ENDROOT
BRANCH  12  16
ATOM     14  O   UNL     1     110.279 125.844 141.187  0.00  0.00    +0.000 OA
ATOM     15  O   UNL     1     111.741 126.503 141.577  0.00  0.00    +0.000 OA
ATOM     16  C   UNL     1     111.092 126.250 139.202  0.00  0.00    +0.000 A 
ATOM     17  C   UNL     1     110.577 126.004 139.799  0.00  0.00    +0.000 A 
ATOM     18  C   UNL     1     111.823 126.579 139.397  0.00  0.00    +0.000 A 
ATOM     19  C   UNL     1     110.794 126.089 140.590  0.00  0.00    +0.000 A 
ATOM     20  C   UNL     1     112.038 126.663 140.188  0.00  0.00    +0.000 A 
ATOM     21  C   UNL     1     111.524 126.418 140.785  0.00  0.00    +0.000 A 
ENDBRANCH  12  16
BRANCH   5  22
ATOM     22  O   UNL     1     108.920 127.700 135.733  0.00  0.00    +0.000 OA
BRANCH  22  31
ATOM     23  O   UNL     1     109.996 128.580 135.402  0.00  0.00    +0.000 OA
ATOM     24  O   UNL     1     110.037 130.744 135.118  0.00  0.00    +0.000 OA
ATOM     25  O   UNL     1     108.443 130.506 135.473  0.00  0.00    +0.000 OA
ATOM     26  O   UNL     1     107.885 128.983 135.780  0.00  0.00    +0.000 OA
ATOM     27  C   UNL     1     109.758 129.982 135.272  0.00  0.00    +0.000 C 
ATOM     28  C   UNL     1     108.961 129.864 135.449  0.00  0.00    +0.000 C 
ATOM     29  C   UNL     1     110.275 129.340 135.248  0.00  0.00    +0.000 C 
ATOM     30  C   UNL     1     108.682 129.102 135.603  0.00  0.00    +0.000 C 
ATOM     31  C   UNL     1     109.199 128.460 135.579  0.00  0.00    +0.000 C 
BRANCH  29  32
ATOM     32  C   UNL     1     111.072 129.460 135.071  0.00  0.00    +0.000 C 
BRANCH  32  33
ATOM     33  O   UNL     1     111.652 129.275 135.628  0.00  0.00    +0.000 OA
BRANCH  33  35
ATOM     34  O   UNL     1     112.657 129.292 134.612  0.00  0.00    +0.000 OA
ATOM     35  C   UNL     1     112.424 129.116 135.384  0.00  0.00    +0.000 C 
BRANCH  35  36
ATOM     36  C   UNL     1     112.962 128.781 135.910  0.00  0.00    +0.000 C 
ATOM     37  C   UNL     1     113.189 129.194 136.587  0.00  0.00    +0.000 C 
ATOM     38  C   UNL     1     113.275 128.032 135.761  0.00  0.00    +0.000 C 
ATOM     39  C   UNL     1     113.813 127.696 136.287  0.00  0.00    +0.000 C 
ENDBRANCH  35  36
ENDBRANCH  33  35
ENDBRANCH  32  33
ENDBRANCH  29  32
ENDBRANCH  22  31
ENDBRANCH   5  22
TORSDOF 7
ENDMDL
MODEL 7
REMARK VINA RESULT:      -9.6      1.806      3.771
REMARK  Name = 44259135
REMARK  7 active torsions:
REMARK  status: ('A' for Active; 'I' for Inactive)
REMARK    1  A    between atoms: O_3  and  C_18
REMARK    2  A    between atoms: O_3  and  C_20
REMARK    3  A    between atoms: O_6  and  C_19
REMARK    4  A    between atoms: O_6  and  C_24
REMARK    5  A    between atoms: C_16  and  C_19
REMARK    6  A    between atoms: C_24  and  C_27
REMARK    7  A    between atoms: C_29  and  C_31
REMARK                            x       y       z     vdW  Elec       q    Type
REMARK                         _______ _______ _______ _____ _____    ______ ____
ROOT
ATOM      1  O   UNL     1     111.881 126.908 135.919  0.00  0.00    +0.000 OA
ATOM      2  O   UNL     1     110.129 128.805 134.621  0.00  0.00    +0.000 OA
ATOM      3  O   UNL     1     109.635 127.532 135.086  0.00  0.00    +0.000 OA
ATOM      4  O   UNL     1     109.868 126.070 135.814  0.00  0.00    +0.000 OA
ATOM      5  C   UNL     1     112.315 128.939 135.092  0.00  0.00    +0.000 A 
ATOM      6  C   UNL     1     112.430 128.176 135.471  0.00  0.00    +0.000 A 
ATOM      7  C   UNL     1     111.535 129.155 134.803  0.00  0.00    +0.000 A 
ATOM      8  C   UNL     1     111.764 127.640 135.555  0.00  0.00    +0.000 A 
ATOM      9  C   UNL     1     111.016 127.848 135.277  0.00  0.00    +0.000 A 
ATOM     10  C   UNL     1     110.882 128.606 134.896  0.00  0.00    +0.000 A 
ATOM     11  C   UNL     1     110.384 127.324 135.363  0.00  0.00    +0.000 A 
ATOM     12  C   UNL     1     111.249 126.385 136.005  0.00  0.00    +0.000 A 
ATOM     13  C   UNL     1     110.500 126.593 135.728  0.00  0.00    +0.000 A 
ENDROOT
BRANCH  12  16
ATOM     14  O   UNL     1     111.339 124.786 138.372  0.00  0.00    +0.000 OA
ATOM     15  O   UNL     1     111.714 123.462 137.463  0.00  0.00    +0.000 OA
ATOM     16  C   UNL     1     111.365 125.654 136.370  0.00  0.00    +0.000 A 
ATOM     17  C   UNL     1     111.294 125.586 137.189  0.00  0.00    +0.000 A 
ATOM     18  C   UNL     1     111.553 124.992 135.915  0.00  0.00    +0.000 A 
ATOM     19  C   UNL     1     111.410 124.855 137.553  0.00  0.00    +0.000 A 
ATOM     20  C   UNL     1     111.669 124.262 136.280  0.00  0.00    +0.000 A 
ATOM     21  C   UNL     1     111.598 124.193 137.099  0.00  0.00    +0.000 A 
ENDBRANCH  12  16
BRANCH   5  22
ATOM     22  O   UNL     1     112.949 129.460 135.007  0.00  0.00    +0.000 OA
BRANCH  22  31
ATOM     23  O   UNL     1     112.673 130.294 136.133  0.00  0.00    +0.000 OA
ATOM     24  O   UNL     1     114.010 131.205 137.599  0.00  0.00    +0.000 OA
ATOM     25  O   UNL     1     115.093 130.409 136.641  0.00  0.00    +0.000 OA
ATOM     26  O   UNL     1     114.562 129.537 135.345  0.00  0.00    +0.000 OA
ATOM     27  C   UNL     1     113.744 130.769 136.950  0.00  0.00    +0.000 C 
ATOM     28  C   UNL     1     114.286 130.371 136.472  0.00  0.00    +0.000 C 
ATOM     29  C   UNL     1     112.938 130.730 136.781  0.00  0.00    +0.000 C 
ATOM     30  C   UNL     1     114.020 129.934 135.824  0.00  0.00    +0.000 C 
ATOM     31  C   UNL     1     113.214 129.896 135.654  0.00  0.00    +0.000 C 
BRANCH  29  32
ATOM     32  C   UNL     1     112.397 131.129 137.260  0.00  0.00    +0.000 C 
BRANCH  32  33
ATOM     33  O   UNL     1     111.785 131.564 136.919  0.00  0.00    +0.000 OA
BRANCH  33  35
ATOM     34  O   UNL     1     111.195 131.746 138.208  0.00  0.00    +0.000 OA
ATOM     35  C   UNL     1     111.182 131.869 137.392  0.00  0.00    +0.000 C 
BRANCH  35  36
ATOM     36  C   UNL     1     110.565 132.296 137.050  0.00  0.00    +0.000 C 
ATOM     37  C   UNL     1     110.651 133.104 136.909  0.00  0.00    +0.000 C 
ATOM     38  C   UNL     1     109.861 131.915 136.848  0.00  0.00    +0.000 C 
ATOM     39  C   UNL     1     109.244 132.342 136.506  0.00  0.00    +0.000 C 
ENDBRANCH  35  36
ENDBRANCH  33  35
ENDBRANCH  32  33
ENDBRANCH  29  32
ENDBRANCH  22  31
ENDBRANCH   5  22
TORSDOF 7
ENDMDL
MODEL 8
REMARK VINA RESULT:      -9.5      1.895      5.397
REMARK  Name = 44259135
REMARK  7 active torsions:
REMARK  status: ('A' for Active; 'I' for Inactive)
REMARK    1  A    between atoms: O_3  and  C_18
REMARK    2  A    between atoms: O_3  and  C_20
REMARK    3  A    between atoms: O_6  and  C_19
REMARK    4  A    between atoms: O_6  and  C_24
REMARK    5  A    between atoms: C_16  and  C_19
REMARK    6  A    between atoms: C_24  and  C_27
REMARK    7  A    between atoms: C_29  and  C_31
REMARK                            x       y       z     vdW  Elec       q    Type
REMARK                         _______ _______ _______ _____ _____    ______ ____
ROOT
ATOM      1  O   UNL     1     111.150 129.825 136.866  0.00  0.00    +0.000 OA
ATOM      2  O   UNL     1     113.551 128.642 135.778  0.00  0.00    +0.000 OA
ATOM      3  O   UNL     1     113.561 129.976 136.326  0.00  0.00    +0.000 OA
ATOM      4  O   UNL     1     112.795 131.249 137.043  0.00  0.00    +0.000 OA
ATOM      5  C   UNL     1     111.478 127.811 135.953  0.00  0.00    +0.000 A 
ATOM      6  C   UNL     1     111.084 128.478 136.326  0.00  0.00    +0.000 A 
ATOM      7  C   UNL     1     112.315 127.864 135.766  0.00  0.00    +0.000 A 
ATOM      8  C   UNL     1     111.533 129.188 136.507  0.00  0.00    +0.000 A 
ATOM      9  C   UNL     1     112.337 129.238 136.327  0.00  0.00    +0.000 A 
ATOM     10  C   UNL     1     112.747 128.582 135.954  0.00  0.00    +0.000 A 
ATOM     11  C   UNL     1     112.757 129.925 136.506  0.00  0.00    +0.000 A 
ATOM     12  C   UNL     1     111.571 130.512 137.044  0.00  0.00    +0.000 A 
ATOM     13  C   UNL     1     112.374 130.562 136.864  0.00  0.00    +0.000 A 
ENDROOT
BRANCH  12  16
ATOM     14  O   UNL     1     110.521 131.768 139.387  0.00  0.00    +0.000 OA
ATOM     15  O   UNL     1     110.039 133.058 138.479  0.00  0.00    +0.000 OA
ATOM     16  C   UNL     1     111.188 131.149 137.403  0.00  0.00    +0.000 A 
ATOM     17  C   UNL     1     111.046 131.139 138.216  0.00  0.00    +0.000 A 
ATOM     18  C   UNL     1     110.947 131.794 136.949  0.00  0.00    +0.000 A 
ATOM     19  C   UNL     1     110.663 131.776 138.575  0.00  0.00    +0.000 A 
ATOM     20  C   UNL     1     110.564 132.430 137.308  0.00  0.00    +0.000 A 
ATOM     21  C   UNL     1     110.422 132.422 138.121  0.00  0.00    +0.000 A 
ENDBRANCH  12  16
BRANCH   5  22
ATOM     22  O   UNL     1     111.055 127.125 135.775  0.00  0.00    +0.000 OA
BRANCH  22  31
ATOM     23  O   UNL     1     111.324 126.496 137.030  0.00  0.00    +0.000 OA
ATOM     24  O   UNL     1     111.531 124.387 137.554  0.00  0.00    +0.000 OA
ATOM     25  O   UNL     1     111.231 124.277 135.935  0.00  0.00    +0.000 OA
ATOM     26  O   UNL     1     110.993 125.647 135.046  0.00  0.00    +0.000 OA
ATOM     27  C   UNL     1     111.412 125.072 137.109  0.00  0.00    +0.000 C 
ATOM     28  C   UNL     1     111.262 125.017 136.300  0.00  0.00    +0.000 C 
ATOM     29  C   UNL     1     111.443 125.812 137.474  0.00  0.00    +0.000 C 
ATOM     30  C   UNL     1     111.143 125.702 135.855  0.00  0.00    +0.000 C 
ATOM     31  C   UNL     1     111.174 126.442 136.220  0.00  0.00    +0.000 C 
BRANCH  29  32
ATOM     32  C   UNL     1     111.592 125.866 138.284  0.00  0.00    +0.000 C 
BRANCH  32  33
ATOM     33  O   UNL     1     112.207 126.341 138.559  0.00  0.00    +0.000 OA
BRANCH  33  35
ATOM     34  O   UNL     1     111.753 126.167 139.902  0.00  0.00    +0.000 OA
ATOM     35  C   UNL     1     112.251 126.537 139.359  0.00  0.00    +0.000 C 
BRANCH  35  36
ATOM     36  C   UNL     1     112.793 127.103 139.616  0.00  0.00    +0.000 C 
ATOM     37  C   UNL     1     113.587 126.900 139.714  0.00  0.00    +0.000 C 
ATOM     38  C   UNL     1     112.542 127.873 139.777  0.00  0.00    +0.000 C 
ATOM     39  C   UNL     1     113.084 128.438 140.034  0.00  0.00    +0.000 C 
ENDBRANCH  35  36
ENDBRANCH  33  35
ENDBRANCH  32  33
ENDBRANCH  29  32
ENDBRANCH  22  31
ENDBRANCH   5  22
TORSDOF 7
ENDMDL
MODEL 9
REMARK VINA RESULT:      -9.5      2.135      5.727
REMARK  Name = 44259135
REMARK  7 active torsions:
REMARK  status: ('A' for Active; 'I' for Inactive)
REMARK    1  A    between atoms: O_3  and  C_18
REMARK    2  A    between atoms: O_3  and  C_20
REMARK    3  A    between atoms: O_6  and  C_19
REMARK    4  A    between atoms: O_6  and  C_24
REMARK    5  A    between atoms: C_16  and  C_19
REMARK    6  A    between atoms: C_24  and  C_27
REMARK    7  A    between atoms: C_29  and  C_31
REMARK                            x       y       z     vdW  Elec       q    Type
REMARK                         _______ _______ _______ _____ _____    ______ ____
ROOT
ATOM      1  O   UNL     1     111.310 129.690 136.966  0.00  0.00    +0.000 OA
ATOM      2  O   UNL     1     114.023 129.976 136.016  0.00  0.00    +0.000 OA
ATOM      3  O   UNL     1     112.983 129.472 135.154  0.00  0.00    +0.000 OA
ATOM      4  O   UNL     1     111.413 129.043 134.883  0.00  0.00    +0.000 OA
ATOM      5  C   UNL     1     113.136 130.427 138.023  0.00  0.00    +0.000 A 
ATOM      6  C   UNL     1     112.319 130.202 137.875  0.00  0.00    +0.000 A 
ATOM      7  C   UNL     1     113.716 130.352 137.394  0.00  0.00    +0.000 A 
ATOM      8  C   UNL     1     112.095 129.904 137.101  0.00  0.00    +0.000 A 
ATOM      9  C   UNL     1     112.653 129.832 136.498  0.00  0.00    +0.000 A 
ATOM     10  C   UNL     1     113.473 130.052 136.626  0.00  0.00    +0.000 A 
ATOM     11  C   UNL     1     112.425 129.545 135.759  0.00  0.00    +0.000 A 
ATOM     12  C   UNL     1     111.083 129.403 136.226  0.00  0.00    +0.000 A 
ATOM     13  C   UNL     1     111.640 129.330 135.623  0.00  0.00    +0.000 A 
ENDROOT
BRANCH  12  16
ATOM     14  O   UNL     1     108.413 130.116 135.498  0.00  0.00    +0.000 OA
ATOM     15  O   UNL     1     107.943 128.545 135.683  0.00  0.00    +0.000 OA
ATOM     16  C   UNL     1     110.298 129.188 136.091  0.00  0.00    +0.000 A 
ATOM     17  C   UNL     1     109.748 129.760 135.862  0.00  0.00    +0.000 A 
ATOM     18  C   UNL     1     110.063 128.403 136.183  0.00  0.00    +0.000 A 
ATOM     19  C   UNL     1     108.963 129.545 135.726  0.00  0.00    +0.000 A 
ATOM     20  C   UNL     1     109.278 128.189 136.047  0.00  0.00    +0.000 A 
ATOM     21  C   UNL     1     108.728 128.760 135.819  0.00  0.00    +0.000 A 
ENDBRANCH  12  16
BRANCH   5  22
ATOM     22  O   UNL     1     113.360 130.714 138.763  0.00  0.00    +0.000 OA
BRANCH  22  31
ATOM     23  O   UNL     1     113.429 129.426 139.377  0.00  0.00    +0.000 OA
ATOM     24  O   UNL     1     114.700 128.675 140.986  0.00  0.00    +0.000 OA
ATOM     25  O   UNL     1     115.232 130.233 140.869  0.00  0.00    +0.000 OA
ATOM     26  O   UNL     1     114.562 131.252 139.758  0.00  0.00    +0.000 OA
ATOM     27  C   UNL     1     114.364 129.185 140.430  0.00  0.00    +0.000 C 
ATOM     28  C   UNL     1     114.631 129.964 140.372  0.00  0.00    +0.000 C 
ATOM     29  C   UNL     1     113.764 128.916 139.933  0.00  0.00    +0.000 C 
ATOM     30  C   UNL     1     114.296 130.474 139.816  0.00  0.00    +0.000 C 
ATOM     31  C   UNL     1     113.695 130.205 139.318  0.00  0.00    +0.000 C 
BRANCH  29  32
ATOM     32  C   UNL     1     113.498 128.137 139.992  0.00  0.00    +0.000 C 
BRANCH  32  33
ATOM     33  O   UNL     1     113.536 127.637 139.337  0.00  0.00    +0.000 OA
BRANCH  33  35
ATOM     34  O   UNL     1     112.747 126.667 140.029  0.00  0.00    +0.000 OA
ATOM     35  C   UNL     1     113.137 126.915 139.345  0.00  0.00    +0.000 C 
BRANCH  35  36
ATOM     36  C   UNL     1     113.128 126.441 138.671  0.00  0.00    +0.000 C 
ATOM     37  C   UNL     1     113.800 126.010 138.461  0.00  0.00    +0.000 C 
ATOM     38  C   UNL     1     112.448 126.396 138.206  0.00  0.00    +0.000 C 
ATOM     39  C   UNL     1     112.439 125.921 137.532  0.00  0.00    +0.000 C 
ENDBRANCH  35  36
ENDBRANCH  33  35
ENDBRANCH  32  33
ENDBRANCH  29  32
ENDBRANCH  22  31
ENDBRANCH   5  22
TORSDOF 7
ENDMDL
MODEL 10
REMARK VINA RESULT:      -9.4      1.597      2.344
REMARK  Name = 44259135
REMARK  7 active torsions:
REMARK  status: ('A' for Active; 'I' for Inactive)
REMARK    1  A    between atoms: O_3  and  C_18
REMARK    2  A    between atoms: O_3  and  C_20
REMARK    3  A    between atoms: O_6  and  C_19
REMARK    4  A    between atoms: O_6  and  C_24
REMARK    5  A    between atoms: C_16  and  C_19
REMARK    6  A    between atoms: C_24  and  C_27
REMARK    7  A    between atoms: C_29  and  C_31
REMARK                            x       y       z     vdW  Elec       q    Type
REMARK                         _______ _______ _______ _____ _____    ______ ____
ROOT
ATOM      1  O   UNL     1     112.117 126.816 138.012  0.00  0.00    +0.000 OA
ATOM      2  O   UNL     1     109.612 126.326 139.365  0.00  0.00    +0.000 OA
ATOM      3  O   UNL     1     110.451 125.235 138.935  0.00  0.00    +0.000 OA
ATOM      4  O   UNL     1     111.819 124.663 138.211  0.00  0.00    +0.000 OA
ATOM      5  C   UNL     1     110.600 128.256 138.800  0.00  0.00    +0.000 A 
ATOM      6  C   UNL     1     111.311 127.951 138.424  0.00  0.00    +0.000 A 
ATOM      7  C   UNL     1     110.023 127.707 139.120  0.00  0.00    +0.000 A 
ATOM      8  C   UNL     1     111.434 127.102 138.374  0.00  0.00    +0.000 A 
ATOM      9  C   UNL     1     110.878 126.575 138.681  0.00  0.00    +0.000 A 
ATOM     10  C   UNL     1     110.162 126.861 139.061  0.00  0.00    +0.000 A 
ATOM     11  C   UNL     1     111.006 125.762 138.627  0.00  0.00    +0.000 A 
ATOM     12  C   UNL     1     112.246 126.002 137.958  0.00  0.00    +0.000 A 
ATOM     13  C   UNL     1     111.690 125.476 138.265  0.00  0.00    +0.000 A 
ENDROOT
BRANCH  12  16
ATOM     14  O   UNL     1     115.008 125.285 138.104  0.00  0.00    +0.000 OA
ATOM     15  O   UNL     1     114.981 124.856 136.511  0.00  0.00    +0.000 OA
ATOM     16  C   UNL     1     112.930 125.716 137.596  0.00  0.00    +0.000 A 
ATOM     17  C   UNL     1     113.627 125.644 138.031  0.00  0.00    +0.000 A 
ATOM     18  C   UNL     1     112.916 125.502 136.799  0.00  0.00    +0.000 A 
ATOM     19  C   UNL     1     114.311 125.357 137.670  0.00  0.00    +0.000 A 
ATOM     20  C   UNL     1     113.600 125.215 136.438  0.00  0.00    +0.000 A 
ATOM     21  C   UNL     1     114.297 125.143 136.873  0.00  0.00    +0.000 A 
ENDBRANCH  12  16
BRANCH   5  22
ATOM     22  O   UNL     1     110.475 129.069 138.853  0.00  0.00    +0.000 OA
BRANCH  22  31
ATOM     23  O   UNL     1     109.961 129.215 137.527  0.00  0.00    +0.000 OA
ATOM     24  O   UNL     1     108.450 130.568 136.721  0.00  0.00    +0.000 OA
ATOM     25  O   UNL     1     108.465 131.026 138.306  0.00  0.00    +0.000 OA
ATOM     26  O   UNL     1     109.477 130.277 139.372  0.00  0.00    +0.000 OA
ATOM     27  C   UNL     1     108.957 130.193 137.254  0.00  0.00    +0.000 C 
ATOM     28  C   UNL     1     108.963 130.422 138.046  0.00  0.00    +0.000 C 
ATOM     29  C   UNL     1     109.455 129.589 136.995  0.00  0.00    +0.000 C 
ATOM     30  C   UNL     1     109.470 130.047 138.580  0.00  0.00    +0.000 C 
ATOM     31  C   UNL     1     109.969 129.443 138.320  0.00  0.00    +0.000 C 
BRANCH  29  32
ATOM     32  C   UNL     1     109.448 129.360 136.202  0.00  0.00    +0.000 C 
BRANCH  32  33
ATOM     33  O   UNL     1     109.534 128.566 136.000  0.00  0.00    +0.000 OA
BRANCH  33  35
ATOM     34  O   UNL     1     109.571 128.902 134.612  0.00  0.00    +0.000 OA
ATOM     35  C   UNL     1     109.678 128.351 135.217  0.00  0.00    +0.000 C 
BRANCH  35  36
ATOM     36  C   UNL     1     109.930 127.587 135.037  0.00  0.00    +0.000 C 
ATOM     37  C   UNL     1     110.652 127.469 134.655  0.00  0.00    +0.000 C 
ATOM     38  C   UNL     1     109.460 126.939 135.239  0.00  0.00    +0.000 C 
ATOM     39  C   UNL     1     109.712 126.175 135.060  0.00  0.00    +0.000 C 
ENDBRANCH  35  36
ENDBRANCH  33  35
ENDBRANCH  32  33
ENDBRANCH  29  32
ENDBRANCH  22  31
ENDBRANCH   5  22
TORSDOF 7
ENDMDL
