MODEL 1
REMARK VINA RESULT:      -8.9      0.000      0.000
REMARK  Name = 676152
REMARK  2 active torsions:
REMARK  status: ('A' for Active; 'I' for Inactive)
REMARK    1  A    between atoms: O_4  and  C_21
REMARK    2  A    between atoms: C_7  and  C_9
REMARK                            x       y       z     vdW  Elec       q    Type
REMARK                         _______ _______ _______ _____ _____    ______ ____
ROOT
ATOM      1  O   UNL     1     105.554 124.422 147.786  0.00  0.00    +0.000 OA
ATOM      2  O   UNL     1     106.922 125.565 146.069  0.00  0.00    +0.000 OA
ATOM      3  O   UNL     1     108.067 125.573 146.947  0.00  0.00    +0.000 OA
ATOM      4  O   UNL     1     107.822 124.404 149.611  0.00  0.00    +0.000 OA
ATOM      5  C   UNL     1     105.222 124.614 147.055  0.00  0.00    +0.000 C 
ATOM      6  C   UNL     1     105.678 124.995 146.483  0.00  0.00    +0.000 C 
ATOM      7  C   UNL     1     106.797 124.991 147.372  0.00  0.00    +0.000 A 
ATOM      8  C   UNL     1     106.466 125.184 146.641  0.00  0.00    +0.000 C 
ATOM      9  C   UNL     1     106.340 124.610 147.944  0.00  0.00    +0.000 A 
ATOM     10  C   UNL     1     107.619 125.193 147.525  0.00  0.00    +0.000 A 
ATOM     11  C   UNL     1     106.674 124.404 148.709  0.00  0.00    +0.000 A 
ATOM     12  C   UNL     1     107.969 124.995 148.283  0.00  0.00    +0.000 A 
ATOM     13  C   UNL     1     107.494 124.597 148.880  0.00  0.00    +0.000 A 
ENDROOT
BRANCH   5  15
ATOM     14  O   UNL     1     103.283 122.905 145.835  0.00  0.00    +0.000 OA
ATOM     15  C   UNL     1     104.435 124.426 146.897  0.00  0.00    +0.000 A 
ATOM     16  C   UNL     1     104.253 123.760 146.446  0.00  0.00    +0.000 A 
ATOM     17  C   UNL     1     103.829 124.904 147.189  0.00  0.00    +0.000 A 
ATOM     18  C   UNL     1     103.465 123.571 146.287  0.00  0.00    +0.000 A 
ATOM     19  C   UNL     1     103.042 124.716 147.031  0.00  0.00    +0.000 A 
ATOM     20  C   UNL     1     102.860 124.049 146.579  0.00  0.00    +0.000 A 
BRANCH  20  21
ATOM     21  O   UNL     1     102.072 123.860 146.421  0.00  0.00    +0.000 OA
ATOM     22  C   UNL     1     101.466 124.297 146.770  0.00  0.00    +0.000 C 
ENDBRANCH  20  21
ENDBRANCH   5  15
TORSDOF 2
ENDMDL
MODEL 2
REMARK VINA RESULT:      -8.6      7.363      8.356
REMARK  Name = 676152
REMARK  2 active torsions:
REMARK  status: ('A' for Active; 'I' for Inactive)
REMARK    1  A    between atoms: O_4  and  C_21
REMARK    2  A    between atoms: C_7  and  C_9
REMARK                            x       y       z     vdW  Elec       q    Type
REMARK                         _______ _______ _______ _____ _____    ______ ____
ROOT
ATOM      1  O   UNL     1     104.518 124.627 139.343  0.00  0.00    +0.000 OA
ATOM      2  O   UNL     1     105.937 122.846 140.313  0.00  0.00    +0.000 OA
ATOM      3  O   UNL     1     106.508 123.776 141.256  0.00  0.00    +0.000 OA
ATOM      4  O   UNL     1     105.627 126.559 141.218  0.00  0.00    +0.000 OA
ATOM      5  C   UNL     1     104.479 123.859 139.042  0.00  0.00    +0.000 C 
ATOM      6  C   UNL     1     104.952 123.266 139.366  0.00  0.00    +0.000 C 
ATOM      7  C   UNL     1     105.502 124.207 140.289  0.00  0.00    +0.000 A 
ATOM      8  C   UNL     1     105.464 123.439 139.990  0.00  0.00    +0.000 C 
ATOM      9  C   UNL     1     105.029 124.801 139.966  0.00  0.00    +0.000 A 
ATOM     10  C   UNL     1     106.039 124.375 140.940  0.00  0.00    +0.000 A 
ATOM     11  C   UNL     1     105.060 125.604 140.270  0.00  0.00    +0.000 A 
ATOM     12  C   UNL     1     106.084 125.172 141.256  0.00  0.00    +0.000 A 
ATOM     13  C   UNL     1     105.591 125.791 140.919  0.00  0.00    +0.000 A 
ENDROOT
BRANCH   5  15
ATOM     14  O   UNL     1     101.823 123.589 138.022  0.00  0.00    +0.000 OA
ATOM     15  C   UNL     1     103.967 123.685 138.419  0.00  0.00    +0.000 A 
ATOM     16  C   UNL     1     103.151 123.724 138.533  0.00  0.00    +0.000 A 
ATOM     17  C   UNL     1     104.272 123.473 137.682  0.00  0.00    +0.000 A 
ATOM     18  C   UNL     1     102.639 123.550 137.909  0.00  0.00    +0.000 A 
ATOM     19  C   UNL     1     103.760 123.299 137.059  0.00  0.00    +0.000 A 
ATOM     20  C   UNL     1     102.944 123.337 137.173  0.00  0.00    +0.000 A 
BRANCH  20  21
ATOM     21  O   UNL     1     102.432 123.163 136.549  0.00  0.00    +0.000 OA
ATOM     22  C   UNL     1     102.727 122.828 135.856  0.00  0.00    +0.000 C 
ENDBRANCH  20  21
ENDBRANCH   5  15
TORSDOF 2
ENDMDL
MODEL 3
REMARK VINA RESULT:      -8.0      0.918      4.537
REMARK  Name = 676152
REMARK  2 active torsions:
REMARK  status: ('A' for Active; 'I' for Inactive)
REMARK    1  A    between atoms: O_4  and  C_21
REMARK    2  A    between atoms: C_7  and  C_9
REMARK                            x       y       z     vdW  Elec       q    Type
REMARK                         _______ _______ _______ _____ _____    ______ ____
ROOT
ATOM      1  O   UNL     1     104.313 124.127 146.623  0.00  0.00    +0.000 OA
ATOM      2  O   UNL     1     102.790 125.441 148.066  0.00  0.00    +0.000 OA
ATOM      3  O   UNL     1     101.640 124.774 147.507  0.00  0.00    +0.000 OA
ATOM      4  O   UNL     1     102.038 122.739 145.450  0.00  0.00    +0.000 OA
ATOM      5  C   UNL     1     104.621 124.684 147.149  0.00  0.00    +0.000 C 
ATOM      6  C   UNL     1     104.114 125.122 147.630  0.00  0.00    +0.000 C 
ATOM      7  C   UNL     1     102.991 124.446 147.060  0.00  0.00    +0.000 A 
ATOM      8  C   UNL     1     103.298 125.003 147.585  0.00  0.00    +0.000 C 
ATOM      9  C   UNL     1     103.499 124.008 146.579  0.00  0.00    +0.000 A 
ATOM     10  C   UNL     1     102.139 124.332 147.023  0.00  0.00    +0.000 A 
ATOM     11  C   UNL     1     103.190 123.425 146.027  0.00  0.00    +0.000 A 
ATOM     12  C   UNL     1     101.813 123.753 146.478  0.00  0.00    +0.000 A 
ATOM     13  C   UNL     1     102.342 123.297 145.977  0.00  0.00    +0.000 A 
ENDROOT
BRANCH   5  15
ATOM     14  O   UNL     1     107.076 125.489 145.925  0.00  0.00    +0.000 OA
ATOM     15  C   UNL     1     105.436 124.803 147.193  0.00  0.00    +0.000 A 
ATOM     16  C   UNL     1     105.848 125.086 146.537  0.00  0.00    +0.000 A 
ATOM     17  C   UNL     1     105.840 124.638 147.894  0.00  0.00    +0.000 A 
ATOM     18  C   UNL     1     106.664 125.205 146.582  0.00  0.00    +0.000 A 
ATOM     19  C   UNL     1     106.654 124.757 147.939  0.00  0.00    +0.000 A 
ATOM     20  C   UNL     1     107.066 125.041 147.283  0.00  0.00    +0.000 A 
BRANCH  20  21
ATOM     21  O   UNL     1     107.882 125.160 147.327  0.00  0.00    +0.000 OA
ATOM     22  C   UNL     1     108.284 124.997 148.028  0.00  0.00    +0.000 C 
ENDBRANCH  20  21
ENDBRANCH   5  15
TORSDOF 2
ENDMDL
MODEL 4
REMARK VINA RESULT:      -7.9     11.242     12.467
REMARK  Name = 676152
REMARK  2 active torsions:
REMARK  status: ('A' for Active; 'I' for Inactive)
REMARK    1  A    between atoms: O_4  and  C_21
REMARK    2  A    between atoms: C_7  and  C_9
REMARK                            x       y       z     vdW  Elec       q    Type
REMARK                         _______ _______ _______ _____ _____    ______ ____
ROOT
ATOM      1  O   UNL     1     112.030 125.891 136.535  0.00  0.00    +0.000 OA
ATOM      2  O   UNL     1     111.892 123.482 137.084  0.00  0.00    +0.000 OA
ATOM      3  O   UNL     1     113.330 123.369 137.077  0.00  0.00    +0.000 OA
ATOM      4  O   UNL     1     114.938 125.738 136.505  0.00  0.00    +0.000 OA
ATOM      5  C   UNL     1     111.293 125.532 136.632  0.00  0.00    +0.000 C 
ATOM      6  C   UNL     1     111.247 124.729 136.815  0.00  0.00    +0.000 C 
ATOM      7  C   UNL     1     112.674 124.644 136.803  0.00  0.00    +0.000 A 
ATOM      8  C   UNL     1     111.938 124.285 136.901  0.00  0.00    +0.000 C 
ATOM      9  C   UNL     1     112.720 125.448 136.620  0.00  0.00    +0.000 A 
ATOM     10  C   UNL     1     113.386 124.171 136.895  0.00  0.00    +0.000 A 
ATOM     11  C   UNL     1     113.481 125.833 136.516  0.00  0.00    +0.000 A 
ATOM     12  C   UNL     1     114.155 124.539 136.794  0.00  0.00    +0.000 A 
ATOM     13  C   UNL     1     114.203 125.376 136.603  0.00  0.00    +0.000 A 
ENDROOT
BRANCH   5  15
ATOM     14  O   UNL     1     109.103 126.951 137.798  0.00  0.00    +0.000 OA
ATOM     15  C   UNL     1     110.603 125.975 136.547  0.00  0.00    +0.000 A 
ATOM     16  C   UNL     1     110.199 126.241 137.215  0.00  0.00    +0.000 A 
ATOM     17  C   UNL     1     110.317 126.154 135.794  0.00  0.00    +0.000 A 
ATOM     18  C   UNL     1     109.508 126.685 137.130  0.00  0.00    +0.000 A 
ATOM     19  C   UNL     1     109.627 126.597 135.709  0.00  0.00    +0.000 A 
ATOM     20  C   UNL     1     109.223 126.863 136.377  0.00  0.00    +0.000 A 
BRANCH  20  21
ATOM     21  O   UNL     1     108.532 127.307 136.292  0.00  0.00    +0.000 OA
ATOM     22  C   UNL     1     108.483 127.883 135.704  0.00  0.00    +0.000 C 
ENDBRANCH  20  21
ENDBRANCH   5  15
TORSDOF 2
ENDMDL
MODEL 5
REMARK VINA RESULT:      -7.8     11.292     12.699
REMARK  Name = 676152
REMARK  2 active torsions:
REMARK  status: ('A' for Active; 'I' for Inactive)
REMARK    1  A    between atoms: O_4  and  C_21
REMARK    2  A    between atoms: C_7  and  C_9
REMARK                            x       y       z     vdW  Elec       q    Type
REMARK                         _______ _______ _______ _____ _____    ______ ____
ROOT
ATOM      1  O   UNL     1     110.570 127.362 136.205  0.00  0.00    +0.000 OA
ATOM      2  O   UNL     1     108.097 127.288 136.120  0.00  0.00    +0.000 OA
ATOM      3  O   UNL     1     108.042 128.666 135.701  0.00  0.00    +0.000 OA
ATOM      4  O   UNL     1     110.535 130.148 135.360  0.00  0.00    +0.000 OA
ATOM      5  C   UNL     1     110.172 126.665 136.398  0.00  0.00    +0.000 C 
ATOM      6  C   UNL     1     109.348 126.640 136.370  0.00  0.00    +0.000 C 
ATOM      7  C   UNL     1     109.321 128.008 135.955  0.00  0.00    +0.000 A 
ATOM      8  C   UNL     1     108.922 127.312 136.148  0.00  0.00    +0.000 C 
ATOM      9  C   UNL     1     110.145 128.032 135.983  0.00  0.00    +0.000 A 
ATOM     10  C   UNL     1     108.865 128.701 135.726  0.00  0.00    +0.000 A 
ATOM     11  C   UNL     1     110.572 128.752 135.784  0.00  0.00    +0.000 A 
ATOM     12  C   UNL     1     109.275 129.428 135.524  0.00  0.00    +0.000 A 
ATOM     13  C   UNL     1     110.134 129.454 135.553  0.00  0.00    +0.000 A 
ENDROOT
BRANCH   5  15
ATOM     14  O   UNL     1     111.294 125.008 138.438  0.00  0.00    +0.000 OA
ATOM     15  C   UNL     1     110.597 125.994 136.619  0.00  0.00    +0.000 A 
ATOM     16  C   UNL     1     110.733 125.837 137.418  0.00  0.00    +0.000 A 
ATOM     17  C   UNL     1     110.887 125.480 136.043  0.00  0.00    +0.000 A 
ATOM     18  C   UNL     1     111.158 125.165 137.640  0.00  0.00    +0.000 A 
ATOM     19  C   UNL     1     111.312 124.809 136.264  0.00  0.00    +0.000 A 
ATOM     20  C   UNL     1     111.447 124.652 137.062  0.00  0.00    +0.000 A 
BRANCH  20  21
ATOM     21  O   UNL     1     111.873 123.980 137.284  0.00  0.00    +0.000 OA
ATOM     22  C   UNL     1     112.227 123.508 136.708  0.00  0.00    +0.000 C 
ENDBRANCH  20  21
ENDBRANCH   5  15
TORSDOF 2
ENDMDL
MODEL 6
REMARK VINA RESULT:      -7.8      8.110      8.971
REMARK  Name = 676152
REMARK  2 active torsions:
REMARK  status: ('A' for Active; 'I' for Inactive)
REMARK    1  A    between atoms: O_4  and  C_21
REMARK    2  A    between atoms: C_7  and  C_9
REMARK                            x       y       z     vdW  Elec       q    Type
REMARK                         _______ _______ _______ _____ _____    ______ ____
ROOT
ATOM      1  O   UNL     1     103.299 130.298 141.987  0.00  0.00    +0.000 OA
ATOM      2  O   UNL     1     102.793 129.012 139.933  0.00  0.00    +0.000 OA
ATOM      3  O   UNL     1     103.704 127.967 140.330  0.00  0.00    +0.000 OA
ATOM      4  O   UNL     1     105.155 128.227 142.850  0.00  0.00    +0.000 OA
ATOM      5  C   UNL     1     102.760 130.595 141.437  0.00  0.00    +0.000 C 
ATOM      6  C   UNL     1     102.591 130.167 140.752  0.00  0.00    +0.000 C 
ATOM      7  C   UNL     1     103.500 129.145 141.168  0.00  0.00    +0.000 A 
ATOM      8  C   UNL     1     102.962 129.441 140.618  0.00  0.00    +0.000 C 
ATOM      9  C   UNL     1     103.669 129.574 141.853  0.00  0.00    +0.000 A 
ATOM     10  C   UNL     1     103.879 128.388 141.016  0.00  0.00    +0.000 A 
ATOM     11  C   UNL     1     104.228 129.276 142.433  0.00  0.00    +0.000 A 
ATOM     12  C   UNL     1     104.441 128.075 141.585  0.00  0.00    +0.000 A 
ATOM     13  C   UNL     1     104.617 128.521 142.299  0.00  0.00    +0.000 A 
ENDROOT
BRANCH   5  15
ATOM     14  O   UNL     1     100.710 132.130 142.706  0.00  0.00    +0.000 OA
ATOM     15  C   UNL     1     102.390 131.320 141.571  0.00  0.00    +0.000 A 
ATOM     16  C   UNL     1     101.735 131.362 142.071  0.00  0.00    +0.000 A 
ATOM     17  C   UNL     1     102.674 132.003 141.205  0.00  0.00    +0.000 A 
ATOM     18  C   UNL     1     101.365 132.088 142.206  0.00  0.00    +0.000 A 
ATOM     19  C   UNL     1     102.304 132.727 141.339  0.00  0.00    +0.000 A 
ATOM     20  C   UNL     1     101.650 132.770 141.839  0.00  0.00    +0.000 A 
BRANCH  20  21
ATOM     21  O   UNL     1     101.279 133.495 141.974  0.00  0.00    +0.000 OA
ATOM     22  C   UNL     1     101.553 134.174 141.594  0.00  0.00    +0.000 C 
ENDBRANCH  20  21
ENDBRANCH   5  15
TORSDOF 2
ENDMDL
MODEL 7
REMARK VINA RESULT:      -7.8      9.027     10.112
REMARK  Name = 676152
REMARK  2 active torsions:
REMARK  status: ('A' for Active; 'I' for Inactive)
REMARK    1  A    between atoms: O_4  and  C_21
REMARK    2  A    between atoms: C_7  and  C_9
REMARK                            x       y       z     vdW  Elec       q    Type
REMARK                         _______ _______ _______ _____ _____    ______ ____
ROOT
ATOM      1  O   UNL     1     102.818 131.995 141.196  0.00  0.00    +0.000 OA
ATOM      2  O   UNL     1     100.710 132.142 142.484  0.00  0.00    +0.000 OA
ATOM      3  O   UNL     1     100.710 133.580 142.373  0.00  0.00    +0.000 OA
ATOM      4  O   UNL     1     102.884 134.894 140.932  0.00  0.00    +0.000 OA
ATOM      5  C   UNL     1     102.456 131.307 141.472  0.00  0.00    +0.000 C 
ATOM      6  C   UNL     1     101.753 131.356 141.901  0.00  0.00    +0.000 C 
ATOM      7  C   UNL     1     101.776 132.779 141.777  0.00  0.00    +0.000 A 
ATOM      8  C   UNL     1     101.413 132.093 142.054  0.00  0.00    +0.000 C 
ATOM      9  C   UNL     1     102.479 132.730 141.348  0.00  0.00    +0.000 A 
ATOM     10  C   UNL     1     101.412 133.541 141.943  0.00  0.00    +0.000 A 
ATOM     11  C   UNL     1     102.867 133.439 141.054  0.00  0.00    +0.000 A 
ATOM     12  C   UNL     1     101.786 134.260 141.658  0.00  0.00    +0.000 A 
ATOM     13  C   UNL     1     102.518 134.208 141.210  0.00  0.00    +0.000 A 
ENDROOT
BRANCH   5  15
ATOM     14  O   UNL     1     102.731 129.008 139.796  0.00  0.00    +0.000 OA
ATOM     15  C   UNL     1     102.795 130.571 141.320  0.00  0.00    +0.000 A 
ATOM     16  C   UNL     1     102.593 130.158 140.634  0.00  0.00    +0.000 A 
ATOM     17  C   UNL     1     103.336 130.247 141.852  0.00  0.00    +0.000 A 
ATOM     18  C   UNL     1     102.933 129.421 140.481  0.00  0.00    +0.000 A 
ATOM     19  C   UNL     1     103.675 129.511 141.699  0.00  0.00    +0.000 A 
ATOM     20  C   UNL     1     103.473 129.098 141.014  0.00  0.00    +0.000 A 
BRANCH  20  21
ATOM     21  O   UNL     1     103.813 128.361 140.861  0.00  0.00    +0.000 OA
ATOM     22  C   UNL     1     104.397 128.065 141.363  0.00  0.00    +0.000 C 
ENDBRANCH  20  21
ENDBRANCH   5  15
TORSDOF 2
ENDMDL
MODEL 8
REMARK VINA RESULT:      -7.7     12.924     14.040
REMARK  Name = 676152
REMARK  2 active torsions:
REMARK  status: ('A' for Active; 'I' for Inactive)
REMARK    1  A    between atoms: O_4  and  C_21
REMARK    2  A    between atoms: C_7  and  C_9
REMARK                            x       y       z     vdW  Elec       q    Type
REMARK                         _______ _______ _______ _____ _____    ______ ____
ROOT
ATOM      1  O   UNL     1     112.830 126.472 136.370  0.00  0.00    +0.000 OA
ATOM      2  O   UNL     1     114.706 125.242 137.416  0.00  0.00    +0.000 OA
ATOM      3  O   UNL     1     113.993 123.995 137.295  0.00  0.00    +0.000 OA
ATOM      4  O   UNL     1     111.331 123.990 136.093  0.00  0.00    +0.000 OA
ATOM      5  C   UNL     1     113.506 126.879 136.610  0.00  0.00    +0.000 C 
ATOM      6  C   UNL     1     114.131 126.469 136.959  0.00  0.00    +0.000 C 
ATOM      7  C   UNL     1     113.404 125.247 136.827  0.00  0.00    +0.000 A 
ATOM      8  C   UNL     1     114.080 125.652 137.067  0.00  0.00    +0.000 C 
ATOM      9  C   UNL     1     112.778 125.656 136.478  0.00  0.00    +0.000 A 
ATOM     10  C   UNL     1     113.363 124.396 136.946  0.00  0.00    +0.000 A 
ATOM     11  C   UNL     1     112.068 125.244 136.224  0.00  0.00    +0.000 A 
ATOM     12  C   UNL     1     112.661 123.967 136.697  0.00  0.00    +0.000 A 
ATOM     13  C   UNL     1     112.009 124.394 136.334  0.00  0.00    +0.000 A 
ENDROOT
BRANCH   5  15
ATOM     14  O   UNL     1     114.324 129.120 135.036  0.00  0.00    +0.000 OA
ATOM     15  C   UNL     1     113.557 127.695 136.502  0.00  0.00    +0.000 A 
ATOM     16  C   UNL     1     113.915 127.999 135.823  0.00  0.00    +0.000 A 
ATOM     17  C   UNL     1     113.251 128.207 137.071  0.00  0.00    +0.000 A 
ATOM     18  C   UNL     1     113.967 128.816 135.714  0.00  0.00    +0.000 A 
ATOM     19  C   UNL     1     113.303 129.023 136.963  0.00  0.00    +0.000 A 
ATOM     20  C   UNL     1     113.660 129.327 136.284  0.00  0.00    +0.000 A 
BRANCH  20  21
ATOM     21  O   UNL     1     113.712 130.144 136.176  0.00  0.00    +0.000 OA
ATOM     22  C   UNL     1     113.467 130.655 136.775  0.00  0.00    +0.000 C 
ENDBRANCH  20  21
ENDBRANCH   5  15
TORSDOF 2
ENDMDL
MODEL 9
REMARK VINA RESULT:      -7.7     12.910     13.533
REMARK  Name = 676152
REMARK  2 active torsions:
REMARK  status: ('A' for Active; 'I' for Inactive)
REMARK    1  A    between atoms: O_4  and  C_21
REMARK    2  A    between atoms: C_7  and  C_9
REMARK                            x       y       z     vdW  Elec       q    Type
REMARK                         _______ _______ _______ _____ _____    ______ ____
ROOT
ATOM      1  O   UNL     1     112.982 126.631 136.560  0.00  0.00    +0.000 OA
ATOM      2  O   UNL     1     111.316 124.877 136.034  0.00  0.00    +0.000 OA
ATOM      3  O   UNL     1     112.234 123.843 136.445  0.00  0.00    +0.000 OA
ATOM      4  O   UNL     1     114.886 124.597 137.406  0.00  0.00    +0.000 OA
ATOM      5  C   UNL     1     112.240 126.842 136.266  0.00  0.00    +0.000 C 
ATOM      6  C   UNL     1     111.685 126.257 136.091  0.00  0.00    +0.000 C 
ATOM      7  C   UNL     1     112.613 125.252 136.504  0.00  0.00    +0.000 A 
ATOM      8  C   UNL     1     111.871 125.462 136.210  0.00  0.00    +0.000 C 
ATOM      9  C   UNL     1     113.168 125.837 136.679  0.00  0.00    +0.000 A 
ATOM     10  C   UNL     1     112.795 124.420 136.623  0.00  0.00    +0.000 A 
ATOM     11  C   UNL     1     113.944 125.630 136.986  0.00  0.00    +0.000 A 
ATOM     12  C   UNL     1     113.565 124.195 136.929  0.00  0.00    +0.000 A 
ATOM     13  C   UNL     1     114.144 124.804 137.112  0.00  0.00    +0.000 A 
ENDROOT
BRANCH   5  15
ATOM     14  O   UNL     1     112.280 129.172 134.613  0.00  0.00    +0.000 OA
ATOM     15  C   UNL     1     112.054 127.636 136.147  0.00  0.00    +0.000 A 
ATOM     16  C   UNL     1     112.260 128.006 135.440  0.00  0.00    +0.000 A 
ATOM     17  C   UNL     1     111.660 128.061 136.735  0.00  0.00    +0.000 A 
ATOM     18  C   UNL     1     112.074 128.802 135.320  0.00  0.00    +0.000 A 
ATOM     19  C   UNL     1     111.474 128.855 136.616  0.00  0.00    +0.000 A 
ATOM     20  C   UNL     1     111.681 129.225 135.909  0.00  0.00    +0.000 A 
BRANCH  20  21
ATOM     21  O   UNL     1     111.494 130.021 135.789  0.00  0.00    +0.000 OA
ATOM     22  C   UNL     1     111.140 130.456 136.394  0.00  0.00    +0.000 C 
ENDBRANCH  20  21
ENDBRANCH   5  15
TORSDOF 2
ENDMDL
MODEL 10
REMARK VINA RESULT:      -7.7      1.097      2.242
REMARK  Name = 676152
REMARK  2 active torsions:
REMARK  status: ('A' for Active; 'I' for Inactive)
REMARK    1  A    between atoms: O_4  and  C_21
REMARK    2  A    between atoms: C_7  and  C_9
REMARK                            x       y       z     vdW  Elec       q    Type
REMARK                         _______ _______ _______ _____ _____    ______ ____
ROOT
ATOM      1  O   UNL     1     104.474 124.537 146.334  0.00  0.00    +0.000 OA
ATOM      2  O   UNL     1     105.078 124.524 148.735  0.00  0.00    +0.000 OA
ATOM      3  O   UNL     1     106.387 125.052 148.437  0.00  0.00    +0.000 OA
ATOM      4  O   UNL     1     107.099 125.604 145.660  0.00  0.00    +0.000 OA
ATOM      5  C   UNL     1     103.929 124.273 146.895  0.00  0.00    +0.000 C 
ATOM      6  C   UNL     1     104.130 124.269 147.695  0.00  0.00    +0.000 C 
ATOM      7  C   UNL     1     105.421 124.792 147.373  0.00  0.00    +0.000 A 
ATOM      8  C   UNL     1     104.877 124.529 147.935  0.00  0.00    +0.000 C 
ATOM      9  C   UNL     1     105.219 124.797 146.573  0.00  0.00    +0.000 A 
ATOM     10  C   UNL     1     106.195 125.060 147.636  0.00  0.00    +0.000 A 
ATOM     11  C   UNL     1     105.778 125.069 145.979  0.00  0.00    +0.000 A 
ATOM     12  C   UNL     1     106.766 125.336 147.057  0.00  0.00    +0.000 A 
ATOM     13  C   UNL     1     106.556 125.340 146.222  0.00  0.00    +0.000 A 
ENDROOT
BRANCH   5  15
ATOM     14  O   UNL     1     101.088 124.586 146.877  0.00  0.00    +0.000 OA
ATOM     15  C   UNL     1     103.184 124.014 146.656  0.00  0.00    +0.000 A 
ATOM     16  C   UNL     1     102.509 124.430 146.886  0.00  0.00    +0.000 A 
ATOM     17  C   UNL     1     103.112 123.339 146.187  0.00  0.00    +0.000 A 
ATOM     18  C   UNL     1     101.763 124.170 146.647  0.00  0.00    +0.000 A 
ATOM     19  C   UNL     1     102.367 123.080 145.948  0.00  0.00    +0.000 A 
ATOM     20  C   UNL     1     101.692 123.495 146.178  0.00  0.00    +0.000 A 
BRANCH  20  21
ATOM     21  O   UNL     1     100.946 123.236 145.939  0.00  0.00    +0.000 OA
ATOM     22  C   UNL     1     100.873 122.739 145.285  0.00  0.00    +0.000 C 
ENDBRANCH  20  21
ENDBRANCH   5  15
TORSDOF 2
ENDMDL
