MODEL 1
REMARK VINA RESULT:      -8.5      0.000      0.000
REMARK  Name = 14375127
REMARK  8 active torsions:
REMARK  status: ('A' for Active; 'I' for Inactive)
REMARK    1  A    between atoms: O_2  and  C_19
REMARK    2  A    between atoms: O_2  and  C_21
REMARK    3  A    between atoms: O_9  and  C_27
REMARK    4  A    between atoms: O_10  and  C_28
REMARK    5  A    between atoms: O_11  and  C_29
REMARK    6  A    between atoms: O_13  and  C_33
REMARK    7  A    between atoms: C_18  and  C_20
REMARK    8  A    between atoms: C_22  and  C_26
REMARK                            x       y       z     vdW  Elec       q    Type
REMARK                         _______ _______ _______ _____ _____    ______ ____
ROOT
ATOM      1  O   UNL     1     112.547 127.669 136.476  0.00  0.00    +0.000 OA
ATOM      2  O   UNL     1     112.889 128.541 138.768  0.00  0.00    +0.000 OA
ATOM      3  O   UNL     1     111.423 130.226 135.650  0.00  0.00    +0.000 OA
ATOM      4  C   UNL     1     112.993 127.476 137.821  0.00  0.00    +0.000 A 
ATOM      5  C   UNL     1     112.879 127.186 137.056  0.00  0.00    +0.000 A 
ATOM      6  C   UNL     1     112.775 128.250 138.004  0.00  0.00    +0.000 A 
ATOM      7  C   UNL     1     112.443 128.734 137.424  0.00  0.00    +0.000 A 
ATOM      8  C   UNL     1     112.329 128.443 136.661  0.00  0.00    +0.000 A 
ATOM      9  C   UNL     1     112.220 129.539 137.628  0.00  0.00    +0.000 A 
ATOM     10  C   UNL     1     111.984 128.937 136.047  0.00  0.00    +0.000 A 
ATOM     11  C   UNL     1     111.873 130.047 137.028  0.00  0.00    +0.000 A 
ATOM     12  C   UNL     1     111.755 129.744 136.232  0.00  0.00    +0.000 A 
ENDROOT
BRANCH   5  14
ATOM     13  O   UNL     1     113.749 124.088 136.325  0.00  0.00    +0.000 OA
ATOM     14  C   UNL     1     113.097 126.411 136.874  0.00  0.00    +0.000 A 
ATOM     15  C   UNL     1     112.517 125.832 136.777  0.00  0.00    +0.000 A 
ATOM     16  C   UNL     1     113.894 126.216 136.787  0.00  0.00    +0.000 A 
ATOM     17  C   UNL     1     112.735 125.058 136.594  0.00  0.00    +0.000 A 
ATOM     18  C   UNL     1     114.111 125.442 136.604  0.00  0.00    +0.000 A 
ATOM     19  C   UNL     1     113.532 124.862 136.508  0.00  0.00    +0.000 A 
BRANCH  17  20
ATOM     20  O   UNL     1     112.155 124.478 136.498  0.00  0.00    +0.000 OA
ATOM     21  C   UNL     1     111.430 124.672 136.154  0.00  0.00    +0.000 C 
ENDBRANCH  17  20
ENDBRANCH   5  14
BRANCH   9  22
ATOM     22  O   UNL     1     112.338 129.821 138.394  0.00  0.00    +0.000 OA
ATOM     23  C   UNL     1     112.997 130.286 138.566  0.00  0.00    +0.000 C 
ENDBRANCH   9  22
BRANCH  10  24
ATOM     24  O   UNL     1     111.873 128.638 135.286  0.00  0.00    +0.000 OA
ATOM     25  C   UNL     1     112.203 129.028 134.638  0.00  0.00    +0.000 C 
ENDBRANCH  10  24
BRANCH  11  26
ATOM     26  O   UNL     1     111.656 130.821 137.214  0.00  0.00    +0.000 OA
ATOM     27  C   UNL     1     110.859 131.033 137.235  0.00  0.00    +0.000 C 
ENDBRANCH  11  26
BRANCH   4  28
ATOM     28  O   UNL     1     113.325 126.993 138.401  0.00  0.00    +0.000 OA
BRANCH  28  37
ATOM     29  O   UNL     1     112.100 126.714 139.082  0.00  0.00    +0.000 OA
ATOM     30  O   UNL     1     113.310 126.677 141.241  0.00  0.00    +0.000 OA
ATOM     31  O   UNL     1     111.683 126.411 141.203  0.00  0.00    +0.000 OA
ATOM     32  O   UNL     1     114.131 126.968 139.840  0.00  0.00    +0.000 OA
ATOM     33  C   UNL     1     112.907 126.690 140.522  0.00  0.00    +0.000 C 
ATOM     34  C   UNL     1     112.093 126.557 140.502  0.00  0.00    +0.000 C 
ATOM     35  C   UNL     1     113.318 126.835 139.820  0.00  0.00    +0.000 C 
ATOM     36  C   UNL     1     111.690 126.569 139.782  0.00  0.00    +0.000 C 
ATOM     37  C   UNL     1     112.914 126.847 139.101  0.00  0.00    +0.000 C 
BRANCH  36  39
ATOM     38  O   UNL     1     110.577 125.755 139.405  0.00  0.00    +0.000 OA
ATOM     39  C   UNL     1     110.876 126.436 139.763  0.00  0.00    +0.000 C 
ENDBRANCH  36  39
ENDBRANCH  28  37
ENDBRANCH   4  28
TORSDOF 8
ENDMDL
MODEL 2
REMARK VINA RESULT:      -8.5      0.955      3.141
REMARK  Name = 14375127
REMARK  8 active torsions:
REMARK  status: ('A' for Active; 'I' for Inactive)
REMARK    1  A    between atoms: O_2  and  C_19
REMARK    2  A    between atoms: O_2  and  C_21
REMARK    3  A    between atoms: O_9  and  C_27
REMARK    4  A    between atoms: O_10  and  C_28
REMARK    5  A    between atoms: O_11  and  C_29
REMARK    6  A    between atoms: O_13  and  C_33
REMARK    7  A    between atoms: C_18  and  C_20
REMARK    8  A    between atoms: C_22  and  C_26
REMARK                            x       y       z     vdW  Elec       q    Type
REMARK                         _______ _______ _______ _____ _____    ______ ____
ROOT
ATOM      1  O   UNL     1     111.902 128.179 138.238  0.00  0.00    +0.000 OA
ATOM      2  O   UNL     1     113.670 127.200 136.807  0.00  0.00    +0.000 OA
ATOM      3  O   UNL     1     111.357 130.202 136.215  0.00  0.00    +0.000 OA
ATOM      4  C   UNL     1     112.917 127.195 138.021  0.00  0.00    +0.000 A 
ATOM      5  C   UNL     1     112.327 127.522 138.498  0.00  0.00    +0.000 A 
ATOM      6  C   UNL     1     113.080 127.527 137.284  0.00  0.00    +0.000 A 
ATOM      7  C   UNL     1     112.656 128.184 137.023  0.00  0.00    +0.000 A 
ATOM      8  C   UNL     1     112.067 128.510 137.500  0.00  0.00    +0.000 A 
ATOM      9  C   UNL     1     112.836 128.520 136.253  0.00  0.00    +0.000 A 
ATOM     10  C   UNL     1     111.618 129.195 137.240  0.00  0.00    +0.000 A 
ATOM     11  C   UNL     1     112.397 129.205 135.977  0.00  0.00    +0.000 A 
ATOM     12  C   UNL     1     111.784 129.545 136.473  0.00  0.00    +0.000 A 
ENDROOT
BRANCH   5  14
ATOM     13  O   UNL     1     111.670 126.193 141.447  0.00  0.00    +0.000 OA
ATOM     14  C   UNL     1     112.163 127.190 139.235  0.00  0.00    +0.000 A 
ATOM     15  C   UNL     1     111.479 126.741 139.343  0.00  0.00    +0.000 A 
ATOM     16  C   UNL     1     112.683 127.306 139.865  0.00  0.00    +0.000 A 
ATOM     17  C   UNL     1     111.315 126.409 140.080  0.00  0.00    +0.000 A 
ATOM     18  C   UNL     1     112.518 126.974 140.602  0.00  0.00    +0.000 A 
ATOM     19  C   UNL     1     111.835 126.526 140.710  0.00  0.00    +0.000 A 
BRANCH  17  20
ATOM     20  O   UNL     1     110.630 125.961 140.187  0.00  0.00    +0.000 OA
ATOM     21  C   UNL     1     109.939 126.159 139.782  0.00  0.00    +0.000 C 
ENDBRANCH  17  20
ENDBRANCH   5  14
BRANCH   9  22
ATOM     22  O   UNL     1     113.427 128.187 135.783  0.00  0.00    +0.000 OA
ATOM     23  C   UNL     1     114.177 128.530 135.759  0.00  0.00    +0.000 C 
ENDBRANCH   9  22
BRANCH  10  24
ATOM     24  O   UNL     1     111.030 129.515 137.724  0.00  0.00    +0.000 OA
ATOM     25  C   UNL     1     111.077 130.303 137.964  0.00  0.00    +0.000 C 
ENDBRANCH  10  24
BRANCH  11  26
ATOM     26  O   UNL     1     112.564 129.534 135.239  0.00  0.00    +0.000 OA
ATOM     27  C   UNL     1     112.036 129.434 134.613  0.00  0.00    +0.000 C 
ENDBRANCH  11  26
BRANCH   4  28
ATOM     28  O   UNL     1     113.341 126.538 138.282  0.00  0.00    +0.000 OA
BRANCH  28  37
ATOM     29  O   UNL     1     112.668 125.621 137.417  0.00  0.00    +0.000 OA
ATOM     30  O   UNL     1     114.698 124.209 137.331  0.00  0.00    +0.000 OA
ATOM     31  O   UNL     1     113.348 123.764 136.495  0.00  0.00    +0.000 OA
ATOM     32  O   UNL     1     114.695 125.596 138.224  0.00  0.00    +0.000 OA
ATOM     33  C   UNL     1     114.021 124.680 137.359  0.00  0.00    +0.000 C 
ATOM     34  C   UNL     1     113.346 124.457 136.941  0.00  0.00    +0.000 C 
ATOM     35  C   UNL     1     114.020 125.374 137.807  0.00  0.00    +0.000 C 
ATOM     36  C   UNL     1     112.669 124.928 136.970  0.00  0.00    +0.000 C 
ATOM     37  C   UNL     1     113.343 125.845 137.835  0.00  0.00    +0.000 C 
BRANCH  36  39
ATOM     38  O   UNL     1     111.286 124.570 136.953  0.00  0.00    +0.000 OA
ATOM     39  C   UNL     1     111.994 124.705 136.552  0.00  0.00    +0.000 C 
ENDBRANCH  36  39
ENDBRANCH  28  37
ENDBRANCH   4  28
TORSDOF 8
ENDMDL
MODEL 3
REMARK VINA RESULT:      -8.5      2.186      4.809
REMARK  Name = 14375127
REMARK  8 active torsions:
REMARK  status: ('A' for Active; 'I' for Inactive)
REMARK    1  A    between atoms: O_2  and  C_19
REMARK    2  A    between atoms: O_2  and  C_21
REMARK    3  A    between atoms: O_9  and  C_27
REMARK    4  A    between atoms: O_10  and  C_28
REMARK    5  A    between atoms: O_11  and  C_29
REMARK    6  A    between atoms: O_13  and  C_33
REMARK    7  A    between atoms: C_18  and  C_20
REMARK    8  A    between atoms: C_22  and  C_26
REMARK                            x       y       z     vdW  Elec       q    Type
REMARK                         _______ _______ _______ _____ _____    ______ ____
ROOT
ATOM      1  O   UNL     1     113.195 127.271 136.367  0.00  0.00    +0.000 OA
ATOM      2  O   UNL     1     110.844 127.005 135.640  0.00  0.00    +0.000 OA
ATOM      3  O   UNL     1     113.337 124.435 137.014  0.00  0.00    +0.000 OA
ATOM      4  C   UNL     1     111.989 127.834 135.847  0.00  0.00    +0.000 A 
ATOM      5  C   UNL     1     112.773 127.923 136.089  0.00  0.00    +0.000 A 
ATOM      6  C   UNL     1     111.628 127.094 135.883  0.00  0.00    +0.000 A 
ATOM      7  C   UNL     1     112.050 126.442 136.161  0.00  0.00    +0.000 A 
ATOM      8  C   UNL     1     112.833 126.530 136.403  0.00  0.00    +0.000 A 
ATOM      9  C   UNL     1     111.662 125.675 136.194  0.00  0.00    +0.000 A 
ATOM     10  C   UNL     1     113.284 125.860 136.695  0.00  0.00    +0.000 A 
ATOM     11  C   UNL     1     112.097 124.993 136.483  0.00  0.00    +0.000 A 
ATOM     12  C   UNL     1     112.913 125.085 136.735  0.00  0.00    +0.000 A 
ENDROOT
BRANCH   5  14
ATOM     13  O   UNL     1     114.217 130.887 135.947  0.00  0.00    +0.000 OA
ATOM     14  C   UNL     1     113.134 128.664 136.053  0.00  0.00    +0.000 A 
ATOM     15  C   UNL     1     113.223 129.113 136.740  0.00  0.00    +0.000 A 
ATOM     16  C   UNL     1     113.406 128.956 135.331  0.00  0.00    +0.000 A 
ATOM     17  C   UNL     1     113.584 129.854 136.704  0.00  0.00    +0.000 A 
ATOM     18  C   UNL     1     113.767 129.697 135.296  0.00  0.00    +0.000 A 
ATOM     19  C   UNL     1     113.856 130.146 135.982  0.00  0.00    +0.000 A 
BRANCH  17  20
ATOM     20  O   UNL     1     113.672 130.303 137.391  0.00  0.00    +0.000 OA
ATOM     21  C   UNL     1     113.779 129.929 138.118  0.00  0.00    +0.000 C 
ENDBRANCH  17  20
ENDBRANCH   5  14
BRANCH   9  22
ATOM     22  O   UNL     1     110.877 125.596 135.949  0.00  0.00    +0.000 OA
ATOM     23  C   UNL     1     110.708 125.327 135.188  0.00  0.00    +0.000 C 
ENDBRANCH   9  22
BRANCH  10  24
ATOM     24  O   UNL     1     114.067 125.957 136.935  0.00  0.00    +0.000 OA
ATOM     25  C   UNL     1     114.669 125.534 136.561  0.00  0.00    +0.000 C 
ENDBRANCH  10  24
BRANCH  11  26
ATOM     26  O   UNL     1     111.732 124.254 136.518  0.00  0.00    +0.000 OA
ATOM     27  C   UNL     1     111.661 123.862 137.240  0.00  0.00    +0.000 C 
ENDBRANCH  11  26
BRANCH   4  28
ATOM     28  O   UNL     1     111.567 128.486 135.568  0.00  0.00    +0.000 OA
BRANCH  28  37
ATOM     29  O   UNL     1     110.759 128.619 136.740  0.00  0.00    +0.000 OA
ATOM     30  O   UNL     1     108.899 129.489 135.358  0.00  0.00    +0.000 OA
ATOM     31  O   UNL     1     108.712 129.332 136.989  0.00  0.00    +0.000 OA
ATOM     32  O   UNL     1     110.327 129.066 134.647  0.00  0.00    +0.000 OA
ATOM     33  C   UNL     1     109.519 129.199 135.818  0.00  0.00    +0.000 C 
ATOM     34  C   UNL     1     109.426 129.120 136.634  0.00  0.00    +0.000 C 
ATOM     35  C   UNL     1     110.233 128.987 135.463  0.00  0.00    +0.000 C 
ATOM     36  C   UNL     1     110.046 128.831 137.095  0.00  0.00    +0.000 C 
ATOM     37  C   UNL     1     110.853 128.698 135.923  0.00  0.00    +0.000 C 
BRANCH  36  39
ATOM     38  O   UNL     1     110.419 129.197 138.424  0.00  0.00    +0.000 OA
ATOM     39  C   UNL     1     109.952 128.752 137.910  0.00  0.00    +0.000 C 
ENDBRANCH  36  39
ENDBRANCH  28  37
ENDBRANCH   4  28
TORSDOF 8
ENDMDL
MODEL 4
REMARK VINA RESULT:      -8.4      0.982      1.743
REMARK  Name = 14375127
REMARK  8 active torsions:
REMARK  status: ('A' for Active; 'I' for Inactive)
REMARK    1  A    between atoms: O_2  and  C_19
REMARK    2  A    between atoms: O_2  and  C_21
REMARK    3  A    between atoms: O_9  and  C_27
REMARK    4  A    between atoms: O_10  and  C_28
REMARK    5  A    between atoms: O_11  and  C_29
REMARK    6  A    between atoms: O_13  and  C_33
REMARK    7  A    between atoms: C_18  and  C_20
REMARK    8  A    between atoms: C_22  and  C_26
REMARK                            x       y       z     vdW  Elec       q    Type
REMARK                         _______ _______ _______ _____ _____    ______ ____
ROOT
ATOM      1  O   UNL     1     113.009 127.392 136.507  0.00  0.00    +0.000 OA
ATOM      2  O   UNL     1     111.714 128.259 138.431  0.00  0.00    +0.000 OA
ATOM      3  O   UNL     1     113.596 130.112 135.650  0.00  0.00    +0.000 OA
ATOM      4  C   UNL     1     112.220 127.156 137.676  0.00  0.00    +0.000 A 
ATOM      5  C   UNL     1     112.651 126.867 137.034  0.00  0.00    +0.000 A 
ATOM      6  C   UNL     1     112.146 127.970 137.789  0.00  0.00    +0.000 A 
ATOM      7  C   UNL     1     112.503 128.495 137.262  0.00  0.00    +0.000 A 
ATOM      8  C   UNL     1     112.934 128.205 136.622  0.00  0.00    +0.000 A 
ATOM      9  C   UNL     1     112.419 129.340 137.392  0.00  0.00    +0.000 A 
ATOM     10  C   UNL     1     113.311 128.741 136.066  0.00  0.00    +0.000 A 
ATOM     11  C   UNL     1     112.789 129.891 136.846  0.00  0.00    +0.000 A 
ATOM     12  C   UNL     1     113.238 129.590 136.179  0.00  0.00    +0.000 A 
ENDROOT
BRANCH   5  14
ATOM     13  O   UNL     1     112.948 123.612 136.582  0.00  0.00    +0.000 OA
ATOM     14  C   UNL     1     112.725 126.053 136.921  0.00  0.00    +0.000 A 
ATOM     15  C   UNL     1     113.429 125.671 137.121  0.00  0.00    +0.000 A 
ATOM     16  C   UNL     1     112.096 125.621 136.608  0.00  0.00    +0.000 A 
ATOM     17  C   UNL     1     113.503 124.858 137.007  0.00  0.00    +0.000 A 
ATOM     18  C   UNL     1     112.171 124.807 136.495  0.00  0.00    +0.000 A 
ATOM     19  C   UNL     1     112.874 124.426 136.695  0.00  0.00    +0.000 A 
BRANCH  17  20
ATOM     20  O   UNL     1     114.207 124.476 137.207  0.00  0.00    +0.000 OA
ATOM     21  C   UNL     1     114.921 124.888 137.182  0.00  0.00    +0.000 C 
ENDBRANCH  17  20
ENDBRANCH   5  14
BRANCH   9  22
ATOM     22  O   UNL     1     111.985 129.620 138.036  0.00  0.00    +0.000 OA
ATOM     23  C   UNL     1     111.200 129.850 137.936  0.00  0.00    +0.000 C 
ENDBRANCH   9  22
BRANCH  10  24
ATOM     24  O   UNL     1     113.741 128.443 135.427  0.00  0.00    +0.000 OA
ATOM     25  C   UNL     1     114.523 128.678 135.310  0.00  0.00    +0.000 C 
ENDBRANCH  10  24
BRANCH  11  26
ATOM     26  O   UNL     1     112.713 130.704 136.963  0.00  0.00    +0.000 OA
ATOM     27  C   UNL     1     113.365 131.150 137.201  0.00  0.00    +0.000 C 
ENDBRANCH  11  26
BRANCH   4  28
ATOM     28  O   UNL     1     111.862 126.632 138.203  0.00  0.00    +0.000 OA
BRANCH  28  37
ATOM     29  O   UNL     1     112.811 126.878 139.243  0.00  0.00    +0.000 OA
ATOM     30  O   UNL     1     111.099 126.314 140.939  0.00  0.00    +0.000 OA
ATOM     31  O   UNL     1     112.617 126.748 141.413  0.00  0.00    +0.000 OA
ATOM     32  O   UNL     1     110.721 126.255 139.333  0.00  0.00    +0.000 OA
ATOM     33  C   UNL     1     111.669 126.502 140.373  0.00  0.00    +0.000 C 
ATOM     34  C   UNL     1     112.429 126.719 140.610  0.00  0.00    +0.000 C 
ATOM     35  C   UNL     1     111.480 126.473 139.570  0.00  0.00    +0.000 C 
ATOM     36  C   UNL     1     113.000 126.907 140.045  0.00  0.00    +0.000 C 
ATOM     37  C   UNL     1     112.051 126.661 139.005  0.00  0.00    +0.000 C 
BRANCH  36  39
ATOM     38  O   UNL     1     114.404 126.648 140.089  0.00  0.00    +0.000 OA
ATOM     39  C   UNL     1     113.759 127.124 140.282  0.00  0.00    +0.000 C 
ENDBRANCH  36  39
ENDBRANCH  28  37
ENDBRANCH   4  28
TORSDOF 8
ENDMDL
MODEL 5
REMARK VINA RESULT:      -8.4      1.156      3.622
REMARK  Name = 14375127
REMARK  8 active torsions:
REMARK  status: ('A' for Active; 'I' for Inactive)
REMARK    1  A    between atoms: O_2  and  C_19
REMARK    2  A    between atoms: O_2  and  C_21
REMARK    3  A    between atoms: O_9  and  C_27
REMARK    4  A    between atoms: O_10  and  C_28
REMARK    5  A    between atoms: O_11  and  C_29
REMARK    6  A    between atoms: O_13  and  C_33
REMARK    7  A    between atoms: C_18  and  C_20
REMARK    8  A    between atoms: C_22  and  C_26
REMARK                            x       y       z     vdW  Elec       q    Type
REMARK                         _______ _______ _______ _____ _____    ______ ____
ROOT
ATOM      1  O   UNL     1     112.983 128.437 138.254  0.00  0.00    +0.000 OA
ATOM      2  O   UNL     1     112.249 127.146 136.273  0.00  0.00    +0.000 OA
ATOM      3  O   UNL     1     113.962 130.569 136.529  0.00  0.00    +0.000 OA
ATOM      4  C   UNL     1     112.377 127.271 137.691  0.00  0.00    +0.000 A 
ATOM      5  C   UNL     1     112.622 127.701 138.351  0.00  0.00    +0.000 A 
ATOM      6  C   UNL     1     112.494 127.577 136.934  0.00  0.00    +0.000 A 
ATOM      7  C   UNL     1     112.855 128.312 136.836  0.00  0.00    +0.000 A 
ATOM      8  C   UNL     1     113.099 128.742 137.496  0.00  0.00    +0.000 A 
ATOM      9  C   UNL     1     112.970 128.620 136.042  0.00  0.00    +0.000 A 
ATOM     10  C   UNL     1     113.476 129.509 137.409  0.00  0.00    +0.000 A 
ATOM     11  C   UNL     1     113.345 129.385 135.935  0.00  0.00    +0.000 A 
ATOM     12  C   UNL     1     113.600 129.833 136.623  0.00  0.00    +0.000 A 
ENDROOT
BRANCH   5  14
ATOM     13  O   UNL     1     112.158 126.476 141.380  0.00  0.00    +0.000 OA
ATOM     14  C   UNL     1     112.505 127.395 139.108  0.00  0.00    +0.000 A 
ATOM     15  C   UNL     1     113.153 127.148 139.557  0.00  0.00    +0.000 A 
ATOM     16  C   UNL     1     111.742 127.336 139.417  0.00  0.00    +0.000 A 
ATOM     17  C   UNL     1     113.036 126.842 140.314  0.00  0.00    +0.000 A 
ATOM     18  C   UNL     1     111.627 127.029 140.174  0.00  0.00    +0.000 A 
ATOM     19  C   UNL     1     112.273 126.782 140.623  0.00  0.00    +0.000 A 
BRANCH  17  20
ATOM     20  O   UNL     1     113.683 126.595 140.763  0.00  0.00    +0.000 OA
ATOM     21  C   UNL     1     114.380 127.037 140.761  0.00  0.00    +0.000 C 
ENDBRANCH  17  20
ENDBRANCH   5  14
BRANCH   9  22
ATOM     22  O   UNL     1     112.722 128.183 135.387  0.00  0.00    +0.000 OA
ATOM     23  C   UNL     1     111.996 128.346 135.033  0.00  0.00    +0.000 C 
ENDBRANCH   9  22
BRANCH  10  24
ATOM     24  O   UNL     1     113.718 129.932 138.075  0.00  0.00    +0.000 OA
ATOM     25  C   UNL     1     113.399 130.677 138.228  0.00  0.00    +0.000 C 
ENDBRANCH  10  24
BRANCH  11  26
ATOM     26  O   UNL     1     113.461 129.688 135.176  0.00  0.00    +0.000 OA
ATOM     27  C   UNL     1     114.220 129.725 134.857  0.00  0.00    +0.000 C 
ENDBRANCH  11  26
BRANCH   4  28
ATOM     28  O   UNL     1     112.016 126.535 137.788  0.00  0.00    +0.000 OA
BRANCH  28  37
ATOM     29  O   UNL     1     113.171 125.788 137.399  0.00  0.00    +0.000 OA
ATOM     30  O   UNL     1     111.712 123.997 136.509  0.00  0.00    +0.000 OA
ATOM     31  O   UNL     1     113.352 123.848 136.417  0.00  0.00    +0.000 OA
ATOM     32  O   UNL     1     111.044 125.341 137.195  0.00  0.00    +0.000 OA
ATOM     33  C   UNL     1     112.198 124.594 136.806  0.00  0.00    +0.000 C 
ATOM     34  C   UNL     1     113.019 124.520 136.760  0.00  0.00    +0.000 C 
ATOM     35  C   UNL     1     111.864 125.267 137.149  0.00  0.00    +0.000 C 
ATOM     36  C   UNL     1     113.505 125.117 137.056  0.00  0.00    +0.000 C 
ATOM     37  C   UNL     1     112.350 125.864 137.445  0.00  0.00    +0.000 C 
BRANCH  36  39
ATOM     38  O   UNL     1     114.777 125.022 137.699  0.00  0.00    +0.000 OA
ATOM     39  C   UNL     1     114.324 125.042 137.010  0.00  0.00    +0.000 C 
ENDBRANCH  36  39
ENDBRANCH  28  37
ENDBRANCH   4  28
TORSDOF 8
ENDMDL
MODEL 6
REMARK VINA RESULT:      -8.3      1.914      3.705
REMARK  Name = 14375127
REMARK  8 active torsions:
REMARK  status: ('A' for Active; 'I' for Inactive)
REMARK    1  A    between atoms: O_2  and  C_19
REMARK    2  A    between atoms: O_2  and  C_21
REMARK    3  A    between atoms: O_9  and  C_27
REMARK    4  A    between atoms: O_10  and  C_28
REMARK    5  A    between atoms: O_11  and  C_29
REMARK    6  A    between atoms: O_13  and  C_33
REMARK    7  A    between atoms: C_18  and  C_20
REMARK    8  A    between atoms: C_22  and  C_26
REMARK                            x       y       z     vdW  Elec       q    Type
REMARK                         _______ _______ _______ _____ _____    ______ ____
ROOT
ATOM      1  O   UNL     1     111.839 128.993 135.648  0.00  0.00    +0.000 OA
ATOM      2  O   UNL     1     111.996 126.552 136.027  0.00  0.00    +0.000 OA
ATOM      3  O   UNL     1     108.970 128.759 135.200  0.00  0.00    +0.000 OA
ATOM      4  C   UNL     1     112.621 127.834 135.946  0.00  0.00    +0.000 A 
ATOM      5  C   UNL     1     112.568 128.649 135.820  0.00  0.00    +0.000 A 
ATOM      6  C   UNL     1     111.943 127.366 135.900  0.00  0.00    +0.000 A 
ATOM      7  C   UNL     1     111.214 127.711 135.728  0.00  0.00    +0.000 A 
ATOM      8  C   UNL     1     111.162 128.524 135.602  0.00  0.00    +0.000 A 
ATOM      9  C   UNL     1     110.516 127.211 135.683  0.00  0.00    +0.000 A 
ATOM     10  C   UNL     1     110.408 128.895 135.422  0.00  0.00    +0.000 A 
ATOM     11  C   UNL     1     109.754 127.564 135.504  0.00  0.00    +0.000 A 
ATOM     12  C   UNL     1     109.699 128.412 135.373  0.00  0.00    +0.000 A 
ENDROOT
BRANCH   5  14
ATOM     13  O   UNL     1     115.278 130.524 136.006  0.00  0.00    +0.000 OA
ATOM     14  C   UNL     1     113.246 129.117 135.866  0.00  0.00    +0.000 A 
ATOM     15  C   UNL     1     113.369 129.600 136.525  0.00  0.00    +0.000 A 
ATOM     16  C   UNL     1     113.799 129.104 135.255  0.00  0.00    +0.000 A 
ATOM     17  C   UNL     1     114.046 130.068 136.571  0.00  0.00    +0.000 A 
ATOM     18  C   UNL     1     114.477 129.573 135.302  0.00  0.00    +0.000 A 
ATOM     19  C   UNL     1     114.600 130.055 135.959  0.00  0.00    +0.000 A 
BRANCH  17  20
ATOM     20  O   UNL     1     114.170 130.551 137.229  0.00  0.00    +0.000 OA
ATOM     21  C   UNL     1     113.530 130.922 137.594  0.00  0.00    +0.000 C 
ENDBRANCH  17  20
ENDBRANCH   5  14
BRANCH   9  22
ATOM     22  O   UNL     1     110.578 126.398 135.811  0.00  0.00    +0.000 OA
ATOM     23  C   UNL     1     110.618 125.881 135.169  0.00  0.00    +0.000 C 
ENDBRANCH   9  22
BRANCH  10  24
ATOM     24  O   UNL     1     110.364 129.709 135.297  0.00  0.00    +0.000 OA
ATOM     25  C   UNL     1     110.010 130.003 134.613  0.00  0.00    +0.000 C 
ENDBRANCH  10  24
BRANCH  11  26
ATOM     26  O   UNL     1     109.078 127.093 135.459  0.00  0.00    +0.000 OA
ATOM     27  C   UNL     1     108.496 127.147 136.041  0.00  0.00    +0.000 C 
ENDBRANCH  11  26
BRANCH   4  28
ATOM     28  O   UNL     1     113.350 127.490 136.119  0.00  0.00    +0.000 OA
BRANCH  28  37
ATOM     29  O   UNL     1     113.063 127.308 137.507  0.00  0.00    +0.000 OA
ATOM     30  O   UNL     1     114.531 125.315 137.548  0.00  0.00    +0.000 OA
ATOM     31  O   UNL     1     113.755 125.797 138.921  0.00  0.00    +0.000 OA
ATOM     32  O   UNL     1     114.328 126.161 136.146  0.00  0.00    +0.000 OA
ATOM     33  C   UNL     1     114.041 125.979 137.534  0.00  0.00    +0.000 C 
ATOM     34  C   UNL     1     113.653 126.220 138.221  0.00  0.00    +0.000 C 
ATOM     35  C   UNL     1     113.940 126.403 136.833  0.00  0.00    +0.000 C 
ATOM     36  C   UNL     1     113.164 126.885 138.207  0.00  0.00    +0.000 C 
ATOM     37  C   UNL     1     113.451 127.067 136.819  0.00  0.00    +0.000 C 
BRANCH  36  39
ATOM     38  O   UNL     1     112.939 127.864 139.223  0.00  0.00    +0.000 OA
ATOM     39  C   UNL     1     112.777 127.125 138.894  0.00  0.00    +0.000 C 
ENDBRANCH  36  39
ENDBRANCH  28  37
ENDBRANCH   4  28
TORSDOF 8
ENDMDL
MODEL 7
REMARK VINA RESULT:      -8.2      1.424      4.086
REMARK  Name = 14375127
REMARK  8 active torsions:
REMARK  status: ('A' for Active; 'I' for Inactive)
REMARK    1  A    between atoms: O_2  and  C_19
REMARK    2  A    between atoms: O_2  and  C_21
REMARK    3  A    between atoms: O_9  and  C_27
REMARK    4  A    between atoms: O_10  and  C_28
REMARK    5  A    between atoms: O_11  and  C_29
REMARK    6  A    between atoms: O_13  and  C_33
REMARK    7  A    between atoms: C_18  and  C_20
REMARK    8  A    between atoms: C_22  and  C_26
REMARK                            x       y       z     vdW  Elec       q    Type
REMARK                         _______ _______ _______ _____ _____    ______ ____
ROOT
ATOM      1  O   UNL     1     111.015 126.060 138.382  0.00  0.00    +0.000 OA
ATOM      2  O   UNL     1     113.188 127.246 138.394  0.00  0.00    +0.000 OA
ATOM      3  O   UNL     1     110.922 126.159 141.291  0.00  0.00    +0.000 OA
ATOM      4  C   UNL     1     112.120 126.626 137.674  0.00  0.00    +0.000 A 
ATOM      5  C   UNL     1     111.396 126.230 137.670  0.00  0.00    +0.000 A 
ATOM      6  C   UNL     1     112.463 126.851 138.390  0.00  0.00    +0.000 A 
ATOM      7  C   UNL     1     112.083 126.680 139.102  0.00  0.00    +0.000 A 
ATOM      8  C   UNL     1     111.359 126.284 139.098  0.00  0.00    +0.000 A 
ATOM      9  C   UNL     1     112.451 126.919 139.841  0.00  0.00    +0.000 A 
ATOM     10  C   UNL     1     110.953 126.100 139.832  0.00  0.00    +0.000 A 
ATOM     11  C   UNL     1     112.059 126.743 140.585  0.00  0.00    +0.000 A 
ATOM     12  C   UNL     1     111.305 126.332 140.581  0.00  0.00    +0.000 A 
ENDROOT
BRANCH   5  14
ATOM     13  O   UNL     1     110.022 125.335 134.806  0.00  0.00    +0.000 OA
ATOM     14  C   UNL     1     111.053 126.006 136.954  0.00  0.00    +0.000 A 
ATOM     15  C   UNL     1     110.411 126.430 136.654  0.00  0.00    +0.000 A 
ATOM     16  C   UNL     1     111.351 125.359 136.539  0.00  0.00    +0.000 A 
ATOM     17  C   UNL     1     110.068 126.206 135.938  0.00  0.00    +0.000 A 
ATOM     18  C   UNL     1     111.007 125.135 135.823  0.00  0.00    +0.000 A 
ATOM     19  C   UNL     1     110.366 125.559 135.522  0.00  0.00    +0.000 A 
BRANCH  17  20
ATOM     20  O   UNL     1     109.427 126.630 135.638  0.00  0.00    +0.000 OA
ATOM     21  C   UNL     1     108.893 126.991 136.153  0.00  0.00    +0.000 C 
ENDBRANCH  17  20
ENDBRANCH   5  14
BRANCH   9  22
ATOM     22  O   UNL     1     113.175 127.314 139.835  0.00  0.00    +0.000 OA
ATOM     23  C   UNL     1     113.874 126.897 139.972  0.00  0.00    +0.000 C 
ENDBRANCH   9  22
BRANCH  10  24
ATOM     24  O   UNL     1     110.229 125.704 139.819  0.00  0.00    +0.000 OA
ATOM     25  C   UNL     1     109.562 126.051 140.160  0.00  0.00    +0.000 C 
ENDBRANCH  10  24
BRANCH  11  26
ATOM     26  O   UNL     1     112.405 126.969 141.299  0.00  0.00    +0.000 OA
ATOM     27  C   UNL     1     112.092 127.600 141.729  0.00  0.00    +0.000 C 
ENDBRANCH  11  26
BRANCH   4  28
ATOM     28  O   UNL     1     112.501 126.797 136.962  0.00  0.00    +0.000 OA
BRANCH  28  37
ATOM     29  O   UNL     1     112.178 128.189 136.989  0.00  0.00    +0.000 OA
ATOM     30  O   UNL     1     114.269 128.698 135.766  0.00  0.00    +0.000 OA
ATOM     31  O   UNL     1     113.249 129.919 136.200  0.00  0.00    +0.000 OA
ATOM     32  O   UNL     1     113.895 127.136 136.147  0.00  0.00    +0.000 OA
ATOM     33  C   UNL     1     113.572 128.528 136.174  0.00  0.00    +0.000 C 
ATOM     34  C   UNL     1     113.061 129.139 136.391  0.00  0.00    +0.000 C 
ATOM     35  C   UNL     1     113.385 127.747 136.364  0.00  0.00    +0.000 C 
ATOM     36  C   UNL     1     112.364 128.969 136.798  0.00  0.00    +0.000 C 
ATOM     37  C   UNL     1     112.688 127.577 136.772  0.00  0.00    +0.000 C 
BRANCH  36  39
ATOM     38  O   UNL     1     111.094 129.615 136.698  0.00  0.00    +0.000 OA
ATOM     39  C   UNL     1     111.855 129.580 137.015  0.00  0.00    +0.000 C 
ENDBRANCH  36  39
ENDBRANCH  28  37
ENDBRANCH   4  28
TORSDOF 8
ENDMDL
MODEL 8
REMARK VINA RESULT:      -8.1      1.411      3.875
REMARK  Name = 14375127
REMARK  8 active torsions:
REMARK  status: ('A' for Active; 'I' for Inactive)
REMARK    1  A    between atoms: O_2  and  C_19
REMARK    2  A    between atoms: O_2  and  C_21
REMARK    3  A    between atoms: O_9  and  C_27
REMARK    4  A    between atoms: O_10  and  C_28
REMARK    5  A    between atoms: O_11  and  C_29
REMARK    6  A    between atoms: O_13  and  C_33
REMARK    7  A    between atoms: C_18  and  C_20
REMARK    8  A    between atoms: C_22  and  C_26
REMARK                            x       y       z     vdW  Elec       q    Type
REMARK                         _______ _______ _______ _____ _____    ______ ____
ROOT
ATOM      1  O   UNL     1     111.941 126.177 137.985  0.00  0.00    +0.000 OA
ATOM      2  O   UNL     1     111.753 128.331 136.779  0.00  0.00    +0.000 OA
ATOM      3  O   UNL     1     110.882 124.765 135.668  0.00  0.00    +0.000 OA
ATOM      4  C   UNL     1     112.107 127.597 137.952  0.00  0.00    +0.000 A 
ATOM      5  C   UNL     1     112.169 126.879 138.355  0.00  0.00    +0.000 A 
ATOM      6  C   UNL     1     111.815 127.613 137.181  0.00  0.00    +0.000 A 
ATOM      7  C   UNL     1     111.587 126.912 136.811  0.00  0.00    +0.000 A 
ATOM      8  C   UNL     1     111.649 126.195 137.213  0.00  0.00    +0.000 A 
ATOM      9  C   UNL     1     111.285 126.942 136.007  0.00  0.00    +0.000 A 
ATOM     10  C   UNL     1     111.415 125.457 136.839  0.00  0.00    +0.000 A 
ATOM     11  C   UNL     1     111.045 126.215 135.617  0.00  0.00    +0.000 A 
ATOM     12  C   UNL     1     111.110 125.468 136.035  0.00  0.00    +0.000 A 
ENDROOT
BRANCH   5  14
ATOM     13  O   UNL     1     113.332 126.815 141.442  0.00  0.00    +0.000 OA
ATOM     14  C   UNL     1     112.460 126.863 139.126  0.00  0.00    +0.000 A 
ATOM     15  C   UNL     1     111.946 126.733 139.758  0.00  0.00    +0.000 A 
ATOM     16  C   UNL     1     113.266 126.976 139.266  0.00  0.00    +0.000 A 
ATOM     17  C   UNL     1     112.237 126.717 140.530  0.00  0.00    +0.000 A 
ATOM     18  C   UNL     1     113.556 126.960 140.038  0.00  0.00    +0.000 A 
ATOM     19  C   UNL     1     113.042 126.831 140.670  0.00  0.00    +0.000 A 
BRANCH  17  20
ATOM     20  O   UNL     1     111.722 126.587 141.162  0.00  0.00    +0.000 OA
ATOM     21  C   UNL     1     110.950 126.334 141.020  0.00  0.00    +0.000 C 
ENDBRANCH  17  20
ENDBRANCH   5  14
BRANCH   9  22
ATOM     22  O   UNL     1     111.226 127.665 135.612  0.00  0.00    +0.000 OA
ATOM     23  C   UNL     1     111.830 127.909 135.106  0.00  0.00    +0.000 C 
ENDBRANCH   9  22
BRANCH  10  24
ATOM     24  O   UNL     1     111.480 124.744 137.248  0.00  0.00    +0.000 OA
ATOM     25  C   UNL     1     111.947 124.135 136.944  0.00  0.00    +0.000 C 
ENDBRANCH  10  24
BRANCH  11  26
ATOM     26  O   UNL     1     110.754 126.235 134.845  0.00  0.00    +0.000 OA
ATOM     27  C   UNL     1     109.966 126.042 134.695  0.00  0.00    +0.000 C 
ENDBRANCH  11  26
BRANCH   4  28
ATOM     28  O   UNL     1     112.335 128.298 138.322  0.00  0.00    +0.000 OA
BRANCH  28  37
ATOM     29  O   UNL     1     110.993 128.753 138.504  0.00  0.00    +0.000 OA
ATOM     30  O   UNL     1     111.780 131.099 138.451  0.00  0.00    +0.000 OA
ATOM     31  O   UNL     1     110.176 130.771 138.650  0.00  0.00    +0.000 OA
ATOM     32  O   UNL     1     112.860 129.862 138.287  0.00  0.00    +0.000 OA
ATOM     33  C   UNL     1     111.518 130.317 138.469  0.00  0.00    +0.000 C 
ATOM     34  C   UNL     1     110.715 130.152 138.568  0.00  0.00    +0.000 C 
ATOM     35  C   UNL     1     112.058 129.698 138.386  0.00  0.00    +0.000 C 
ATOM     36  C   UNL     1     110.453 129.370 138.586  0.00  0.00    +0.000 C 
ATOM     37  C   UNL     1     111.796 128.916 138.404  0.00  0.00    +0.000 C 
BRANCH  36  39
ATOM     38  O   UNL     1     109.391 128.810 139.361  0.00  0.00    +0.000 OA
ATOM     39  C   UNL     1     109.651 129.207 138.686  0.00  0.00    +0.000 C 
ENDBRANCH  36  39
ENDBRANCH  28  37
ENDBRANCH   4  28
TORSDOF 8
ENDMDL
MODEL 9
REMARK VINA RESULT:      -8.1      1.870      3.601
REMARK  Name = 14375127
REMARK  8 active torsions:
REMARK  status: ('A' for Active; 'I' for Inactive)
REMARK    1  A    between atoms: O_2  and  C_19
REMARK    2  A    between atoms: O_2  and  C_21
REMARK    3  A    between atoms: O_9  and  C_27
REMARK    4  A    between atoms: O_10  and  C_28
REMARK    5  A    between atoms: O_11  and  C_29
REMARK    6  A    between atoms: O_13  and  C_33
REMARK    7  A    between atoms: C_18  and  C_20
REMARK    8  A    between atoms: C_22  and  C_26
REMARK                            x       y       z     vdW  Elec       q    Type
REMARK                         _______ _______ _______ _____ _____    ______ ____
ROOT
ATOM      1  O   UNL     1     111.434 126.914 136.878  0.00  0.00    +0.000 OA
ATOM      2  O   UNL     1     111.953 128.985 135.625  0.00  0.00    +0.000 OA
ATOM      3  O   UNL     1     108.583 127.399 136.538  0.00  0.00    +0.000 OA
ATOM      4  C   UNL     1     112.392 127.827 136.337  0.00  0.00    +0.000 A 
ATOM      5  C   UNL     1     112.219 127.136 136.755  0.00  0.00    +0.000 A 
ATOM      6  C   UNL     1     111.780 128.294 136.043  0.00  0.00    +0.000 A 
ATOM      7  C   UNL     1     110.995 128.072 136.166  0.00  0.00    +0.000 A 
ATOM      8  C   UNL     1     110.822 127.383 136.583  0.00  0.00    +0.000 A 
ATOM      9  C   UNL     1     110.366 128.569 135.853  0.00  0.00    +0.000 A 
ATOM     10  C   UNL     1     110.009 127.140 136.718  0.00  0.00    +0.000 A 
ATOM     11  C   UNL     1     109.547 128.342 135.978  0.00  0.00    +0.000 A 
ATOM     12  C   UNL     1     109.367 127.623 136.413  0.00  0.00    +0.000 A 
ENDROOT
BRANCH   5  14
ATOM     13  O   UNL     1     114.669 125.266 137.936  0.00  0.00    +0.000 OA
ATOM     14  C   UNL     1     112.832 126.669 137.050  0.00  0.00    +0.000 A 
ATOM     15  C   UNL     1     113.015 126.688 137.855  0.00  0.00    +0.000 A 
ATOM     16  C   UNL     1     113.261 126.182 136.541  0.00  0.00    +0.000 A 
ATOM     17  C   UNL     1     113.627 126.221 138.149  0.00  0.00    +0.000 A 
ATOM     18  C   UNL     1     113.874 125.714 136.836  0.00  0.00    +0.000 A 
ATOM     19  C   UNL     1     114.056 125.734 137.640  0.00  0.00    +0.000 A 
BRANCH  17  20
ATOM     20  O   UNL     1     113.810 126.240 138.954  0.00  0.00    +0.000 OA
ATOM     21  C   UNL     1     113.245 126.493 139.500  0.00  0.00    +0.000 C 
ENDBRANCH  17  20
ENDBRANCH   5  14
BRANCH   9  22
ATOM     22  O   UNL     1     110.549 129.257 135.437  0.00  0.00    +0.000 OA
ATOM     23  C   UNL     1     110.559 129.250 134.612  0.00  0.00    +0.000 C 
ENDBRANCH   9  22
BRANCH  10  24
ATOM     24  O   UNL     1     109.845 126.448 137.136  0.00  0.00    +0.000 OA
ATOM     25  C   UNL     1     109.397 126.481 137.829  0.00  0.00    +0.000 C 
ENDBRANCH  10  24
BRANCH  11  26
ATOM     26  O   UNL     1     108.937 128.812 135.682  0.00  0.00    +0.000 OA
ATOM     27  C   UNL     1     108.565 129.362 136.172  0.00  0.00    +0.000 C 
ENDBRANCH  11  26
BRANCH   4  28
ATOM     28  O   UNL     1     113.177 128.049 136.214  0.00  0.00    +0.000 OA
BRANCH  28  37
ATOM     29  O   UNL     1     113.144 129.124 137.156  0.00  0.00    +0.000 OA
ATOM     30  O   UNL     1     114.815 130.356 135.808  0.00  0.00    +0.000 OA
ATOM     31  O   UNL     1     114.225 131.019 137.198  0.00  0.00    +0.000 OA
ATOM     32  O   UNL     1     114.292 128.870 135.316  0.00  0.00    +0.000 OA
ATOM     33  C   UNL     1     114.258 129.945 136.258  0.00  0.00    +0.000 C 
ATOM     34  C   UNL     1     113.963 130.276 136.953  0.00  0.00    +0.000 C 
ATOM     35  C   UNL     1     113.996 129.202 136.011  0.00  0.00    +0.000 C 
ATOM     36  C   UNL     1     113.406 129.866 137.402  0.00  0.00    +0.000 C 
ATOM     37  C   UNL     1     113.439 128.791 136.460  0.00  0.00    +0.000 C 
BRANCH  36  39
ATOM     38  O   UNL     1     113.183 129.792 138.811  0.00  0.00    +0.000 OA
ATOM     39  C   UNL     1     113.111 130.198 138.096  0.00  0.00    +0.000 C 
ENDBRANCH  36  39
ENDBRANCH  28  37
ENDBRANCH   4  28
TORSDOF 8
ENDMDL
MODEL 10
REMARK VINA RESULT:      -8.0      1.204      3.581
REMARK  Name = 14375127
REMARK  8 active torsions:
REMARK  status: ('A' for Active; 'I' for Inactive)
REMARK    1  A    between atoms: O_2  and  C_19
REMARK    2  A    between atoms: O_2  and  C_21
REMARK    3  A    between atoms: O_9  and  C_27
REMARK    4  A    between atoms: O_10  and  C_28
REMARK    5  A    between atoms: O_11  and  C_29
REMARK    6  A    between atoms: O_13  and  C_33
REMARK    7  A    between atoms: C_18  and  C_20
REMARK    8  A    between atoms: C_22  and  C_26
REMARK                            x       y       z     vdW  Elec       q    Type
REMARK                         _______ _______ _______ _____ _____    ______ ____
ROOT
ATOM      1  O   UNL     1     112.998 126.857 138.963  0.00  0.00    +0.000 OA
ATOM      2  O   UNL     1     113.296 129.018 137.794  0.00  0.00    +0.000 OA
ATOM      3  O   UNL     1     112.387 128.260 141.441  0.00  0.00    +0.000 OA
ATOM      4  C   UNL     1     113.296 127.590 137.773  0.00  0.00    +0.000 A 
ATOM      5  C   UNL     1     113.197 126.869 138.163  0.00  0.00    +0.000 A 
ATOM      6  C   UNL     1     113.197 128.298 138.184  0.00  0.00    +0.000 A 
ATOM      7  C   UNL     1     112.998 128.286 138.984  0.00  0.00    +0.000 A 
ATOM      8  C   UNL     1     112.898 127.566 139.374  0.00  0.00    +0.000 A 
ATOM      9  C   UNL     1     112.897 129.031 139.401  0.00  0.00    +0.000 A 
ATOM     10  C   UNL     1     112.691 127.540 140.207  0.00  0.00    +0.000 A 
ATOM     11  C   UNL     1     112.690 129.024 140.235  0.00  0.00    +0.000 A 
ATOM     12  C   UNL     1     112.586 128.274 140.641  0.00  0.00    +0.000 A 
ENDROOT
BRANCH   5  14
ATOM     13  O   UNL     1     113.593 124.036 136.517  0.00  0.00    +0.000 OA
ATOM     14  C   UNL     1     113.297 126.161 137.751  0.00  0.00    +0.000 A 
ATOM     15  C   UNL     1     112.637 125.720 137.524  0.00  0.00    +0.000 A 
ATOM     16  C   UNL     1     114.055 125.893 137.568  0.00  0.00    +0.000 A 
ATOM     17  C   UNL     1     112.736 125.012 137.112  0.00  0.00    +0.000 A 
ATOM     18  C   UNL     1     114.153 125.185 137.156  0.00  0.00    +0.000 A 
ATOM     19  C   UNL     1     113.495 124.744 136.929  0.00  0.00    +0.000 A 
BRANCH  17  20
ATOM     20  O   UNL     1     112.076 124.571 136.884  0.00  0.00    +0.000 OA
ATOM     21  C   UNL     1     111.431 124.502 137.393  0.00  0.00    +0.000 C 
ENDBRANCH  17  20
ENDBRANCH   5  14
BRANCH   9  22
ATOM     22  O   UNL     1     112.998 129.747 139.003  0.00  0.00    +0.000 OA
ATOM     23  C   UNL     1     113.713 130.154 139.063  0.00  0.00    +0.000 C 
ENDBRANCH   9  22
BRANCH  10  24
ATOM     24  O   UNL     1     112.594 126.815 140.589  0.00  0.00    +0.000 OA
ATOM     25  C   UNL     1     111.884 126.643 140.974  0.00  0.00    +0.000 C 
ENDBRANCH  10  24
BRANCH  11  26
ATOM     26  O   UNL     1     112.591 129.735 140.643  0.00  0.00    +0.000 OA
ATOM     27  C   UNL     1     111.836 129.978 140.872  0.00  0.00    +0.000 C 
ENDBRANCH  11  26
BRANCH   4  28
ATOM     28  O   UNL     1     113.495 127.601 136.972  0.00  0.00    +0.000 OA
BRANCH  28  37
ATOM     29  O   UNL     1     112.193 127.987 136.528  0.00  0.00    +0.000 OA
ATOM     30  O   UNL     1     113.203 129.207 134.625  0.00  0.00    +0.000 OA
ATOM     31  O   UNL     1     111.565 129.186 134.815  0.00  0.00    +0.000 OA
ATOM     32  O   UNL     1     114.169 128.414 135.704  0.00  0.00    +0.000 OA
ATOM     33  C   UNL     1     112.867 128.800 135.260  0.00  0.00    +0.000 C 
ATOM     34  C   UNL     1     112.047 128.789 135.355  0.00  0.00    +0.000 C 
ATOM     35  C   UNL     1     113.350 128.404 135.799  0.00  0.00    +0.000 C 
ATOM     36  C   UNL     1     111.711 128.383 135.989  0.00  0.00    +0.000 C 
ATOM     37  C   UNL     1     113.013 127.997 136.433  0.00  0.00    +0.000 C 
BRANCH  36  39
ATOM     38  O   UNL     1     110.482 127.657 136.060  0.00  0.00    +0.000 OA
ATOM     39  C   UNL     1     110.892 128.373 136.084  0.00  0.00    +0.000 C 
ENDBRANCH  36  39
ENDBRANCH  28  37
ENDBRANCH   4  28
TORSDOF 8
ENDMDL
