MODEL 1
REMARK VINA RESULT:      -9.3      0.000      0.000
REMARK  Name = 44259405
REMARK  5 active torsions:
REMARK  status: ('A' for Active; 'I' for Inactive)
REMARK    1  A    between atoms: O_2  and  C_17
REMARK    2  A    between atoms: O_2  and  C_19
REMARK    3  A    between atoms: O_10  and  C_31
REMARK    4  A    between atoms: C_16  and  C_18
REMARK    5  A    between atoms: C_26  and  C_28
REMARK                            x       y       z     vdW  Elec       q    Type
REMARK                         _______ _______ _______ _____ _____    ______ ____
ROOT
ATOM      1  O   UNL     1     110.262 128.175 136.119  0.00  0.00    +0.000 OA
ATOM      2  O   UNL     1     107.890 129.811 135.910  0.00  0.00    +0.000 OA
ATOM      3  O   UNL     1     108.553 126.903 135.644  0.00  0.00    +0.000 OA
ATOM      4  O   UNL     1     107.829 128.384 135.710  0.00  0.00    +0.000 OA
ATOM      5  C   UNL     1     110.008 130.382 136.365  0.00  0.00    +0.000 A 
ATOM      6  C   UNL     1     110.379 129.607 136.329  0.00  0.00    +0.000 A 
ATOM      7  C   UNL     1     109.163 130.454 136.223  0.00  0.00    +0.000 A 
ATOM      8  C   UNL     1     109.900 128.916 136.152  0.00  0.00    +0.000 A 
ATOM      9  C   UNL     1     109.090 128.986 136.016  0.00  0.00    +0.000 A 
ATOM     10  C   UNL     1     108.701 129.751 136.047  0.00  0.00    +0.000 A 
ATOM     11  C   UNL     1     108.641 128.315 135.847  0.00  0.00    +0.000 A 
ATOM     12  C   UNL     1     109.813 127.504 135.950  0.00  0.00    +0.000 A 
ATOM     13  C   UNL     1     109.002 127.574 135.814  0.00  0.00    +0.000 A 
ENDROOT
BRANCH  12  15
ATOM     14  O   UNL     1     111.259 124.541 135.818  0.00  0.00    +0.000 OA
ATOM     15  C   UNL     1     110.175 126.763 135.917  0.00  0.00    +0.000 A 
ATOM     16  C   UNL     1     110.325 126.347 136.613  0.00  0.00    +0.000 A 
ATOM     17  C   UNL     1     110.385 126.439 135.188  0.00  0.00    +0.000 A 
ATOM     18  C   UNL     1     110.687 125.606 136.580  0.00  0.00    +0.000 A 
ATOM     19  C   UNL     1     110.747 125.699 135.156  0.00  0.00    +0.000 A 
ATOM     20  C   UNL     1     110.898 125.282 135.851  0.00  0.00    +0.000 A 
BRANCH  18  21
ATOM     21  O   UNL     1     110.838 125.189 137.276  0.00  0.00    +0.000 OA
ATOM     22  C   UNL     1     111.047 125.595 137.963  0.00  0.00    +0.000 C 
ENDBRANCH  18  21
ENDBRANCH  12  15
BRANCH   5  23
ATOM     23  O   UNL     1     110.459 131.052 136.534  0.00  0.00    +0.000 OA
BRANCH  23  32
ATOM     24  O   UNL     1     110.370 130.960 137.958  0.00  0.00    +0.000 OA
ATOM     25  O   UNL     1     110.249 133.428 138.108  0.00  0.00    +0.000 OA
ATOM     26  O   UNL     1     110.199 132.514 139.480  0.00  0.00    +0.000 OA
ATOM     27  N   UNL     1     110.378 132.696 136.635  0.00  0.00    +0.000 NA
ATOM     28  C   UNL     1     110.289 132.605 138.058  0.00  0.00    +0.000 C 
ATOM     29  C   UNL     1     110.354 132.239 137.321  0.00  0.00    +0.000 C 
ATOM     30  C   UNL     1     110.264 132.148 138.744  0.00  0.00    +0.000 C 
ATOM     31  C   UNL     1     110.305 131.325 138.694  0.00  0.00    +0.000 C 
ATOM     32  C   UNL     1     110.394 131.417 137.271  0.00  0.00    +0.000 C 
BRANCH  31  34
ATOM     33  O   UNL     1     110.896 130.347 139.551  0.00  0.00    +0.000 OA
ATOM     34  C   UNL     1     110.280 130.869 139.380  0.00  0.00    +0.000 C 
ENDBRANCH  31  34
ENDBRANCH  23  32
ENDBRANCH   5  23
TORSDOF 5
ENDMDL
MODEL 2
REMARK VINA RESULT:      -9.3      1.960      3.326
REMARK  Name = 44259405
REMARK  5 active torsions:
REMARK  status: ('A' for Active; 'I' for Inactive)
REMARK    1  A    between atoms: O_2  and  C_17
REMARK    2  A    between atoms: O_2  and  C_19
REMARK    3  A    between atoms: O_10  and  C_31
REMARK    4  A    between atoms: C_16  and  C_18
REMARK    5  A    between atoms: C_26  and  C_28
REMARK                            x       y       z     vdW  Elec       q    Type
REMARK                         _______ _______ _______ _____ _____    ______ ____
ROOT
ATOM      1  O   UNL     1     112.067 126.704 136.243  0.00  0.00    +0.000 OA
ATOM      2  O   UNL     1     109.611 125.933 134.932  0.00  0.00    +0.000 OA
ATOM      3  O   UNL     1     111.903 124.527 136.249  0.00  0.00    +0.000 OA
ATOM      4  O   UNL     1     110.511 124.942 135.468  0.00  0.00    +0.000 OA
ATOM      5  C   UNL     1     110.472 127.965 135.314  0.00  0.00    +0.000 A 
ATOM      6  C   UNL     1     111.197 127.742 135.721  0.00  0.00    +0.000 A 
ATOM      7  C   UNL     1     109.933 127.353 135.046  0.00  0.00    +0.000 A 
ATOM      8  C   UNL     1     111.371 126.911 135.852  0.00  0.00    +0.000 A 
ATOM      9  C   UNL     1     110.852 126.324 135.594  0.00  0.00    +0.000 A 
ATOM     10  C   UNL     1     110.123 126.527 135.186  0.00  0.00    +0.000 A 
ATOM     11  C   UNL     1     111.029 125.530 135.726  0.00  0.00    +0.000 A 
ATOM     12  C   UNL     1     112.245 125.909 136.375  0.00  0.00    +0.000 A 
ATOM     13  C   UNL     1     111.726 125.322 136.117  0.00  0.00    +0.000 A 
ENDROOT
BRANCH  12  15
ATOM     14  O   UNL     1     115.030 125.078 137.937  0.00  0.00    +0.000 OA
ATOM     15  C   UNL     1     112.941 125.701 136.765  0.00  0.00    +0.000 A 
ATOM     16  C   UNL     1     113.024 125.858 137.572  0.00  0.00    +0.000 A 
ATOM     17  C   UNL     1     113.554 125.337 136.350  0.00  0.00    +0.000 A 
ATOM     18  C   UNL     1     113.721 125.650 137.962  0.00  0.00    +0.000 A 
ATOM     19  C   UNL     1     114.250 125.130 136.741  0.00  0.00    +0.000 A 
ATOM     20  C   UNL     1     114.334 125.286 137.547  0.00  0.00    +0.000 A 
BRANCH  18  21
ATOM     21  O   UNL     1     113.804 125.807 138.768  0.00  0.00    +0.000 OA
ATOM     22  C   UNL     1     113.578 126.540 139.071  0.00  0.00    +0.000 C 
ENDBRANCH  18  21
ENDBRANCH  12  15
BRANCH   5  23
ATOM     23  O   UNL     1     110.297 128.761 135.183  0.00  0.00    +0.000 OA
BRANCH  23  32
ATOM     24  O   UNL     1     109.941 129.107 136.523  0.00  0.00    +0.000 OA
ATOM     25  O   UNL     1     108.091 130.512 135.668  0.00  0.00    +0.000 OA
ATOM     26  O   UNL     1     108.351 130.390 137.291  0.00  0.00    +0.000 OA
ATOM     27  N   UNL     1     109.065 129.697 134.613  0.00  0.00    +0.000 NA
ATOM     28  C   UNL     1     108.708 130.044 135.953  0.00  0.00    +0.000 C 
ATOM     29  C   UNL     1     109.195 129.636 135.425  0.00  0.00    +0.000 C 
ATOM     30  C   UNL     1     108.838 129.982 136.765  0.00  0.00    +0.000 C 
ATOM     31  C   UNL     1     109.455 129.514 137.050  0.00  0.00    +0.000 C 
ATOM     32  C   UNL     1     109.811 129.168 135.710  0.00  0.00    +0.000 C 
BRANCH  31  34
ATOM     33  O   UNL     1     110.308 129.686 138.184  0.00  0.00    +0.000 OA
ATOM     34  C   UNL     1     109.584 129.453 137.862  0.00  0.00    +0.000 C 
ENDBRANCH  31  34
ENDBRANCH  23  32
ENDBRANCH   5  23
TORSDOF 5
ENDMDL
MODEL 3
REMARK VINA RESULT:      -9.1      1.431      5.286
REMARK  Name = 44259405
REMARK  5 active torsions:
REMARK  status: ('A' for Active; 'I' for Inactive)
REMARK    1  A    between atoms: O_2  and  C_17
REMARK    2  A    between atoms: O_2  and  C_19
REMARK    3  A    between atoms: O_10  and  C_31
REMARK    4  A    between atoms: C_16  and  C_18
REMARK    5  A    between atoms: C_26  and  C_28
REMARK                            x       y       z     vdW  Elec       q    Type
REMARK                         _______ _______ _______ _____ _____    ______ ____
ROOT
ATOM      1  O   UNL     1     110.079 130.115 136.633  0.00  0.00    +0.000 OA
ATOM      2  O   UNL     1     108.028 128.375 135.579  0.00  0.00    +0.000 OA
ATOM      3  O   UNL     1     108.142 131.105 136.804  0.00  0.00    +0.000 OA
ATOM      4  O   UNL     1     107.700 129.675 136.110  0.00  0.00    +0.000 OA
ATOM      5  C   UNL     1     110.241 128.069 135.748  0.00  0.00    +0.000 A 
ATOM      6  C   UNL     1     110.465 128.816 136.110  0.00  0.00    +0.000 A 
ATOM      7  C   UNL     1     109.415 127.916 135.567  0.00  0.00    +0.000 A 
ATOM      8  C   UNL     1     109.859 129.400 136.285  0.00  0.00    +0.000 A 
ATOM      9  C   UNL     1     109.066 129.253 136.111  0.00  0.00    +0.000 A 
ATOM     10  C   UNL     1     108.824 128.512 135.749  0.00  0.00    +0.000 A 
ATOM     11  C   UNL     1     108.494 129.821 136.284  0.00  0.00    +0.000 A 
ATOM     12  C   UNL     1     109.507 130.683 136.806  0.00  0.00    +0.000 A 
ATOM     13  C   UNL     1     108.714 130.536 136.631  0.00  0.00    +0.000 A 
ENDROOT
BRANCH  12  15
ATOM     14  O   UNL     1     110.388 133.544 138.195  0.00  0.00    +0.000 OA
ATOM     15  C   UNL     1     109.727 131.399 137.153  0.00  0.00    +0.000 A 
ATOM     16  C   UNL     1     109.809 131.451 137.973  0.00  0.00    +0.000 A 
ATOM     17  C   UNL     1     109.865 132.061 136.681  0.00  0.00    +0.000 A 
ATOM     18  C   UNL     1     110.030 132.166 138.320  0.00  0.00    +0.000 A 
ATOM     19  C   UNL     1     110.085 132.776 137.029  0.00  0.00    +0.000 A 
ATOM     20  C   UNL     1     110.168 132.828 137.848  0.00  0.00    +0.000 A 
BRANCH  18  21
ATOM     21  O   UNL     1     110.112 132.219 139.139  0.00  0.00    +0.000 OA
ATOM     22  C   UNL     1     110.170 131.532 139.593  0.00  0.00    +0.000 C 
ENDBRANCH  18  21
ENDBRANCH  12  15
BRANCH   5  23
ATOM     23  O   UNL     1     110.816 127.502 135.576  0.00  0.00    +0.000 OA
BRANCH  23  32
ATOM     24  O   UNL     1     110.930 126.916 136.874  0.00  0.00    +0.000 OA
ATOM     25  O   UNL     1     111.046 124.667 135.848  0.00  0.00    +0.000 OA
ATOM     26  O   UNL     1     111.122 124.830 137.488  0.00  0.00    +0.000 OA
ATOM     27  N   UNL     1     110.893 126.003 134.892  0.00  0.00    +0.000 NA
ATOM     28  C   UNL     1     111.008 125.416 136.190  0.00  0.00    +0.000 C 
ATOM     29  C   UNL     1     110.931 126.085 135.712  0.00  0.00    +0.000 C 
ATOM     30  C   UNL     1     111.046 125.499 137.010  0.00  0.00    +0.000 C 
ATOM     31  C   UNL     1     111.007 126.249 137.352  0.00  0.00    +0.000 C 
ATOM     32  C   UNL     1     110.892 126.835 136.054  0.00  0.00    +0.000 C 
BRANCH  31  34
ATOM     33  O   UNL     1     111.590 126.849 138.511  0.00  0.00    +0.000 OA
ATOM     34  C   UNL     1     111.045 126.330 138.172  0.00  0.00    +0.000 C 
ENDBRANCH  31  34
ENDBRANCH  23  32
ENDBRANCH   5  23
TORSDOF 5
ENDMDL
MODEL 4
REMARK VINA RESULT:      -9.1      2.307      3.666
REMARK  Name = 44259405
REMARK  5 active torsions:
REMARK  status: ('A' for Active; 'I' for Inactive)
REMARK    1  A    between atoms: O_2  and  C_17
REMARK    2  A    between atoms: O_2  and  C_19
REMARK    3  A    between atoms: O_10  and  C_31
REMARK    4  A    between atoms: C_16  and  C_18
REMARK    5  A    between atoms: C_26  and  C_28
REMARK                            x       y       z     vdW  Elec       q    Type
REMARK                         _______ _______ _______ _____ _____    ______ ____
ROOT
ATOM      1  O   UNL     1     112.492 127.284 137.175  0.00  0.00    +0.000 OA
ATOM      2  O   UNL     1     112.899 129.810 135.833  0.00  0.00    +0.000 OA
ATOM      3  O   UNL     1     114.311 127.173 135.974  0.00  0.00    +0.000 OA
ATOM      4  O   UNL     1     113.824 128.717 135.658  0.00  0.00    +0.000 OA
ATOM      5  C   UNL     1     111.271 129.155 137.226  0.00  0.00    +0.000 A 
ATOM      6  C   UNL     1     111.530 128.351 137.386  0.00  0.00    +0.000 A 
ATOM      7  C   UNL     1     111.733 129.652 136.699  0.00  0.00    +0.000 A 
ATOM      8  C   UNL     1     112.248 128.056 137.017  0.00  0.00    +0.000 A 
ATOM      9  C   UNL     1     112.692 128.534 136.512  0.00  0.00    +0.000 A 
ATOM     10  C   UNL     1     112.448 129.339 136.340  0.00  0.00    +0.000 A 
ATOM     11  C   UNL     1     113.379 128.239 136.164  0.00  0.00    +0.000 A 
ATOM     12  C   UNL     1     113.180 126.989 136.827  0.00  0.00    +0.000 A 
ATOM     13  C   UNL     1     113.623 127.467 136.322  0.00  0.00    +0.000 A 
ENDROOT
BRANCH  12  15
ATOM     14  O   UNL     1     114.156 123.900 137.456  0.00  0.00    +0.000 OA
ATOM     15  C   UNL     1     113.424 126.217 136.985  0.00  0.00    +0.000 A 
ATOM     16  C   UNL     1     113.062 125.584 136.599  0.00  0.00    +0.000 A 
ATOM     17  C   UNL     1     114.030 126.078 137.527  0.00  0.00    +0.000 A 
ATOM     18  C   UNL     1     113.306 124.811 136.756  0.00  0.00    +0.000 A 
ATOM     19  C   UNL     1     114.273 125.306 137.684  0.00  0.00    +0.000 A 
ATOM     20  C   UNL     1     113.912 124.673 137.299  0.00  0.00    +0.000 A 
BRANCH  18  21
ATOM     21  O   UNL     1     112.944 124.178 136.371  0.00  0.00    +0.000 OA
ATOM     22  C   UNL     1     112.123 124.096 136.392  0.00  0.00    +0.000 C 
ENDBRANCH  18  21
ENDBRANCH  12  15
BRANCH   5  23
ATOM     23  O   UNL     1     110.582 129.446 137.575  0.00  0.00    +0.000 OA
BRANCH  23  32
ATOM     24  O   UNL     1     109.649 128.909 136.636  0.00  0.00    +0.000 OA
ATOM     25  O   UNL     1     108.318 130.992 136.767  0.00  0.00    +0.000 OA
ATOM     26  O   UNL     1     107.829 129.761 135.784  0.00  0.00    +0.000 OA
ATOM     27  N   UNL     1     109.695 130.835 137.662  0.00  0.00    +0.000 NA
ATOM     28  C   UNL     1     108.762 130.298 136.723  0.00  0.00    +0.000 C 
ATOM     29  C   UNL     1     109.451 130.219 137.171  0.00  0.00    +0.000 C 
ATOM     30  C   UNL     1     108.518 129.682 136.232  0.00  0.00    +0.000 C 
ATOM     31  C   UNL     1     108.961 128.988 136.188  0.00  0.00    +0.000 C 
ATOM     32  C   UNL     1     109.895 129.525 137.127  0.00  0.00    +0.000 C 
BRANCH  31  34
ATOM     33  O   UNL     1     108.520 127.639 136.020  0.00  0.00    +0.000 OA
ATOM     34  C   UNL     1     108.716 128.373 135.697  0.00  0.00    +0.000 C 
ENDBRANCH  31  34
ENDBRANCH  23  32
ENDBRANCH   5  23
TORSDOF 5
ENDMDL
MODEL 5
REMARK VINA RESULT:      -9.0      1.872      3.033
REMARK  Name = 44259405
REMARK  5 active torsions:
REMARK  status: ('A' for Active; 'I' for Inactive)
REMARK    1  A    between atoms: O_2  and  C_17
REMARK    2  A    between atoms: O_2  and  C_19
REMARK    3  A    between atoms: O_10  and  C_31
REMARK    4  A    between atoms: C_16  and  C_18
REMARK    5  A    between atoms: C_26  and  C_28
REMARK                            x       y       z     vdW  Elec       q    Type
REMARK                         _______ _______ _______ _____ _____    ______ ____
ROOT
ATOM      1  O   UNL     1     111.528 127.189 136.174  0.00  0.00    +0.000 OA
ATOM      2  O   UNL     1     113.353 129.376 135.688  0.00  0.00    +0.000 OA
ATOM      3  O   UNL     1     113.554 126.560 136.688  0.00  0.00    +0.000 OA
ATOM      4  O   UNL     1     113.825 128.110 136.194  0.00  0.00    +0.000 OA
ATOM      5  C   UNL     1     111.134 129.251 135.406  0.00  0.00    +0.000 A 
ATOM      6  C   UNL     1     110.999 128.442 135.665  0.00  0.00    +0.000 A 
ATOM      7  C   UNL     1     111.932 129.570 135.413  0.00  0.00    +0.000 A 
ATOM      8  C   UNL     1     111.663 127.965 135.927  0.00  0.00    +0.000 A 
ATOM      9  C   UNL     1     112.429 128.272 135.933  0.00  0.00    +0.000 A 
ATOM     10  C   UNL     1     112.583 129.077 135.678  0.00  0.00    +0.000 A 
ATOM     11  C   UNL     1     113.059 127.804 136.187  0.00  0.00    +0.000 A 
ATOM     12  C   UNL     1     112.158 126.721 136.428  0.00  0.00    +0.000 A 
ATOM     13  C   UNL     1     112.923 127.028 136.434  0.00  0.00    +0.000 A 
ENDROOT
BRANCH  12  15
ATOM     14  O   UNL     1     111.615 123.620 137.418  0.00  0.00    +0.000 OA
ATOM     15  C   UNL     1     112.022 125.946 136.675  0.00  0.00    +0.000 A 
ATOM     16  C   UNL     1     111.718 125.801 137.429  0.00  0.00    +0.000 A 
ATOM     17  C   UNL     1     112.190 125.316 136.169  0.00  0.00    +0.000 A 
ATOM     18  C   UNL     1     111.583 125.025 137.676  0.00  0.00    +0.000 A 
ATOM     19  C   UNL     1     112.055 124.541 136.417  0.00  0.00    +0.000 A 
ATOM     20  C   UNL     1     111.751 124.396 137.170  0.00  0.00    +0.000 A 
BRANCH  18  21
ATOM     21  O   UNL     1     111.279 124.880 138.429  0.00  0.00    +0.000 OA
ATOM     22  C   UNL     1     110.844 125.463 138.819  0.00  0.00    +0.000 C 
ENDBRANCH  18  21
ENDBRANCH  12  15
BRANCH   5  23
ATOM     23  O   UNL     1     110.502 129.717 135.152  0.00  0.00    +0.000 OA
BRANCH  23  32
ATOM     24  O   UNL     1     110.239 130.377 136.392  0.00  0.00    +0.000 OA
ATOM     25  O   UNL     1     107.807 130.203 135.970  0.00  0.00    +0.000 OA
ATOM     26  O   UNL     1     108.355 130.921 137.349  0.00  0.00    +0.000 OA
ATOM     27  N   UNL     1     108.880 129.600 134.871  0.00  0.00    +0.000 NA
ATOM     28  C   UNL     1     108.618 130.261 136.110  0.00  0.00    +0.000 C 
ATOM     29  C   UNL     1     109.155 129.960 135.561  0.00  0.00    +0.000 C 
ATOM     30  C   UNL     1     108.892 130.620 136.800  0.00  0.00    +0.000 C 
ATOM     31  C   UNL     1     109.703 130.678 136.941  0.00  0.00    +0.000 C 
ATOM     32  C   UNL     1     109.966 130.018 135.701  0.00  0.00    +0.000 C 
BRANCH  31  34
ATOM     33  O   UNL     1     110.540 131.639 137.588  0.00  0.00    +0.000 OA
ATOM     34  C   UNL     1     109.977 131.037 137.631  0.00  0.00    +0.000 C 
ENDBRANCH  31  34
ENDBRANCH  23  32
ENDBRANCH   5  23
TORSDOF 5
ENDMDL
MODEL 6
REMARK VINA RESULT:      -9.0      7.144      9.071
REMARK  Name = 44259405
REMARK  5 active torsions:
REMARK  status: ('A' for Active; 'I' for Inactive)
REMARK    1  A    between atoms: O_2  and  C_17
REMARK    2  A    between atoms: O_2  and  C_19
REMARK    3  A    between atoms: O_10  and  C_31
REMARK    4  A    between atoms: C_16  and  C_18
REMARK    5  A    between atoms: C_26  and  C_28
REMARK                            x       y       z     vdW  Elec       q    Type
REMARK                         _______ _______ _______ _____ _____    ______ ____
ROOT
ATOM      1  O   UNL     1     103.291 130.185 142.026  0.00  0.00    +0.000 OA
ATOM      2  O   UNL     1     103.854 127.856 140.413  0.00  0.00    +0.000 OA
ATOM      3  O   UNL     1     102.069 130.252 140.220  0.00  0.00    +0.000 OA
ATOM      4  O   UNL     1     102.893 128.842 139.986  0.00  0.00    +0.000 OA
ATOM      5  C   UNL     1     104.701 128.489 142.388  0.00  0.00    +0.000 A 
ATOM      6  C   UNL     1     104.268 129.223 142.504  0.00  0.00    +0.000 A 
ATOM      7  C   UNL     1     104.563 128.023 141.680  0.00  0.00    +0.000 A 
ATOM      8  C   UNL     1     103.704 129.480 141.910  0.00  0.00    +0.000 A 
ATOM      9  C   UNL     1     103.571 129.032 141.230  0.00  0.00    +0.000 A 
ATOM     10  C   UNL     1     103.994 128.297 141.097  0.00  0.00    +0.000 A 
ATOM     11  C   UNL     1     103.026 129.289 140.666  0.00  0.00    +0.000 A 
ATOM     12  C   UNL     1     102.746 130.442 141.463  0.00  0.00    +0.000 A 
ATOM     13  C   UNL     1     102.614 129.995 140.783  0.00  0.00    +0.000 A 
ENDROOT
BRANCH  12  15
ATOM     14  O   UNL     1     101.098 133.263 141.929  0.00  0.00    +0.000 OA
ATOM     15  C   UNL     1     102.334 131.147 141.580  0.00  0.00    +0.000 A 
ATOM     16  C   UNL     1     102.673 131.865 141.354  0.00  0.00    +0.000 A 
ATOM     17  C   UNL     1     101.583 131.135 141.922  0.00  0.00    +0.000 A 
ATOM     18  C   UNL     1     102.260 132.570 141.470  0.00  0.00    +0.000 A 
ATOM     19  C   UNL     1     101.172 131.840 142.038  0.00  0.00    +0.000 A 
ATOM     20  C   UNL     1     101.510 132.558 141.812  0.00  0.00    +0.000 A 
BRANCH  18  21
ATOM     21  O   UNL     1     102.599 133.288 141.244  0.00  0.00    +0.000 OA
ATOM     22  C   UNL     1     103.405 133.418 141.359  0.00  0.00    +0.000 C 
ENDBRANCH  18  21
ENDBRANCH  12  15
BRANCH   5  23
ATOM     23  O   UNL     1     105.246 128.234 142.953  0.00  0.00    +0.000 OA
BRANCH  23  32
ATOM     24  O   UNL     1     106.390 128.853 142.361  0.00  0.00    +0.000 OA
ATOM     25  O   UNL     1     107.791 126.940 143.069  0.00  0.00    +0.000 OA
ATOM     26  O   UNL     1     108.467 128.196 142.241  0.00  0.00    +0.000 OA
ATOM     27  N   UNL     1     106.180 126.959 143.425  0.00  0.00    +0.000 NA
ATOM     28  C   UNL     1     107.324 127.578 142.833  0.00  0.00    +0.000 C 
ATOM     29  C   UNL     1     106.518 127.587 143.011  0.00  0.00    +0.000 C 
ATOM     30  C   UNL     1     107.662 128.206 142.419  0.00  0.00    +0.000 C 
ATOM     31  C   UNL     1     107.194 128.844 142.182  0.00  0.00    +0.000 C 
ATOM     32  C   UNL     1     106.051 128.225 142.775  0.00  0.00    +0.000 C 
BRANCH  31  34
ATOM     33  O   UNL     1     107.297 129.630 140.994  0.00  0.00    +0.000 OA
ATOM     34  C   UNL     1     107.533 129.471 141.768  0.00  0.00    +0.000 C 
ENDBRANCH  31  34
ENDBRANCH  23  32
ENDBRANCH   5  23
TORSDOF 5
ENDMDL
MODEL 7
REMARK VINA RESULT:      -8.9      3.342      6.685
REMARK  Name = 44259405
REMARK  5 active torsions:
REMARK  status: ('A' for Active; 'I' for Inactive)
REMARK    1  A    between atoms: O_2  and  C_17
REMARK    2  A    between atoms: O_2  and  C_19
REMARK    3  A    between atoms: O_10  and  C_31
REMARK    4  A    between atoms: C_16  and  C_18
REMARK    5  A    between atoms: C_26  and  C_28
REMARK                            x       y       z     vdW  Elec       q    Type
REMARK                         _______ _______ _______ _____ _____    ______ ____
ROOT
ATOM      1  O   UNL     1     113.256 128.820 139.462  0.00  0.00    +0.000 OA
ATOM      2  O   UNL     1     111.766 128.699 136.990  0.00  0.00    +0.000 OA
ATOM      3  O   UNL     1     113.225 130.801 138.545  0.00  0.00    +0.000 OA
ATOM      4  O   UNL     1     112.353 129.935 137.444  0.00  0.00    +0.000 OA
ATOM      5  C   UNL     1     112.232 127.093 138.480  0.00  0.00    +0.000 A 
ATOM      6  C   UNL     1     112.686 127.550 139.050  0.00  0.00    +0.000 A 
ATOM      7  C   UNL     1     111.919 127.480 137.780  0.00  0.00    +0.000 A 
ATOM      8  C   UNL     1     112.820 128.387 138.912  0.00  0.00    +0.000 A 
ATOM      9  C   UNL     1     112.519 128.758 138.239  0.00  0.00    +0.000 A 
ATOM     10  C   UNL     1     112.063 128.318 137.659  0.00  0.00    +0.000 A 
ATOM     11  C   UNL     1     112.654 129.563 138.117  0.00  0.00    +0.000 A 
ATOM     12  C   UNL     1     113.391 129.625 139.339  0.00  0.00    +0.000 A 
ATOM     13  C   UNL     1     113.090 129.996 138.667  0.00  0.00    +0.000 A 
ENDROOT
BRANCH  12  15
ATOM     14  O   UNL     1     115.135 131.358 141.540  0.00  0.00    +0.000 OA
ATOM     15  C   UNL     1     113.828 130.058 139.890  0.00  0.00    +0.000 A 
ATOM     16  C   UNL     1     113.459 130.356 140.565  0.00  0.00    +0.000 A 
ATOM     17  C   UNL     1     114.632 130.193 139.764  0.00  0.00    +0.000 A 
ATOM     18  C   UNL     1     113.895 130.790 141.115  0.00  0.00    +0.000 A 
ATOM     19  C   UNL     1     115.067 130.626 140.315  0.00  0.00    +0.000 A 
ATOM     20  C   UNL     1     114.699 130.925 140.990  0.00  0.00    +0.000 A 
BRANCH  18  21
ATOM     21  O   UNL     1     113.527 131.088 141.791  0.00  0.00    +0.000 OA
ATOM     22  C   UNL     1     112.854 130.718 142.092  0.00  0.00    +0.000 C 
ENDBRANCH  18  21
ENDBRANCH  12  15
BRANCH   5  23
ATOM     23  O   UNL     1     112.098 126.288 138.605  0.00  0.00    +0.000 OA
BRANCH  23  32
ATOM     24  O   UNL     1     113.262 125.775 137.953  0.00  0.00    +0.000 OA
ATOM     25  O   UNL     1     111.902 123.965 136.952  0.00  0.00    +0.000 OA
ATOM     26  O   UNL     1     113.518 124.055 136.635  0.00  0.00    +0.000 OA
ATOM     27  N   UNL     1     111.192 125.082 137.938  0.00  0.00    +0.000 NA
ATOM     28  C   UNL     1     112.355 124.568 137.286  0.00  0.00    +0.000 C 
ATOM     29  C   UNL     1     112.000 125.127 137.779  0.00  0.00    +0.000 C 
ATOM     30  C   UNL     1     113.163 124.614 137.127  0.00  0.00    +0.000 C 
ATOM     31  C   UNL     1     113.617 125.217 137.461  0.00  0.00    +0.000 C 
ATOM     32  C   UNL     1     112.453 125.730 138.113  0.00  0.00    +0.000 C 
BRANCH  31  34
ATOM     33  O   UNL     1     114.966 125.295 137.923  0.00  0.00    +0.000 OA
ATOM     34  C   UNL     1     114.424 125.261 137.302  0.00  0.00    +0.000 C 
ENDBRANCH  31  34
ENDBRANCH  23  32
ENDBRANCH   5  23
TORSDOF 5
ENDMDL
MODEL 8
REMARK VINA RESULT:      -8.9      9.553     11.146
REMARK  Name = 44259405
REMARK  5 active torsions:
REMARK  status: ('A' for Active; 'I' for Inactive)
REMARK    1  A    between atoms: O_2  and  C_17
REMARK    2  A    between atoms: O_2  and  C_19
REMARK    3  A    between atoms: O_10  and  C_31
REMARK    4  A    between atoms: C_16  and  C_18
REMARK    5  A    between atoms: C_26  and  C_28
REMARK                            x       y       z     vdW  Elec       q    Type
REMARK                         _______ _______ _______ _____ _____    ______ ____
ROOT
ATOM      1  O   UNL     1     105.420 126.249 144.246  0.00  0.00    +0.000 OA
ATOM      2  O   UNL     1     107.214 126.207 146.511  0.00  0.00    +0.000 OA
ATOM      3  O   UNL     1     106.771 127.959 144.122  0.00  0.00    +0.000 OA
ATOM      4  O   UNL     1     107.295 127.249 145.516  0.00  0.00    +0.000 OA
ATOM      5  C   UNL     1     105.564 124.802 145.944  0.00  0.00    +0.000 A 
ATOM      6  C   UNL     1     105.296 125.177 145.218  0.00  0.00    +0.000 A 
ATOM      7  C   UNL     1     106.214 125.150 146.384  0.00  0.00    +0.000 A 
ATOM      8  C   UNL     1     105.682 125.894 144.944  0.00  0.00    +0.000 A 
ATOM      9  C   UNL     1     106.306 126.227 145.367  0.00  0.00    +0.000 A 
ATOM     10  C   UNL     1     106.588 125.867 146.094  0.00  0.00    +0.000 A 
ATOM     11  C   UNL     1     106.669 126.915 145.093  0.00  0.00    +0.000 A 
ATOM     12  C   UNL     1     105.783 126.937 143.973  0.00  0.00    +0.000 A 
ATOM     13  C   UNL     1     106.408 127.270 144.396  0.00  0.00    +0.000 A 
ENDROOT
BRANCH  12  15
ATOM     14  O   UNL     1     104.737 128.358 141.184  0.00  0.00    +0.000 OA
ATOM     15  C   UNL     1     105.521 127.293 143.276  0.00  0.00    +0.000 A 
ATOM     16  C   UNL     1     105.681 126.938 142.547  0.00  0.00    +0.000 A 
ATOM     17  C   UNL     1     105.100 128.002 143.307  0.00  0.00    +0.000 A 
ATOM     18  C   UNL     1     105.419 127.293 141.850  0.00  0.00    +0.000 A 
ATOM     19  C   UNL     1     104.839 128.356 142.609  0.00  0.00    +0.000 A 
ATOM     20  C   UNL     1     104.998 128.002 141.881  0.00  0.00    +0.000 A 
BRANCH  18  21
ATOM     21  O   UNL     1     105.578 126.940 141.122  0.00  0.00    +0.000 OA
ATOM     22  C   UNL     1     105.631 126.118 141.065  0.00  0.00    +0.000 C 
ENDBRANCH  18  21
ENDBRANCH  12  15
BRANCH   5  23
ATOM     23  O   UNL     1     105.199 124.114 146.216  0.00  0.00    +0.000 OA
BRANCH  23  32
ATOM     24  O   UNL     1     104.183 124.733 147.007  0.00  0.00    +0.000 OA
ATOM     25  O   UNL     1     102.556 123.027 146.252  0.00  0.00    +0.000 OA
ATOM     26  O   UNL     1     102.083 124.214 147.295  0.00  0.00    +0.000 OA
ATOM     27  N   UNL     1     104.114 122.976 145.712  0.00  0.00    +0.000 NA
ATOM     28  C   UNL     1     103.098 123.595 146.504  0.00  0.00    +0.000 C 
ATOM     29  C   UNL     1     103.878 123.570 146.234  0.00  0.00    +0.000 C 
ATOM     30  C   UNL     1     102.862 124.189 147.025  0.00  0.00    +0.000 C 
ATOM     31  C   UNL     1     103.404 124.758 147.277  0.00  0.00    +0.000 C 
ATOM     32  C   UNL     1     104.420 124.139 146.485  0.00  0.00    +0.000 C 
BRANCH  31  34
ATOM     33  O   UNL     1     103.581 125.473 148.501  0.00  0.00    +0.000 OA
ATOM     34  C   UNL     1     103.167 125.351 147.798  0.00  0.00    +0.000 C 
ENDBRANCH  31  34
ENDBRANCH  23  32
ENDBRANCH   5  23
TORSDOF 5
ENDMDL
MODEL 9
REMARK VINA RESULT:      -8.9     10.476     12.484
REMARK  Name = 44259405
REMARK  5 active torsions:
REMARK  status: ('A' for Active; 'I' for Inactive)
REMARK    1  A    between atoms: O_2  and  C_17
REMARK    2  A    between atoms: O_2  and  C_19
REMARK    3  A    between atoms: O_10  and  C_31
REMARK    4  A    between atoms: C_16  and  C_18
REMARK    5  A    between atoms: C_26  and  C_28
REMARK                            x       y       z     vdW  Elec       q    Type
REMARK                         _______ _______ _______ _____ _____    ______ ____
ROOT
ATOM      1  O   UNL     1     105.748 126.405 146.757  0.00  0.00    +0.000 OA
ATOM      2  O   UNL     1     106.575 124.116 148.313  0.00  0.00    +0.000 OA
ATOM      3  O   UNL     1     107.920 126.428 146.968  0.00  0.00    +0.000 OA
ATOM      4  O   UNL     1     107.541 125.060 147.807  0.00  0.00    +0.000 OA
ATOM      5  C   UNL     1     104.529 124.773 147.678  0.00  0.00    +0.000 A 
ATOM      6  C   UNL     1     104.734 125.486 147.242  0.00  0.00    +0.000 A 
ATOM      7  C   UNL     1     105.152 124.307 148.043  0.00  0.00    +0.000 A 
ATOM      8  C   UNL     1     105.558 125.721 147.177  0.00  0.00    +0.000 A 
ATOM      9  C   UNL     1     106.155 125.272 147.527  0.00  0.00    +0.000 A 
ATOM     10  C   UNL     1     105.970 124.558 147.966  0.00  0.00    +0.000 A 
ATOM     11  C   UNL     1     106.942 125.508 147.457  0.00  0.00    +0.000 A 
ATOM     12  C   UNL     1     106.535 126.641 146.687  0.00  0.00    +0.000 A 
ATOM     13  C   UNL     1     107.133 126.193 147.037  0.00  0.00    +0.000 A 
ENDROOT
BRANCH  12  15
ATOM     14  O   UNL     1     107.296 129.378 145.008  0.00  0.00    +0.000 OA
ATOM     15  C   UNL     1     106.726 127.325 146.267  0.00  0.00    +0.000 A 
ATOM     16  C   UNL     1     106.875 127.283 145.457  0.00  0.00    +0.000 A 
ATOM     17  C   UNL     1     106.767 128.051 146.658  0.00  0.00    +0.000 A 
ATOM     18  C   UNL     1     107.065 127.968 145.037  0.00  0.00    +0.000 A 
ATOM     19  C   UNL     1     106.957 128.734 146.238  0.00  0.00    +0.000 A 
ATOM     20  C   UNL     1     107.106 128.693 145.427  0.00  0.00    +0.000 A 
BRANCH  18  21
ATOM     21  O   UNL     1     107.214 127.926 144.226  0.00  0.00    +0.000 OA
ATOM     22  C   UNL     1     106.712 127.492 143.736  0.00  0.00    +0.000 C 
ENDBRANCH  18  21
ENDBRANCH  12  15
BRANCH   5  23
ATOM     23  O   UNL     1     103.741 124.540 147.746  0.00  0.00    +0.000 OA
BRANCH  23  32
ATOM     24  O   UNL     1     103.778 123.639 146.637  0.00  0.00    +0.000 OA
ATOM     25  O   UNL     1     101.402 124.138 146.154  0.00  0.00    +0.000 OA
ATOM     26  O   UNL     1     102.231 123.072 145.207  0.00  0.00    +0.000 OA
ATOM     27  N   UNL     1     102.157 124.872 147.424  0.00  0.00    +0.000 NA
ATOM     28  C   UNL     1     102.194 123.972 146.315  0.00  0.00    +0.000 C 
ATOM     29  C   UNL     1     102.572 124.339 146.951  0.00  0.00    +0.000 C 
ATOM     30  C   UNL     1     102.609 123.438 145.842  0.00  0.00    +0.000 C 
ATOM     31  C   UNL     1     103.401 123.272 146.003  0.00  0.00    +0.000 C 
ATOM     32  C   UNL     1     103.364 124.173 147.112  0.00  0.00    +0.000 C 
BRANCH  31  34
ATOM     33  O   UNL     1     104.437 123.003 145.057  0.00  0.00    +0.000 OA
ATOM     34  C   UNL     1     103.814 122.739 145.529  0.00  0.00    +0.000 C 
ENDBRANCH  31  34
ENDBRANCH  23  32
ENDBRANCH   5  23
TORSDOF 5
ENDMDL
MODEL 10
REMARK VINA RESULT:      -8.8      3.097      5.372
REMARK  Name = 44259405
REMARK  5 active torsions:
REMARK  status: ('A' for Active; 'I' for Inactive)
REMARK    1  A    between atoms: O_2  and  C_17
REMARK    2  A    between atoms: O_2  and  C_19
REMARK    3  A    between atoms: O_10  and  C_31
REMARK    4  A    between atoms: C_16  and  C_18
REMARK    5  A    between atoms: C_26  and  C_28
REMARK                            x       y       z     vdW  Elec       q    Type
REMARK                         _______ _______ _______ _____ _____    ______ ____
ROOT
ATOM      1  O   UNL     1     112.642 128.264 135.580  0.00  0.00    +0.000 OA
ATOM      2  O   UNL     1     109.886 128.312 134.715  0.00  0.00    +0.000 OA
ATOM      3  O   UNL     1     112.157 130.260 134.839  0.00  0.00    +0.000 OA
ATOM      4  O   UNL     1     110.715 129.489 134.623  0.00  0.00    +0.000 OA
ATOM      5  C   UNL     1     111.102 126.644 135.585  0.00  0.00    +0.000 A 
ATOM      6  C   UNL     1     111.851 127.052 135.695  0.00  0.00    +0.000 A 
ATOM      7  C   UNL     1     110.434 127.070 135.252  0.00  0.00    +0.000 A 
ATOM      8  C   UNL     1     111.921 127.878 135.472  0.00  0.00    +0.000 A 
ATOM      9  C   UNL     1     111.278 128.286 135.153  0.00  0.00    +0.000 A 
ATOM     10  C   UNL     1     110.522 127.896 135.035  0.00  0.00    +0.000 A 
ATOM     11  C   UNL     1     111.357 129.080 134.942  0.00  0.00    +0.000 A 
ATOM     12  C   UNL     1     112.721 129.058 135.369  0.00  0.00    +0.000 A 
ATOM     13  C   UNL     1     112.078 129.466 135.050  0.00  0.00    +0.000 A 
ENDROOT
BRANCH  12  15
ATOM     14  O   UNL     1     115.605 130.602 135.802  0.00  0.00    +0.000 OA
ATOM     15  C   UNL     1     113.442 129.444 135.477  0.00  0.00    +0.000 A 
ATOM     16  C   UNL     1     113.593 129.844 136.183  0.00  0.00    +0.000 A 
ATOM     17  C   UNL     1     114.011 129.429 134.880  0.00  0.00    +0.000 A 
ATOM     18  C   UNL     1     114.314 130.230 136.291  0.00  0.00    +0.000 A 
ATOM     19  C   UNL     1     114.732 129.815 134.989  0.00  0.00    +0.000 A 
ATOM     20  C   UNL     1     114.884 130.216 135.694  0.00  0.00    +0.000 A 
BRANCH  18  21
ATOM     21  O   UNL     1     114.466 130.631 136.996  0.00  0.00    +0.000 OA
ATOM     22  C   UNL     1     114.106 130.384 137.697  0.00  0.00    +0.000 C 
ENDBRANCH  18  21
ENDBRANCH  12  15
BRANCH   5  23
ATOM     23  O   UNL     1     111.026 125.850 135.796  0.00  0.00    +0.000 OA
BRANCH  23  32
ATOM     24  O   UNL     1     110.493 126.082 137.102  0.00  0.00    +0.000 OA
ATOM     25  O   UNL     1     111.735 124.121 137.958  0.00  0.00    +0.000 OA
ATOM     26  O   UNL     1     110.788 125.006 138.977  0.00  0.00    +0.000 OA
ATOM     27  N   UNL     1     111.854 124.542 136.367  0.00  0.00    +0.000 NA
ATOM     28  C   UNL     1     111.321 124.774 137.672  0.00  0.00    +0.000 C 
ATOM     29  C   UNL     1     111.381 124.986 136.876  0.00  0.00    +0.000 C 
ATOM     30  C   UNL     1     110.847 125.218 138.182  0.00  0.00    +0.000 C 
ATOM     31  C   UNL     1     110.433 125.872 137.896  0.00  0.00    +0.000 C 
ATOM     32  C   UNL     1     110.966 125.640 136.591  0.00  0.00    +0.000 C 
BRANCH  31  34
ATOM     33  O   UNL     1     109.183 126.495 138.196  0.00  0.00    +0.000 OA
ATOM     34  C   UNL     1     109.960 126.314 138.406  0.00  0.00    +0.000 C 
ENDBRANCH  31  34
ENDBRANCH  23  32
ENDBRANCH   5  23
TORSDOF 5
ENDMDL
