MODEL 1
REMARK VINA RESULT:      -9.9      0.000      0.000
REMARK  Name = 44257592
REMARK  8 active torsions:
REMARK  status: ('A' for Active; 'I' for Inactive)
REMARK    1  A    between atoms: O_2  and  C_21
REMARK    2  A    between atoms: O_2  and  C_25
REMARK    3  A    between atoms: O_6  and  C_24
REMARK    4  A    between atoms: O_6  and  C_28
REMARK    5  A    between atoms: O_11  and  C_29
REMARK    6  A    between atoms: O_15  and  C_43
REMARK    7  A    between atoms: C_16  and  C_25
REMARK    8  A    between atoms: C_35  and  C_38
REMARK                            x       y       z     vdW  Elec       q    Type
REMARK                         _______ _______ _______ _____ _____    ______ ____
ROOT
ATOM      1  O   UNL     1     111.155 125.178 138.539  0.00  0.00    +0.000 OA
ENDROOT
BRANCH   1   5
ATOM      2  O   UNL     1     112.306 127.968 139.956  0.00  0.00    +0.000 OA
ATOM      3  O   UNL     1     110.751 127.458 140.214  0.00  0.00    +0.000 OA
ATOM      4  O   UNL     1     113.800 126.580 138.455  0.00  0.00    +0.000 OA
ATOM      5  C   UNL     1     111.442 125.867 138.888  0.00  0.00    +0.000 A 
ATOM      6  C   UNL     1     110.953 126.318 139.376  0.00  0.00    +0.000 A 
ATOM      7  C   UNL     1     112.219 126.107 138.749  0.00  0.00    +0.000 A 
ATOM      8  C   UNL     1     112.507 126.798 139.098  0.00  0.00    +0.000 A 
ATOM      9  C   UNL     1     111.240 127.007 139.725  0.00  0.00    +0.000 A 
ATOM     10  C   UNL     1     112.017 127.247 139.586  0.00  0.00    +0.000 A 
ATOM     11  C   UNL     1     113.318 127.036 138.945  0.00  0.00    +0.000 A 
ATOM     12  C   UNL     1     113.114 128.223 139.815  0.00  0.00    +0.000 A 
ATOM     13  C   UNL     1     113.623 127.754 139.306  0.00  0.00    +0.000 A 
BRANCH  12  14
ATOM     14  C   UNL     1     113.399 128.914 140.166  0.00  0.00    +0.000 A 
ATOM     15  C   UNL     1     113.573 128.925 140.972  0.00  0.00    +0.000 A 
ATOM     16  C   UNL     1     113.510 129.593 139.710  0.00  0.00    +0.000 A 
ATOM     17  C   UNL     1     113.858 129.614 141.322  0.00  0.00    +0.000 A 
ATOM     18  C   UNL     1     113.794 130.282 140.061  0.00  0.00    +0.000 A 
ATOM     19  C   UNL     1     113.969 130.294 140.867  0.00  0.00    +0.000 A 
BRANCH  19  20
ATOM     20  O   UNL     1     114.254 130.984 141.218  0.00  0.00    +0.000 OA
ATOM     21  C   UNL     1     114.994 131.279 141.006  0.00  0.00    +0.000 C 
ENDBRANCH  19  20
ENDBRANCH  12  14
BRANCH   6  22
ATOM     22  O   UNL     1     110.176 126.078 139.515  0.00  0.00    +0.000 OA
ATOM     23  C   UNL     1     109.911 125.964 140.288  0.00  0.00    +0.000 C 
ENDBRANCH   6  22
ENDBRANCH   1   5
BRANCH   1  32
ATOM     24  O   UNL     1     110.831 125.712 137.253  0.00  0.00    +0.000 OA
ATOM     25  O   UNL     1     111.111 124.888 135.252  0.00  0.00    +0.000 OA
ATOM     26  O   UNL     1     111.738 123.676 136.178  0.00  0.00    +0.000 OA
ATOM     27  O   UNL     1     111.760 123.820 137.822  0.00  0.00    +0.000 OA
ATOM     28  C   UNL     1     110.820 125.639 136.431  0.00  0.00    +0.000 C 
ATOM     29  C   UNL     1     111.122 124.961 136.073  0.00  0.00    +0.000 C 
ATOM     30  C   UNL     1     111.436 124.354 136.536  0.00  0.00    +0.000 C 
ATOM     31  C   UNL     1     111.447 124.426 137.358  0.00  0.00    +0.000 C 
ATOM     32  C   UNL     1     111.144 125.106 137.717  0.00  0.00    +0.000 C 
BRANCH  28  33
ATOM     33  C   UNL     1     110.506 126.246 135.968  0.00  0.00    +0.000 C 
BRANCH  33  34
ATOM     34  O   UNL     1     109.859 126.679 136.240  0.00  0.00    +0.000 OA
BRANCH  34  40
ATOM     35  O   UNL     1     110.256 127.816 135.472  0.00  0.00    +0.000 OA
ATOM     36  O   UNL     1     108.357 127.334 136.434  0.00  0.00    +0.000 OA
ATOM     37  O   UNL     1     108.004 128.800 135.764  0.00  0.00    +0.000 OA
ATOM     38  O   UNL     1     109.152 129.610 134.899  0.00  0.00    +0.000 OA
ATOM     39  C   UNL     1     108.931 127.739 136.002  0.00  0.00    +0.000 C 
ATOM     40  C   UNL     1     109.682 127.411 135.905  0.00  0.00    +0.000 C 
ATOM     41  C   UNL     1     108.755 128.472 135.667  0.00  0.00    +0.000 C 
ATOM     42  C   UNL     1     109.328 128.877 135.234  0.00  0.00    +0.000 C 
ATOM     43  C   UNL     1     110.079 128.549 135.137  0.00  0.00    +0.000 C 
ATOM     44  C   UNL     1     110.654 128.954 134.704  0.00  0.00    +0.000 C 
ENDBRANCH  34  40
ENDBRANCH  33  34
ENDBRANCH  28  33
ENDBRANCH   1  32
TORSDOF 8
ENDMDL
MODEL 2
REMARK VINA RESULT:      -9.7      5.690      8.457
REMARK  Name = 44257592
REMARK  8 active torsions:
REMARK  status: ('A' for Active; 'I' for Inactive)
REMARK    1  A    between atoms: O_2  and  C_21
REMARK    2  A    between atoms: O_2  and  C_25
REMARK    3  A    between atoms: O_6  and  C_24
REMARK    4  A    between atoms: O_6  and  C_28
REMARK    5  A    between atoms: O_11  and  C_29
REMARK    6  A    between atoms: O_15  and  C_43
REMARK    7  A    between atoms: C_16  and  C_25
REMARK    8  A    between atoms: C_35  and  C_38
REMARK                            x       y       z     vdW  Elec       q    Type
REMARK                         _______ _______ _______ _____ _____    ______ ____
ROOT
ATOM      1  O   UNL     1     105.515 126.442 142.659  0.00  0.00    +0.000 OA
ENDROOT
BRANCH   1   5
ATOM      2  O   UNL     1     106.389 125.121 145.593  0.00  0.00    +0.000 OA
ATOM      3  O   UNL     1     106.355 124.199 144.217  0.00  0.00    +0.000 OA
ATOM      4  O   UNL     1     105.760 127.568 145.423  0.00  0.00    +0.000 OA
ATOM      5  C   UNL     1     105.730 126.118 143.385  0.00  0.00    +0.000 A 
ATOM      6  C   UNL     1     105.935 125.320 143.438  0.00  0.00    +0.000 A 
ATOM      7  C   UNL     1     105.742 126.592 144.061  0.00  0.00    +0.000 A 
ATOM      8  C   UNL     1     105.958 126.267 144.789  0.00  0.00    +0.000 A 
ATOM      9  C   UNL     1     106.151 124.996 144.165  0.00  0.00    +0.000 A 
ATOM     10  C   UNL     1     106.162 125.470 144.840  0.00  0.00    +0.000 A 
ATOM     11  C   UNL     1     105.966 126.771 145.485  0.00  0.00    +0.000 A 
ATOM     12  C   UNL     1     106.403 125.608 146.300  0.00  0.00    +0.000 A 
ATOM     13  C   UNL     1     106.190 126.439 146.245  0.00  0.00    +0.000 A 
BRANCH  12  14
ATOM     14  C   UNL     1     106.619 125.282 147.026  0.00  0.00    +0.000 A 
ATOM     15  C   UNL     1     106.054 124.899 147.490  0.00  0.00    +0.000 A 
ATOM     16  C   UNL     1     107.400 125.338 147.287  0.00  0.00    +0.000 A 
ATOM     17  C   UNL     1     106.271 124.572 148.215  0.00  0.00    +0.000 A 
ATOM     18  C   UNL     1     107.615 125.011 148.013  0.00  0.00    +0.000 A 
ATOM     19  C   UNL     1     107.051 124.628 148.478  0.00  0.00    +0.000 A 
BRANCH  19  20
ATOM     20  O   UNL     1     107.268 124.301 149.204  0.00  0.00    +0.000 OA
ATOM     21  C   UNL     1     107.995 124.494 149.542  0.00  0.00    +0.000 C 
ENDBRANCH  19  20
ENDBRANCH  12  14
BRANCH   6  22
ATOM     22  O   UNL     1     105.923 124.847 142.763  0.00  0.00    +0.000 OA
ATOM     23  C   UNL     1     105.449 124.173 142.739  0.00  0.00    +0.000 C 
ENDBRANCH   6  22
ENDBRANCH   1   5
BRANCH   1  32
ATOM     24  O   UNL     1     106.747 127.083 142.323  0.00  0.00    +0.000 OA
ATOM     25  O   UNL     1     107.147 129.050 141.466  0.00  0.00    +0.000 OA
ATOM     26  O   UNL     1     105.499 129.072 141.541  0.00  0.00    +0.000 OA
ATOM     27  O   UNL     1     104.683 127.768 142.137  0.00  0.00    +0.000 OA
ATOM     28  C   UNL     1     107.155 127.735 142.024  0.00  0.00    +0.000 C 
ATOM     29  C   UNL     1     106.739 128.398 141.764  0.00  0.00    +0.000 C 
ATOM     30  C   UNL     1     105.915 128.410 141.801  0.00  0.00    +0.000 C 
ATOM     31  C   UNL     1     105.507 127.758 142.100  0.00  0.00    +0.000 C 
ATOM     32  C   UNL     1     105.923 127.094 142.361  0.00  0.00    +0.000 C 
BRANCH  28  33
ATOM     33  C   UNL     1     107.979 127.724 141.987  0.00  0.00    +0.000 C 
BRANCH  33  34
ATOM     34  O   UNL     1     108.369 127.059 141.690  0.00  0.00    +0.000 OA
BRANCH  34  40
ATOM     35  O   UNL     1     109.634 127.650 141.993  0.00  0.00    +0.000 OA
ATOM     36  O   UNL     1     109.127 125.872 140.832  0.00  0.00    +0.000 OA
ATOM     37  O   UNL     1     110.772 125.868 140.705  0.00  0.00    +0.000 OA
ATOM     38  O   UNL     1     111.659 127.052 141.436  0.00  0.00    +0.000 OA
ATOM     39  C   UNL     1     109.570 126.463 141.197  0.00  0.00    +0.000 C 
ATOM     40  C   UNL     1     109.191 127.057 141.627  0.00  0.00    +0.000 C 
ATOM     41  C   UNL     1     110.393 126.462 141.134  0.00  0.00    +0.000 C 
ATOM     42  C   UNL     1     110.836 127.053 141.500  0.00  0.00    +0.000 C 
ATOM     43  C   UNL     1     110.457 127.647 141.929  0.00  0.00    +0.000 C 
ATOM     44  C   UNL     1     110.900 128.240 142.295  0.00  0.00    +0.000 C 
ENDBRANCH  34  40
ENDBRANCH  33  34
ENDBRANCH  28  33
ENDBRANCH   1  32
TORSDOF 8
ENDMDL
MODEL 3
REMARK VINA RESULT:      -9.7      7.890     10.756
REMARK  Name = 44257592
REMARK  8 active torsions:
REMARK  status: ('A' for Active; 'I' for Inactive)
REMARK    1  A    between atoms: O_2  and  C_21
REMARK    2  A    between atoms: O_2  and  C_25
REMARK    3  A    between atoms: O_6  and  C_24
REMARK    4  A    between atoms: O_6  and  C_28
REMARK    5  A    between atoms: O_11  and  C_29
REMARK    6  A    between atoms: O_15  and  C_43
REMARK    7  A    between atoms: C_16  and  C_25
REMARK    8  A    between atoms: C_35  and  C_38
REMARK                            x       y       z     vdW  Elec       q    Type
REMARK                         _______ _______ _______ _____ _____    ______ ____
ROOT
ATOM      1  O   UNL     1     106.578 125.348 145.048  0.00  0.00    +0.000 OA
ENDROOT
BRANCH   1   5
ATOM      2  O   UNL     1     105.228 127.598 142.991  0.00  0.00    +0.000 OA
ATOM      3  O   UNL     1     105.487 126.038 142.498  0.00  0.00    +0.000 OA
ATOM      4  O   UNL     1     105.881 128.245 145.350  0.00  0.00    +0.000 OA
ATOM      5  C   UNL     1     106.245 125.907 144.542  0.00  0.00    +0.000 A 
ATOM      6  C   UNL     1     106.033 125.693 143.773  0.00  0.00    +0.000 A 
ATOM      7  C   UNL     1     106.122 126.680 144.803  0.00  0.00    +0.000 A 
ATOM      8  C   UNL     1     105.788 127.239 144.296  0.00  0.00    +0.000 A 
ATOM      9  C   UNL     1     105.699 126.251 143.267  0.00  0.00    +0.000 A 
ATOM     10  C   UNL     1     105.577 127.024 143.528  0.00  0.00    +0.000 A 
ATOM     11  C   UNL     1     105.666 128.040 144.580  0.00  0.00    +0.000 A 
ATOM     12  C   UNL     1     105.098 128.404 143.256  0.00  0.00    +0.000 A 
ATOM     13  C   UNL     1     105.319 128.627 144.057  0.00  0.00    +0.000 A 
BRANCH  12  14
ATOM     14  C   UNL     1     104.764 128.961 142.747  0.00  0.00    +0.000 A 
ATOM     15  C   UNL     1     103.945 129.058 142.723  0.00  0.00    +0.000 A 
ATOM     16  C   UNL     1     105.249 129.421 142.263  0.00  0.00    +0.000 A 
ATOM     17  C   UNL     1     103.611 129.614 142.214  0.00  0.00    +0.000 A 
ATOM     18  C   UNL     1     104.914 129.977 141.755  0.00  0.00    +0.000 A 
ATOM     19  C   UNL     1     104.095 130.074 141.730  0.00  0.00    +0.000 A 
BRANCH  19  20
ATOM     20  O   UNL     1     103.761 130.631 141.221  0.00  0.00    +0.000 OA
ATOM     21  C   UNL     1     103.155 131.123 141.488  0.00  0.00    +0.000 C 
ENDBRANCH  19  20
ENDBRANCH  12  14
BRANCH   6  22
ATOM     22  O   UNL     1     106.155 124.920 143.512  0.00  0.00    +0.000 OA
ATOM     23  C   UNL     1     106.468 124.782 142.762  0.00  0.00    +0.000 C 
ENDBRANCH   6  22
ENDBRANCH   1   5
BRANCH   1  32
ATOM     24  O   UNL     1     105.421 125.019 145.820  0.00  0.00    +0.000 OA
ATOM     25  O   UNL     1     105.172 124.721 147.967  0.00  0.00    +0.000 OA
ATOM     26  O   UNL     1     106.783 125.067 147.885  0.00  0.00    +0.000 OA
ATOM     27  O   UNL     1     107.487 125.380 146.426  0.00  0.00    +0.000 OA
ATOM     28  C   UNL     1     105.070 124.862 146.550  0.00  0.00    +0.000 C 
ATOM     29  C   UNL     1     105.524 124.878 147.238  0.00  0.00    +0.000 C 
ATOM     30  C   UNL     1     106.329 125.051 147.197  0.00  0.00    +0.000 C 
ATOM     31  C   UNL     1     106.681 125.208 146.467  0.00  0.00    +0.000 C 
ATOM     32  C   UNL     1     106.227 125.192 145.778  0.00  0.00    +0.000 C 
BRANCH  28  33
ATOM     33  C   UNL     1     104.264 124.689 146.590  0.00  0.00    +0.000 C 
BRANCH  33  34
ATOM     34  O   UNL     1     103.932 124.146 146.065  0.00  0.00    +0.000 OA
BRANCH  34  40
ATOM     35  O   UNL     1     102.664 124.302 146.704  0.00  0.00    +0.000 OA
ATOM     36  O   UNL     1     103.255 123.110 144.974  0.00  0.00    +0.000 OA
ATOM     37  O   UNL     1     101.648 122.747 145.068  0.00  0.00    +0.000 OA
ATOM     38  O   UNL     1     100.718 123.421 146.253  0.00  0.00    +0.000 OA
ATOM     39  C   UNL     1     102.790 123.446 145.566  0.00  0.00    +0.000 C 
ATOM     40  C   UNL     1     103.129 123.965 146.111  0.00  0.00    +0.000 C 
ATOM     41  C   UNL     1     101.987 123.265 145.614  0.00  0.00    +0.000 C 
ATOM     42  C   UNL     1     101.522 123.602 146.205  0.00  0.00    +0.000 C 
ATOM     43  C   UNL     1     101.860 124.121 146.751  0.00  0.00    +0.000 C 
ATOM     44  C   UNL     1     101.395 124.458 147.343  0.00  0.00    +0.000 C 
ENDBRANCH  34  40
ENDBRANCH  33  34
ENDBRANCH  28  33
ENDBRANCH   1  32
TORSDOF 8
ENDMDL
MODEL 4
REMARK VINA RESULT:      -9.6      1.704      5.074
REMARK  Name = 44257592
REMARK  8 active torsions:
REMARK  status: ('A' for Active; 'I' for Inactive)
REMARK    1  A    between atoms: O_2  and  C_21
REMARK    2  A    between atoms: O_2  and  C_25
REMARK    3  A    between atoms: O_6  and  C_24
REMARK    4  A    between atoms: O_6  and  C_28
REMARK    5  A    between atoms: O_11  and  C_29
REMARK    6  A    between atoms: O_15  and  C_43
REMARK    7  A    between atoms: C_16  and  C_25
REMARK    8  A    between atoms: C_35  and  C_38
REMARK                            x       y       z     vdW  Elec       q    Type
REMARK                         _______ _______ _______ _____ _____    ______ ____
ROOT
ATOM      1  O   UNL     1     112.552 125.644 136.374  0.00  0.00    +0.000 OA
ENDROOT
BRANCH   1   5
ATOM      2  O   UNL     1     110.595 128.281 135.796  0.00  0.00    +0.000 OA
ATOM      3  O   UNL     1     109.947 126.788 136.101  0.00  0.00    +0.000 OA
ATOM      4  O   UNL     1     113.115 128.524 135.777  0.00  0.00    +0.000 OA
ATOM      5  C   UNL     1     112.071 126.298 136.231  0.00  0.00    +0.000 A 
ATOM      6  C   UNL     1     111.249 126.216 136.237  0.00  0.00    +0.000 A 
ATOM      7  C   UNL     1     112.410 127.035 136.081  0.00  0.00    +0.000 A 
ATOM      8  C   UNL     1     111.928 127.689 135.937  0.00  0.00    +0.000 A 
ATOM      9  C   UNL     1     110.768 126.869 136.094  0.00  0.00    +0.000 A 
ATOM     10  C   UNL     1     111.107 127.606 135.944  0.00  0.00    +0.000 A 
ATOM     11  C   UNL     1     112.294 128.451 135.782  0.00  0.00    +0.000 A 
ATOM     12  C   UNL     1     110.942 129.051 135.639  0.00  0.00    +0.000 A 
ATOM     13  C   UNL     1     111.797 129.136 135.632  0.00  0.00    +0.000 A 
BRANCH  12  14
ATOM     14  C   UNL     1     110.458 129.704 135.495  0.00  0.00    +0.000 A 
ATOM     15  C   UNL     1     110.323 130.256 136.094  0.00  0.00    +0.000 A 
ATOM     16  C   UNL     1     110.110 129.804 134.754  0.00  0.00    +0.000 A 
ATOM     17  C   UNL     1     109.839 130.907 135.951  0.00  0.00    +0.000 A 
ATOM     18  C   UNL     1     109.626 130.457 134.612  0.00  0.00    +0.000 A 
ATOM     19  C   UNL     1     109.490 131.009 135.210  0.00  0.00    +0.000 A 
BRANCH  19  20
ATOM     20  O   UNL     1     109.006 131.662 135.067  0.00  0.00    +0.000 OA
ATOM     21  C   UNL     1     108.336 131.788 135.531  0.00  0.00    +0.000 C 
ENDBRANCH  19  20
ENDBRANCH  12  14
BRANCH   6  22
ATOM     22  O   UNL     1     110.910 125.479 136.388  0.00  0.00    +0.000 OA
ATOM     23  C   UNL     1     110.520 125.073 135.785  0.00  0.00    +0.000 C 
ENDBRANCH   6  22
ENDBRANCH   1   5
BRANCH   1  32
ATOM     24  O   UNL     1     112.928 126.025 137.699  0.00  0.00    +0.000 OA
ATOM     25  O   UNL     1     114.797 125.747 138.791  0.00  0.00    +0.000 OA
ATOM     26  O   UNL     1     115.169 125.036 137.349  0.00  0.00    +0.000 OA
ATOM     27  O   UNL     1     114.046 124.985 136.141  0.00  0.00    +0.000 OA
ATOM     28  C   UNL     1     113.489 126.051 138.303  0.00  0.00    +0.000 C 
ATOM     29  C   UNL     1     114.235 125.721 138.187  0.00  0.00    +0.000 C 
ATOM     30  C   UNL     1     114.422 125.366 137.466  0.00  0.00    +0.000 C 
ATOM     31  C   UNL     1     113.861 125.340 136.862  0.00  0.00    +0.000 C 
ATOM     32  C   UNL     1     113.113 125.670 136.978  0.00  0.00    +0.000 C 
BRANCH  28  33
ATOM     33  C   UNL     1     113.302 126.406 139.024  0.00  0.00    +0.000 C 
BRANCH  33  34
ATOM     34  O   UNL     1     112.545 126.322 139.341  0.00  0.00    +0.000 OA
BRANCH  34  40
ATOM     35  O   UNL     1     112.788 127.360 140.293  0.00  0.00    +0.000 OA
ATOM     36  O   UNL     1     111.259 125.804 140.235  0.00  0.00    +0.000 OA
ATOM     37  O   UNL     1     110.858 126.583 141.633  0.00  0.00    +0.000 OA
ATOM     38  O   UNL     1     111.745 127.881 142.138  0.00  0.00    +0.000 OA
ATOM     39  C   UNL     1     111.701 126.452 140.487  0.00  0.00    +0.000 C 
ATOM     40  C   UNL     1     112.345 126.711 140.040  0.00  0.00    +0.000 C 
ATOM     41  C   UNL     1     111.502 126.842 141.187  0.00  0.00    +0.000 C 
ATOM     42  C   UNL     1     111.944 127.491 141.439  0.00  0.00    +0.000 C 
ATOM     43  C   UNL     1     112.587 127.750 140.992  0.00  0.00    +0.000 C 
ATOM     44  C   UNL     1     113.031 128.399 141.244  0.00  0.00    +0.000 C 
ENDBRANCH  34  40
ENDBRANCH  33  34
ENDBRANCH  28  33
ENDBRANCH   1  32
TORSDOF 8
ENDMDL
MODEL 5
REMARK VINA RESULT:      -9.5      2.606      6.068
REMARK  Name = 44257592
REMARK  8 active torsions:
REMARK  status: ('A' for Active; 'I' for Inactive)
REMARK    1  A    between atoms: O_2  and  C_21
REMARK    2  A    between atoms: O_2  and  C_25
REMARK    3  A    between atoms: O_6  and  C_24
REMARK    4  A    between atoms: O_6  and  C_28
REMARK    5  A    between atoms: O_11  and  C_29
REMARK    6  A    between atoms: O_15  and  C_43
REMARK    7  A    between atoms: C_16  and  C_25
REMARK    8  A    between atoms: C_35  and  C_38
REMARK                            x       y       z     vdW  Elec       q    Type
REMARK                         _______ _______ _______ _____ _____    ______ ____
ROOT
ATOM      1  O   UNL     1     110.228 130.262 135.517  0.00  0.00    +0.000 OA
ENDROOT
BRANCH   1   5
ATOM      2  O   UNL     1     111.299 127.229 136.396  0.00  0.00    +0.000 OA
ATOM      3  O   UNL     1     112.308 128.542 136.457  0.00  0.00    +0.000 OA
ATOM      4  O   UNL     1     108.914 127.572 135.618  0.00  0.00    +0.000 OA
ATOM      5  C   UNL     1     110.490 129.511 135.734  0.00  0.00    +0.000 A 
ATOM      6  C   UNL     1     111.268 129.402 135.987  0.00  0.00    +0.000 A 
ATOM      7  C   UNL     1     109.975 128.868 135.698  0.00  0.00    +0.000 A 
ATOM      8  C   UNL     1     110.237 128.115 135.915  0.00  0.00    +0.000 A 
ATOM      9  C   UNL     1     111.530 128.651 136.204  0.00  0.00    +0.000 A 
ATOM     10  C   UNL     1     111.015 128.008 136.168  0.00  0.00    +0.000 A 
ATOM     11  C   UNL     1     109.690 127.454 135.872  0.00  0.00    +0.000 A 
ATOM     12  C   UNL     1     110.768 126.555 136.361  0.00  0.00    +0.000 A 
ATOM     13  C   UNL     1     109.957 126.669 136.097  0.00  0.00    +0.000 A 
BRANCH  12  14
ATOM     14  C   UNL     1     111.033 125.805 136.578  0.00  0.00    +0.000 A 
ATOM     15  C   UNL     1     111.050 125.589 137.375  0.00  0.00    +0.000 A 
ATOM     16  C   UNL     1     111.280 125.271 136.000  0.00  0.00    +0.000 A 
ATOM     17  C   UNL     1     111.314 124.839 137.592  0.00  0.00    +0.000 A 
ATOM     18  C   UNL     1     111.545 124.521 136.218  0.00  0.00    +0.000 A 
ATOM     19  C   UNL     1     111.562 124.304 137.014  0.00  0.00    +0.000 A 
BRANCH  19  20
ATOM     20  O   UNL     1     111.827 123.554 137.232  0.00  0.00    +0.000 OA
ATOM     21  C   UNL     1     112.623 123.355 137.143  0.00  0.00    +0.000 C 
ENDBRANCH  19  20
ENDBRANCH  12  14
BRANCH   6  22
ATOM     22  O   UNL     1     111.783 130.045 136.023  0.00  0.00    +0.000 OA
ATOM     23  C   UNL     1     112.530 129.995 135.677  0.00  0.00    +0.000 C 
ENDBRANCH   6  22
ENDBRANCH   1   5
BRANCH   1  32
ATOM     24  O   UNL     1     109.541 130.638 136.712  0.00  0.00    +0.000 OA
ATOM     25  O   UNL     1     107.596 131.583 137.005  0.00  0.00    +0.000 OA
ATOM     26  O   UNL     1     107.653 131.491 135.359  0.00  0.00    +0.000 OA
ATOM     27  O   UNL     1     108.969 130.831 134.614  0.00  0.00    +0.000 OA
ATOM     28  C   UNL     1     108.882 130.968 137.084  0.00  0.00    +0.000 C 
ATOM     29  C   UNL     1     108.254 131.253 136.633  0.00  0.00    +0.000 C 
ATOM     30  C   UNL     1     108.282 131.207 135.810  0.00  0.00    +0.000 C 
ATOM     31  C   UNL     1     108.940 130.877 135.438  0.00  0.00    +0.000 C 
ATOM     32  C   UNL     1     109.570 130.592 135.889  0.00  0.00    +0.000 C 
BRANCH  28  33
ATOM     33  C   UNL     1     108.854 131.014 137.907  0.00  0.00    +0.000 C 
BRANCH  33  34
ATOM     34  O   UNL     1     109.555 131.047 138.342  0.00  0.00    +0.000 OA
BRANCH  34  40
ATOM     35  O   UNL     1     108.914 130.615 139.544  0.00  0.00    +0.000 OA
ATOM     36  O   UNL     1     110.742 131.767 139.234  0.00  0.00    +0.000 OA
ATOM     37  O   UNL     1     110.694 131.694 140.882  0.00  0.00    +0.000 OA
ATOM     38  O   UNL     1     109.459 130.902 141.638  0.00  0.00    +0.000 OA
ATOM     39  C   UNL     1     110.125 131.371 139.612  0.00  0.00    +0.000 C 
ATOM     40  C   UNL     1     109.531 131.011 139.166  0.00  0.00    +0.000 C 
ATOM     41  C   UNL     1     110.101 131.335 140.436  0.00  0.00    +0.000 C 
ATOM     42  C   UNL     1     109.484 130.939 140.814  0.00  0.00    +0.000 C 
ATOM     43  C   UNL     1     108.890 130.579 140.368  0.00  0.00    +0.000 C 
ATOM     44  C   UNL     1     108.273 130.183 140.746  0.00  0.00    +0.000 C 
ENDBRANCH  34  40
ENDBRANCH  33  34
ENDBRANCH  28  33
ENDBRANCH   1  32
TORSDOF 8
ENDMDL
MODEL 6
REMARK VINA RESULT:      -9.5      4.201      6.142
REMARK  Name = 44257592
REMARK  8 active torsions:
REMARK  status: ('A' for Active; 'I' for Inactive)
REMARK    1  A    between atoms: O_2  and  C_21
REMARK    2  A    between atoms: O_2  and  C_25
REMARK    3  A    between atoms: O_6  and  C_24
REMARK    4  A    between atoms: O_6  and  C_28
REMARK    5  A    between atoms: O_11  and  C_29
REMARK    6  A    between atoms: O_15  and  C_43
REMARK    7  A    between atoms: C_16  and  C_25
REMARK    8  A    between atoms: C_35  and  C_38
REMARK                            x       y       z     vdW  Elec       q    Type
REMARK                         _______ _______ _______ _____ _____    ______ ____
ROOT
ATOM      1  O   UNL     1     112.125 128.646 141.986  0.00  0.00    +0.000 OA
ENDROOT
BRANCH   1   5
ATOM      2  O   UNL     1     111.916 131.156 144.171  0.00  0.00    +0.000 OA
ATOM      3  O   UNL     1     112.421 131.418 142.615  0.00  0.00    +0.000 OA
ATOM      4  O   UNL     1     111.303 128.799 144.862  0.00  0.00    +0.000 OA
ATOM      5  C   UNL     1     112.073 129.265 142.528  0.00  0.00    +0.000 A 
ATOM      6  C   UNL     1     112.273 130.032 142.301  0.00  0.00    +0.000 A 
ATOM      7  C   UNL     1     111.819 129.117 143.299  0.00  0.00    +0.000 A 
ATOM      8  C   UNL     1     111.766 129.736 143.843  0.00  0.00    +0.000 A 
ATOM      9  C   UNL     1     112.220 130.651 142.843  0.00  0.00    +0.000 A 
ATOM     10  C   UNL     1     111.967 130.503 143.614  0.00  0.00    +0.000 A 
ATOM     11  C   UNL     1     111.501 129.569 144.642  0.00  0.00    +0.000 A 
ATOM     12  C   UNL     1     111.653 131.009 144.975  0.00  0.00    +0.000 A 
ATOM     13  C   UNL     1     111.444 130.209 145.212  0.00  0.00    +0.000 A 
BRANCH  12  14
ATOM     14  C   UNL     1     111.601 131.630 145.516  0.00  0.00    +0.000 A 
ATOM     15  C   UNL     1     110.900 132.061 145.583  0.00  0.00    +0.000 A 
ATOM     16  C   UNL     1     112.249 131.820 145.989  0.00  0.00    +0.000 A 
ATOM     17  C   UNL     1     110.848 132.681 146.123  0.00  0.00    +0.000 A 
ATOM     18  C   UNL     1     112.196 132.441 146.530  0.00  0.00    +0.000 A 
ATOM     19  C   UNL     1     111.496 132.872 146.597  0.00  0.00    +0.000 A 
BRANCH  19  20
ATOM     20  O   UNL     1     111.444 133.493 147.138  0.00  0.00    +0.000 OA
ATOM     21  C   UNL     1     111.288 133.336 147.932  0.00  0.00    +0.000 C 
ENDBRANCH  19  20
ENDBRANCH  12  14
BRANCH   6  22
ATOM     22  O   UNL     1     112.527 130.180 141.529  0.00  0.00    +0.000 OA
ATOM     23  C   UNL     1     113.304 130.418 141.389  0.00  0.00    +0.000 C 
ENDBRANCH   6  22
ENDBRANCH   1   5
BRANCH   1  32
ATOM     24  O   UNL     1     110.714 128.551 141.779  0.00  0.00    +0.000 OA
ATOM     25  O   UNL     1     109.455 126.841 141.278  0.00  0.00    +0.000 OA
ATOM     26  O   UNL     1     110.941 126.127 141.337  0.00  0.00    +0.000 OA
ATOM     27  O   UNL     1     112.277 127.030 141.691  0.00  0.00    +0.000 OA
ATOM     28  C   UNL     1     110.047 128.100 141.602  0.00  0.00    +0.000 C 
ATOM     29  C   UNL     1     110.123 127.292 141.455  0.00  0.00    +0.000 C 
ATOM     30  C   UNL     1     110.866 126.935 141.485  0.00  0.00    +0.000 C 
ATOM     31  C   UNL     1     111.533 127.386 141.662  0.00  0.00    +0.000 C 
ATOM     32  C   UNL     1     111.458 128.195 141.809  0.00  0.00    +0.000 C 
BRANCH  28  33
ATOM     33  C   UNL     1     109.304 128.458 141.573  0.00  0.00    +0.000 C 
BRANCH  33  34
ATOM     34  O   UNL     1     109.195 129.144 141.129  0.00  0.00    +0.000 OA
BRANCH  34  40
ATOM     35  O   UNL     1     108.647 129.932 142.188  0.00  0.00    +0.000 OA
ATOM     36  O   UNL     1     108.190 129.891 140.053  0.00  0.00    +0.000 OA
ATOM     37  O   UNL     1     107.140 131.052 140.575  0.00  0.00    +0.000 OA
ATOM     38  O   UNL     1     107.094 131.467 142.171  0.00  0.00    +0.000 OA
ATOM     39  C   UNL     1     108.167 130.098 140.851  0.00  0.00    +0.000 C 
ATOM     40  C   UNL     1     108.669 129.725 141.389  0.00  0.00    +0.000 C 
ATOM     41  C   UNL     1     107.642 130.679 141.112  0.00  0.00    +0.000 C 
ATOM     42  C   UNL     1     107.619 130.886 141.910  0.00  0.00    +0.000 C 
ATOM     43  C   UNL     1     108.121 130.513 142.448  0.00  0.00    +0.000 C 
ATOM     44  C   UNL     1     108.098 130.720 143.246  0.00  0.00    +0.000 C 
ENDBRANCH  34  40
ENDBRANCH  33  34
ENDBRANCH  28  33
ENDBRANCH   1  32
TORSDOF 8
ENDMDL
MODEL 7
REMARK VINA RESULT:      -9.4      1.949      5.267
REMARK  Name = 44257592
REMARK  8 active torsions:
REMARK  status: ('A' for Active; 'I' for Inactive)
REMARK    1  A    between atoms: O_2  and  C_21
REMARK    2  A    between atoms: O_2  and  C_25
REMARK    3  A    between atoms: O_6  and  C_24
REMARK    4  A    between atoms: O_6  and  C_28
REMARK    5  A    between atoms: O_11  and  C_29
REMARK    6  A    between atoms: O_15  and  C_43
REMARK    7  A    between atoms: C_16  and  C_25
REMARK    8  A    between atoms: C_35  and  C_38
REMARK                            x       y       z     vdW  Elec       q    Type
REMARK                         _______ _______ _______ _____ _____    ______ ____
ROOT
ATOM      1  O   UNL     1     112.457 126.568 136.223  0.00  0.00    +0.000 OA
ENDROOT
BRANCH   1   5
ATOM      2  O   UNL     1     110.732 129.390 135.801  0.00  0.00    +0.000 OA
ATOM      3  O   UNL     1     112.303 129.420 136.326  0.00  0.00    +0.000 OA
ATOM      4  O   UNL     1     109.660 127.147 135.322  0.00  0.00    +0.000 OA
ATOM      5  C   UNL     1     112.028 127.264 136.118  0.00  0.00    +0.000 A 
ATOM      6  C   UNL     1     112.380 127.994 136.274  0.00  0.00    +0.000 A 
ATOM      7  C   UNL     1     111.247 127.231 135.855  0.00  0.00    +0.000 A 
ATOM      8  C   UNL     1     110.817 127.928 135.750  0.00  0.00    +0.000 A 
ATOM      9  C   UNL     1     111.951 128.690 136.169  0.00  0.00    +0.000 A 
ATOM     10  C   UNL     1     111.170 128.657 135.907  0.00  0.00    +0.000 A 
ATOM     11  C   UNL     1     110.004 127.880 135.477  0.00  0.00    +0.000 A 
ATOM     12  C   UNL     1     109.918 129.363 135.528  0.00  0.00    +0.000 A 
ATOM     13  C   UNL     1     109.552 128.602 135.365  0.00  0.00    +0.000 A 
BRANCH  12  14
ATOM     14  C   UNL     1     109.491 130.061 135.424  0.00  0.00    +0.000 A 
ATOM     15  C   UNL     1     109.003 130.340 136.028  0.00  0.00    +0.000 A 
ATOM     16  C   UNL     1     109.552 130.480 134.716  0.00  0.00    +0.000 A 
ATOM     17  C   UNL     1     108.576 131.037 135.924  0.00  0.00    +0.000 A 
ATOM     18  C   UNL     1     109.125 131.177 134.612  0.00  0.00    +0.000 A 
ATOM     19  C   UNL     1     108.636 131.457 135.216  0.00  0.00    +0.000 A 
BRANCH  19  20
ATOM     20  O   UNL     1     108.209 132.155 135.111  0.00  0.00    +0.000 OA
ATOM     21  C   UNL     1     107.458 132.132 134.771  0.00  0.00    +0.000 C 
ENDBRANCH  19  20
ENDBRANCH  12  14
BRANCH   6  22
ATOM     22  O   UNL     1     113.162 128.027 136.537  0.00  0.00    +0.000 OA
ATOM     23  C   UNL     1     113.744 128.361 136.058  0.00  0.00    +0.000 C 
ENDBRANCH   6  22
ENDBRANCH   1   5
BRANCH   1  32
ATOM     24  O   UNL     1     111.895 126.155 137.470  0.00  0.00    +0.000 OA
ATOM     25  O   UNL     1     111.280 124.185 138.178  0.00  0.00    +0.000 OA
ATOM     26  O   UNL     1     111.816 123.818 136.662  0.00  0.00    +0.000 OA
ATOM     27  O   UNL     1     112.405 125.009 135.684  0.00  0.00    +0.000 OA
ATOM     28  C   UNL     1     111.601 125.559 137.959  0.00  0.00    +0.000 C 
ATOM     29  C   UNL     1     111.574 124.781 137.690  0.00  0.00    +0.000 C 
ATOM     30  C   UNL     1     111.842 124.596 136.931  0.00  0.00    +0.000 C 
ATOM     31  C   UNL     1     112.137 125.192 136.442  0.00  0.00    +0.000 C 
ATOM     32  C   UNL     1     112.163 125.972 136.712  0.00  0.00    +0.000 C 
BRANCH  28  33
ATOM     33  C   UNL     1     111.333 125.744 138.717  0.00  0.00    +0.000 C 
BRANCH  33  34
ATOM     34  O   UNL     1     111.764 126.262 139.192  0.00  0.00    +0.000 OA
BRANCH  34  40
ATOM     35  O   UNL     1     110.666 126.380 140.099  0.00  0.00    +0.000 OA
ATOM     36  O   UNL     1     112.755 126.983 140.298  0.00  0.00    +0.000 OA
ATOM     37  O   UNL     1     112.152 127.461 141.757  0.00  0.00    +0.000 OA
ATOM     38  O   UNL     1     110.559 127.219 142.111  0.00  0.00    +0.000 OA
ATOM     39  C   UNL     1     111.959 126.862 140.475  0.00  0.00    +0.000 C 
ATOM     40  C   UNL     1     111.464 126.502 139.922  0.00  0.00    +0.000 C 
ATOM     41  C   UNL     1     111.657 127.101 141.204  0.00  0.00    +0.000 C 
ATOM     42  C   UNL     1     110.861 126.980 141.382  0.00  0.00    +0.000 C 
ATOM     43  C   UNL     1     110.365 126.619 140.829  0.00  0.00    +0.000 C 
ATOM     44  C   UNL     1     109.568 126.498 141.006  0.00  0.00    +0.000 C 
ENDBRANCH  34  40
ENDBRANCH  33  34
ENDBRANCH  28  33
ENDBRANCH   1  32
TORSDOF 8
ENDMDL
MODEL 8
REMARK VINA RESULT:      -9.4      2.173      6.284
REMARK  Name = 44257592
REMARK  8 active torsions:
REMARK  status: ('A' for Active; 'I' for Inactive)
REMARK    1  A    between atoms: O_2  and  C_21
REMARK    2  A    between atoms: O_2  and  C_25
REMARK    3  A    between atoms: O_6  and  C_24
REMARK    4  A    between atoms: O_6  and  C_28
REMARK    5  A    between atoms: O_11  and  C_29
REMARK    6  A    between atoms: O_15  and  C_43
REMARK    7  A    between atoms: C_16  and  C_25
REMARK    8  A    between atoms: C_35  and  C_38
REMARK                            x       y       z     vdW  Elec       q    Type
REMARK                         _______ _______ _______ _____ _____    ______ ____
ROOT
ATOM      1  O   UNL     1     111.538 130.236 136.075  0.00  0.00    +0.000 OA
ENDROOT
BRANCH   1   5
ATOM      2  O   UNL     1     112.186 126.970 136.256  0.00  0.00    +0.000 OA
ATOM      3  O   UNL     1     113.263 128.017 135.557  0.00  0.00    +0.000 OA
ATOM      4  O   UNL     1     110.025 127.904 137.189  0.00  0.00    +0.000 OA
ATOM      5  C   UNL     1     111.695 129.428 136.121  0.00  0.00    +0.000 A 
ATOM      6  C   UNL     1     112.400 129.126 135.816  0.00  0.00    +0.000 A 
ATOM      7  C   UNL     1     111.148 128.921 136.472  0.00  0.00    +0.000 A 
ATOM      8  C   UNL     1     111.305 128.111 136.519  0.00  0.00    +0.000 A 
ATOM      9  C   UNL     1     112.558 128.318 135.862  0.00  0.00    +0.000 A 
ATOM     10  C   UNL     1     112.010 127.811 136.213  0.00  0.00    +0.000 A 
ATOM     11  C   UNL     1     110.727 127.594 136.887  0.00  0.00    +0.000 A 
ATOM     12  C   UNL     1     111.620 126.436 136.620  0.00  0.00    +0.000 A 
ATOM     13  C   UNL     1     110.885 126.751 136.938  0.00  0.00    +0.000 A 
BRANCH  12  14
ATOM     14  C   UNL     1     111.780 125.628 136.665  0.00  0.00    +0.000 A 
ATOM     15  C   UNL     1     111.458 125.113 136.106  0.00  0.00    +0.000 A 
ATOM     16  C   UNL     1     112.261 125.336 137.268  0.00  0.00    +0.000 A 
ATOM     17  C   UNL     1     111.618 124.306 136.151  0.00  0.00    +0.000 A 
ATOM     18  C   UNL     1     112.421 124.528 137.312  0.00  0.00    +0.000 A 
ATOM     19  C   UNL     1     112.099 124.012 136.754  0.00  0.00    +0.000 A 
BRANCH  19  20
ATOM     20  O   UNL     1     112.259 123.204 136.799  0.00  0.00    +0.000 OA
ATOM     21  C   UNL     1     111.889 122.741 137.372  0.00  0.00    +0.000 C 
ENDBRANCH  19  20
ENDBRANCH  12  14
BRANCH   6  22
ATOM     22  O   UNL     1     112.948 129.634 135.465  0.00  0.00    +0.000 OA
ATOM     23  C   UNL     1     113.204 129.495 134.694  0.00  0.00    +0.000 C 
ENDBRANCH   6  22
ENDBRANCH   1   5
BRANCH   1  32
ATOM     24  O   UNL     1     111.808 130.498 137.454  0.00  0.00    +0.000 OA
ATOM     25  O   UNL     1     110.949 131.961 138.826  0.00  0.00    +0.000 OA
ATOM     26  O   UNL     1     110.113 132.300 137.445  0.00  0.00    +0.000 OA
ATOM     27  O   UNL     1     110.407 131.437 136.069  0.00  0.00    +0.000 OA
ATOM     28  C   UNL     1     111.661 130.929 138.141  0.00  0.00    +0.000 C 
ATOM     29  C   UNL     1     111.096 131.530 138.138  0.00  0.00    +0.000 C 
ATOM     30  C   UNL     1     110.678 131.700 137.448  0.00  0.00    +0.000 C 
ATOM     31  C   UNL     1     110.825 131.268 136.760  0.00  0.00    +0.000 C 
ATOM     32  C   UNL     1     111.391 130.667 136.763  0.00  0.00    +0.000 C 
BRANCH  28  33
ATOM     33  C   UNL     1     112.080 130.759 138.832  0.00  0.00    +0.000 C 
BRANCH  33  34
ATOM     34  O   UNL     1     112.898 130.660 138.804  0.00  0.00    +0.000 OA
BRANCH  34  40
ATOM     35  O   UNL     1     112.950 129.398 139.470  0.00  0.00    +0.000 OA
ATOM     36  O   UNL     1     114.282 131.124 139.574  0.00  0.00    +0.000 OA
ATOM     37  O   UNL     1     115.026 130.093 140.625  0.00  0.00    +0.000 OA
ATOM     38  O   UNL     1     114.386 128.598 140.907  0.00  0.00    +0.000 OA
ATOM     39  C   UNL     1     113.962 130.377 139.715  0.00  0.00    +0.000 C 
ATOM     40  C   UNL     1     113.271 130.145 139.329  0.00  0.00    +0.000 C 
ATOM     41  C   UNL     1     114.334 129.861 140.240  0.00  0.00    +0.000 C 
ATOM     42  C   UNL     1     114.014 129.114 140.381  0.00  0.00    +0.000 C 
ATOM     43  C   UNL     1     113.322 128.883 139.996  0.00  0.00    +0.000 C 
ATOM     44  C   UNL     1     113.002 128.135 140.137  0.00  0.00    +0.000 C 
ENDBRANCH  34  40
ENDBRANCH  33  34
ENDBRANCH  28  33
ENDBRANCH   1  32
TORSDOF 8
ENDMDL
MODEL 9
REMARK VINA RESULT:      -9.3      2.355      6.080
REMARK  Name = 44257592
REMARK  8 active torsions:
REMARK  status: ('A' for Active; 'I' for Inactive)
REMARK    1  A    between atoms: O_2  and  C_21
REMARK    2  A    between atoms: O_2  and  C_25
REMARK    3  A    between atoms: O_6  and  C_24
REMARK    4  A    between atoms: O_6  and  C_28
REMARK    5  A    between atoms: O_11  and  C_29
REMARK    6  A    between atoms: O_15  and  C_43
REMARK    7  A    between atoms: C_16  and  C_25
REMARK    8  A    between atoms: C_35  and  C_38
REMARK                            x       y       z     vdW  Elec       q    Type
REMARK                         _______ _______ _______ _____ _____    ______ ____
ROOT
ATOM      1  O   UNL     1     113.832 130.473 138.244  0.00  0.00    +0.000 OA
ENDROOT
BRANCH   1   5
ATOM      2  O   UNL     1     111.038 130.911 136.479  0.00  0.00    +0.000 OA
ATOM      3  O   UNL     1     112.391 130.254 135.786  0.00  0.00    +0.000 OA
ATOM      4  O   UNL     1     111.132 131.580 138.919  0.00  0.00    +0.000 OA
ATOM      5  C   UNL     1     113.140 130.582 137.810  0.00  0.00    +0.000 A 
ATOM      6  C   UNL     1     113.112 130.364 137.015  0.00  0.00    +0.000 A 
ATOM      7  C   UNL     1     112.475 130.911 138.171  0.00  0.00    +0.000 A 
ATOM      8  C   UNL     1     111.781 131.021 137.736  0.00  0.00    +0.000 A 
ATOM      9  C   UNL     1     112.419 130.473 136.581  0.00  0.00    +0.000 A 
ATOM     10  C   UNL     1     111.754 130.801 136.941  0.00  0.00    +0.000 A 
ATOM     11  C   UNL     1     111.095 131.364 138.124  0.00  0.00    +0.000 A 
ATOM     12  C   UNL     1     110.341 131.252 136.848  0.00  0.00    +0.000 A 
ATOM     13  C   UNL     1     110.371 131.480 137.676  0.00  0.00    +0.000 A 
BRANCH  12  14
ATOM     14  C   UNL     1     109.650 131.361 136.411  0.00  0.00    +0.000 A 
ATOM     15  C   UNL     1     109.517 132.076 136.020  0.00  0.00    +0.000 A 
ATOM     16  C   UNL     1     109.091 130.755 136.366  0.00  0.00    +0.000 A 
ATOM     17  C   UNL     1     108.826 132.183 135.584  0.00  0.00    +0.000 A 
ATOM     18  C   UNL     1     108.401 130.864 135.929  0.00  0.00    +0.000 A 
ATOM     19  C   UNL     1     108.267 131.578 135.538  0.00  0.00    +0.000 A 
BRANCH  19  20
ATOM     20  O   UNL     1     107.576 131.687 135.101  0.00  0.00    +0.000 OA
ATOM     21  C   UNL     1     106.858 131.813 135.489  0.00  0.00    +0.000 C 
ENDBRANCH  19  20
ENDBRANCH  12  14
BRANCH   6  22
ATOM     22  O   UNL     1     113.777 130.035 136.654  0.00  0.00    +0.000 OA
ATOM     23  C   UNL     1     114.157 130.438 136.043  0.00  0.00    +0.000 C 
ENDBRANCH   6  22
ENDBRANCH   1   5
BRANCH   1  32
ATOM     24  O   UNL     1     113.456 129.273 138.922  0.00  0.00    +0.000 OA
ATOM     25  O   UNL     1     113.789 128.630 140.981  0.00  0.00    +0.000 OA
ATOM     26  O   UNL     1     114.519 130.109 140.994  0.00  0.00    +0.000 OA
ATOM     27  O   UNL     1     114.541 131.031 139.626  0.00  0.00    +0.000 OA
ATOM     28  C   UNL     1     113.445 128.812 139.607  0.00  0.00    +0.000 C 
ATOM     29  C   UNL     1     113.800 129.091 140.297  0.00  0.00    +0.000 C 
ATOM     30  C   UNL     1     114.165 129.830 140.304  0.00  0.00    +0.000 C 
ATOM     31  C   UNL     1     114.176 130.291 139.620  0.00  0.00    +0.000 C 
ATOM     32  C   UNL     1     113.821 130.012 138.928  0.00  0.00    +0.000 C 
BRANCH  28  33
ATOM     33  C   UNL     1     113.080 128.072 139.599  0.00  0.00    +0.000 C 
BRANCH  33  34
ATOM     34  O   UNL     1     113.159 127.580 138.942  0.00  0.00    +0.000 OA
BRANCH  34  40
ATOM     35  O   UNL     1     111.907 126.946 139.210  0.00  0.00    +0.000 OA
ATOM     36  O   UNL     1     113.598 126.308 137.986  0.00  0.00    +0.000 OA
ATOM     37  O   UNL     1     112.565 125.039 137.776  0.00  0.00    +0.000 OA
ATOM     38  O   UNL     1     111.094 125.041 138.522  0.00  0.00    +0.000 OA
ATOM     39  C   UNL     1     112.863 126.309 138.359  0.00  0.00    +0.000 C 
ATOM     40  C   UNL     1     112.644 126.945 138.837  0.00  0.00    +0.000 C 
ATOM     41  C   UNL     1     112.346 125.674 138.254  0.00  0.00    +0.000 C 
ATOM     42  C   UNL     1     111.611 125.675 138.627  0.00  0.00    +0.000 C 
ATOM     43  C   UNL     1     111.391 126.311 139.105  0.00  0.00    +0.000 C 
ATOM     44  C   UNL     1     110.655 126.312 139.479  0.00  0.00    +0.000 C 
ENDBRANCH  34  40
ENDBRANCH  33  34
ENDBRANCH  28  33
ENDBRANCH   1  32
TORSDOF 8
ENDMDL
MODEL 10
REMARK VINA RESULT:      -9.3      2.590      4.207
REMARK  Name = 44257592
REMARK  8 active torsions:
REMARK  status: ('A' for Active; 'I' for Inactive)
REMARK    1  A    between atoms: O_2  and  C_21
REMARK    2  A    between atoms: O_2  and  C_25
REMARK    3  A    between atoms: O_6  and  C_24
REMARK    4  A    between atoms: O_6  and  C_28
REMARK    5  A    between atoms: O_11  and  C_29
REMARK    6  A    between atoms: O_15  and  C_43
REMARK    7  A    between atoms: C_16  and  C_25
REMARK    8  A    between atoms: C_35  and  C_38
REMARK                            x       y       z     vdW  Elec       q    Type
REMARK                         _______ _______ _______ _____ _____    ______ ____
ROOT
ATOM      1  O   UNL     1     112.698 130.506 137.258  0.00  0.00    +0.000 OA
ENDROOT
BRANCH   1   5
ATOM      2  O   UNL     1     111.820 129.714 140.375  0.00  0.00    +0.000 OA
ATOM      3  O   UNL     1     110.679 130.113 139.242  0.00  0.00    +0.000 OA
ATOM      4  O   UNL     1     114.257 129.716 139.690  0.00  0.00    +0.000 OA
ATOM      5  C   UNL     1     112.484 130.309 138.029  0.00  0.00    +0.000 A 
ATOM      6  C   UNL     1     111.689 130.309 138.250  0.00  0.00    +0.000 A 
ATOM      7  C   UNL     1     113.065 130.113 138.581  0.00  0.00    +0.000 A 
ATOM      8  C   UNL     1     112.850 129.916 139.354  0.00  0.00    +0.000 A 
ATOM      9  C   UNL     1     111.474 130.113 139.022  0.00  0.00    +0.000 A 
ATOM     10  C   UNL     1     112.055 129.917 139.574  0.00  0.00    +0.000 A 
ATOM     11  C   UNL     1     113.465 129.714 139.919  0.00  0.00    +0.000 A 
ATOM     12  C   UNL     1     112.419 129.508 140.955  0.00  0.00    +0.000 A 
ATOM     13  C   UNL     1     113.248 129.508 140.725  0.00  0.00    +0.000 A 
BRANCH  12  14
ATOM     14  C   UNL     1     112.202 129.312 141.727  0.00  0.00    +0.000 A 
ATOM     15  C   UNL     1     112.187 129.895 142.311  0.00  0.00    +0.000 A 
ATOM     16  C   UNL     1     112.001 128.535 141.914  0.00  0.00    +0.000 A 
ATOM     17  C   UNL     1     111.970 129.699 143.081  0.00  0.00    +0.000 A 
ATOM     18  C   UNL     1     111.784 128.340 142.685  0.00  0.00    +0.000 A 
ATOM     19  C   UNL     1     111.768 128.922 143.269  0.00  0.00    +0.000 A 
BRANCH  19  20
ATOM     20  O   UNL     1     111.551 128.726 144.041  0.00  0.00    +0.000 OA
ATOM     21  C   UNL     1     111.606 129.289 144.641  0.00  0.00    +0.000 C 
ENDBRANCH  19  20
ENDBRANCH  12  14
BRANCH   6  22
ATOM     22  O   UNL     1     111.108 130.506 137.698  0.00  0.00    +0.000 OA
ATOM     23  C   UNL     1     110.658 131.190 137.797  0.00  0.00    +0.000 C 
ENDBRANCH   6  22
ENDBRANCH   1   5
BRANCH   1  32
ATOM     24  O   UNL     1     112.923 129.190 136.747  0.00  0.00    +0.000 OA
ATOM     25  O   UNL     1     114.505 128.406 135.464  0.00  0.00    +0.000 OA
ATOM     26  O   UNL     1     114.959 129.988 135.589  0.00  0.00    +0.000 OA
ATOM     27  O   UNL     1     114.056 131.037 136.486  0.00  0.00    +0.000 OA
ATOM     28  C   UNL     1     113.375 128.665 136.298  0.00  0.00    +0.000 C 
ATOM     29  C   UNL     1     114.053 128.931 135.912  0.00  0.00    +0.000 C 
ATOM     30  C   UNL     1     114.281 129.722 135.974  0.00  0.00    +0.000 C 
ATOM     31  C   UNL     1     113.829 130.247 136.423  0.00  0.00    +0.000 C 
ATOM     32  C   UNL     1     113.150 129.981 136.809  0.00  0.00    +0.000 C 
BRANCH  28  33
ATOM     33  C   UNL     1     113.147 127.875 136.236  0.00  0.00    +0.000 C 
BRANCH  33  34
ATOM     34  O   UNL     1     112.348 127.680 136.169  0.00  0.00    +0.000 OA
BRANCH  34  40
ATOM     35  O   UNL     1     112.586 126.311 136.503  0.00  0.00    +0.000 OA
ATOM     36  O   UNL     1     110.948 127.252 135.409  0.00  0.00    +0.000 OA
ATOM     37  O   UNL     1     110.485 125.669 135.362  0.00  0.00    +0.000 OA
ATOM     38  O   UNL     1     111.423 124.514 136.076  0.00  0.00    +0.000 OA
ATOM     39  C   UNL     1     111.416 126.675 135.765  0.00  0.00    +0.000 C 
ATOM     40  C   UNL     1     112.117 126.889 136.146  0.00  0.00    +0.000 C 
ATOM     41  C   UNL     1     111.186 125.883 135.742  0.00  0.00    +0.000 C 
ATOM     42  C   UNL     1     111.654 125.306 136.099  0.00  0.00    +0.000 C 
ATOM     43  C   UNL     1     112.354 125.520 136.479  0.00  0.00    +0.000 C 
ATOM     44  C   UNL     1     112.823 124.942 136.836  0.00  0.00    +0.000 C 
ENDBRANCH  34  40
ENDBRANCH  33  34
ENDBRANCH  28  33
ENDBRANCH   1  32
TORSDOF 8
ENDMDL
