MODEL 1
REMARK VINA RESULT:      -7.9      0.000      0.000
REMARK  Name = 44259894
REMARK  5 active torsions:
REMARK  status: ('A' for Active; 'I' for Inactive)
REMARK    1  A    between atoms: O_2  and  C_13
REMARK    2  A    between atoms: O_3  and  C_18
REMARK    3  A    between atoms: O_4  and  C_19
REMARK    4  A    between atoms: O_8  and  C_24
REMARK    5  A    between atoms: C_12  and  C_14
REMARK                            x       y       z     vdW  Elec       q    Type
REMARK                         _______ _______ _______ _____ _____    ______ ____
ROOT
ATOM      1  O   UNL     1     104.137 124.892 147.351  0.00  0.00    +0.000 OA
ATOM      2  O   UNL     1     102.190 123.548 145.693  0.00  0.00    +0.000 OA
ATOM      3  O   UNL     1     103.579 123.606 145.311  0.00  0.00    +0.000 OA
ATOM      4  C   UNL     1     103.174 124.228 146.532  0.00  0.00    +0.000 A 
ATOM      5  C   UNL     1     103.359 124.657 147.212  0.00  0.00    +0.000 A 
ATOM      6  C   UNL     1     104.730 124.700 146.810  0.00  0.00    +0.000 A 
ATOM      7  C   UNL     1     104.544 124.271 146.130  0.00  0.00    +0.000 A 
ATOM      8  C   UNL     1     103.765 124.035 145.991  0.00  0.00    +0.000 A 
ATOM      9  C   UNL     1     102.366 123.976 146.375  0.00  0.00    +0.000 A 
ATOM     10  C   UNL     1     102.751 124.864 147.783  0.00  0.00    +0.000 A 
ATOM     11  C   UNL     1     101.745 124.174 146.935  0.00  0.00    +0.000 A 
ATOM     12  C   UNL     1     101.939 124.621 147.643  0.00  0.00    +0.000 A 
ENDROOT
BRANCH   6  15
ATOM     13  O   UNL     1     105.624 123.948 147.975  0.00  0.00    +0.000 OA
ATOM     14  O   UNL     1     106.949 126.394 146.201  0.00  0.00    +0.000 OA
ATOM     15  C   UNL     1     105.508 124.935 146.949  0.00  0.00    +0.000 A 
ATOM     16  C   UNL     1     105.955 124.559 147.531  0.00  0.00    +0.000 A 
ATOM     17  C   UNL     1     105.840 125.547 146.505  0.00  0.00    +0.000 A 
ATOM     18  C   UNL     1     106.617 125.783 146.644  0.00  0.00    +0.000 A 
ATOM     19  C   UNL     1     106.734 124.795 147.670  0.00  0.00    +0.000 A 
ATOM     20  C   UNL     1     107.064 125.407 147.227  0.00  0.00    +0.000 A 
BRANCH  20  21
ATOM     21  O   UNL     1     107.843 125.642 147.366  0.00  0.00    +0.000 OA
ATOM     22  C   UNL     1     108.341 125.171 147.823  0.00  0.00    +0.000 C 
ENDBRANCH  20  21
ENDBRANCH   6  15
BRANCH   7  23
ATOM     23  O   UNL     1     105.136 124.078 145.589  0.00  0.00    +0.000 OA
ATOM     24  C   UNL     1     104.935 123.809 144.835  0.00  0.00    +0.000 C 
ENDBRANCH   7  23
BRANCH  11  25
ATOM     25  O   UNL     1     100.968 123.937 146.793  0.00  0.00    +0.000 OA
ATOM     26  C   UNL     1     100.735 123.164 146.962  0.00  0.00    +0.000 C 
ENDBRANCH  11  25
BRANCH  12  27
ATOM     27  O   UNL     1     101.349 124.815 148.186  0.00  0.00    +0.000 OA
ATOM     28  C   UNL     1     101.471 125.426 148.727  0.00  0.00    +0.000 C 
ENDBRANCH  12  27
TORSDOF 5
ENDMDL
MODEL 2
REMARK VINA RESULT:      -7.8     12.619     14.664
REMARK  Name = 44259894
REMARK  5 active torsions:
REMARK  status: ('A' for Active; 'I' for Inactive)
REMARK    1  A    between atoms: O_2  and  C_13
REMARK    2  A    between atoms: O_3  and  C_18
REMARK    3  A    between atoms: O_4  and  C_19
REMARK    4  A    between atoms: O_8  and  C_24
REMARK    5  A    between atoms: C_12  and  C_14
REMARK                            x       y       z     vdW  Elec       q    Type
REMARK                         _______ _______ _______ _____ _____    ______ ____
ROOT
ATOM      1  O   UNL     1     113.846 127.663 136.406  0.00  0.00    +0.000 OA
ATOM      2  O   UNL     1     111.401 126.149 136.129  0.00  0.00    +0.000 OA
ATOM      3  O   UNL     1     111.485 127.516 135.678  0.00  0.00    +0.000 OA
ATOM      4  C   UNL     1     112.638 126.914 136.270  0.00  0.00    +0.000 A 
ATOM      5  C   UNL     1     113.425 126.962 136.512  0.00  0.00    +0.000 A 
ATOM      6  C   UNL     1     113.481 128.316 136.057  0.00  0.00    +0.000 A 
ATOM      7  C   UNL     1     112.694 128.267 135.815  0.00  0.00    +0.000 A 
ATOM      8  C   UNL     1     112.272 127.565 135.921  0.00  0.00    +0.000 A 
ATOM      9  C   UNL     1     112.187 126.188 136.375  0.00  0.00    +0.000 A 
ATOM     10  C   UNL     1     113.816 126.289 136.877  0.00  0.00    +0.000 A 
ATOM     11  C   UNL     1     112.562 125.506 136.737  0.00  0.00    +0.000 A 
ATOM     12  C   UNL     1     113.383 125.557 136.990  0.00  0.00    +0.000 A 
ENDROOT
BRANCH   6  15
ATOM     13  O   UNL     1     114.543 128.458 134.803  0.00  0.00    +0.000 OA
ATOM     14  O   UNL     1     114.105 130.979 136.887  0.00  0.00    +0.000 OA
ATOM     15  C   UNL     1     113.902 129.017 135.951  0.00  0.00    +0.000 A 
ATOM     16  C   UNL     1     114.433 129.088 135.324  0.00  0.00    +0.000 A 
ATOM     17  C   UNL     1     113.793 129.647 136.472  0.00  0.00    +0.000 A 
ATOM     18  C   UNL     1     114.214 130.348 136.366  0.00  0.00    +0.000 A 
ATOM     19  C   UNL     1     114.855 129.789 135.217  0.00  0.00    +0.000 A 
ATOM     20  C   UNL     1     114.745 130.419 135.739  0.00  0.00    +0.000 A 
BRANCH  20  21
ATOM     21  O   UNL     1     115.167 131.121 135.632  0.00  0.00    +0.000 OA
ATOM     22  C   UNL     1     115.559 131.262 134.921  0.00  0.00    +0.000 C 
ENDBRANCH  20  21
ENDBRANCH   6  15
BRANCH   7  23
ATOM     23  O   UNL     1     112.328 128.919 135.466  0.00  0.00    +0.000 OA
ATOM     24  C   UNL     1     111.506 128.949 135.409  0.00  0.00    +0.000 C 
ENDBRANCH   7  23
BRANCH  11  25
ATOM     25  O   UNL     1     112.138 124.806 136.842  0.00  0.00    +0.000 OA
ATOM     26  C   UNL     1     111.627 124.726 137.484  0.00  0.00    +0.000 C 
ENDBRANCH  11  25
BRANCH  12  27
ATOM     27  O   UNL     1     113.750 124.906 137.339  0.00  0.00    +0.000 OA
ATOM     28  C   UNL     1     114.573 124.875 137.388  0.00  0.00    +0.000 C 
ENDBRANCH  12  27
TORSDOF 5
ENDMDL
MODEL 3
REMARK VINA RESULT:      -7.7      9.560     11.356
REMARK  Name = 44259894
REMARK  5 active torsions:
REMARK  status: ('A' for Active; 'I' for Inactive)
REMARK    1  A    between atoms: O_2  and  C_13
REMARK    2  A    between atoms: O_3  and  C_18
REMARK    3  A    between atoms: O_4  and  C_19
REMARK    4  A    between atoms: O_8  and  C_24
REMARK    5  A    between atoms: C_12  and  C_14
REMARK                            x       y       z     vdW  Elec       q    Type
REMARK                         _______ _______ _______ _____ _____    ______ ____
ROOT
ATOM      1  O   UNL     1     111.643 131.683 145.234  0.00  0.00    +0.000 OA
ATOM      2  O   UNL     1     112.140 132.243 142.443  0.00  0.00    +0.000 OA
ATOM      3  O   UNL     1     112.020 133.309 143.407  0.00  0.00    +0.000 OA
ATOM      4  C   UNL     1     111.889 131.958 143.854  0.00  0.00    +0.000 A 
ATOM      5  C   UNL     1     111.763 131.416 144.463  0.00  0.00    +0.000 A 
ATOM      6  C   UNL     1     111.649 132.492 145.397  0.00  0.00    +0.000 A 
ATOM      7  C   UNL     1     111.775 133.034 144.788  0.00  0.00    +0.000 A 
ATOM      8  C   UNL     1     111.895 132.767 144.016  0.00  0.00    +0.000 A 
ATOM      9  C   UNL     1     112.015 131.693 143.045  0.00  0.00    +0.000 A 
ATOM     10  C   UNL     1     111.755 130.571 144.306  0.00  0.00    +0.000 A 
ATOM     11  C   UNL     1     112.010 130.852 142.870  0.00  0.00    +0.000 A 
ATOM     12  C   UNL     1     111.879 130.287 143.505  0.00  0.00    +0.000 A 
ENDROOT
BRANCH   6  15
ATOM     13  O   UNL     1     112.859 132.363 146.511  0.00  0.00    +0.000 OA
ATOM     14  O   UNL     1     109.961 133.687 147.368  0.00  0.00    +0.000 OA
ATOM     15  C   UNL     1     111.529 132.758 146.168  0.00  0.00    +0.000 A 
ATOM     16  C   UNL     1     112.135 132.694 146.725  0.00  0.00    +0.000 A 
ATOM     17  C   UNL     1     110.805 133.090 146.383  0.00  0.00    +0.000 A 
ATOM     18  C   UNL     1     110.685 133.356 147.153  0.00  0.00    +0.000 A 
ATOM     19  C   UNL     1     112.015 132.961 147.497  0.00  0.00    +0.000 A 
ATOM     20  C   UNL     1     111.290 133.292 147.711  0.00  0.00    +0.000 A 
BRANCH  20  21
ATOM     21  O   UNL     1     111.171 133.559 148.483  0.00  0.00    +0.000 OA
ATOM     22  C   UNL     1     111.707 133.360 149.075  0.00  0.00    +0.000 C 
ENDBRANCH  20  21
ENDBRANCH   6  15
BRANCH   7  23
ATOM     23  O   UNL     1     111.781 133.843 144.949  0.00  0.00    +0.000 OA
ATOM     24  C   UNL     1     111.913 134.384 144.342  0.00  0.00    +0.000 C 
ENDBRANCH   7  23
BRANCH  11  25
ATOM     25  O   UNL     1     112.130 130.588 142.098  0.00  0.00    +0.000 OA
ATOM     26  C   UNL     1     112.897 130.490 141.810  0.00  0.00    +0.000 C 
ENDBRANCH  11  25
BRANCH  12  27
ATOM     27  O   UNL     1     111.873 129.478 143.346  0.00  0.00    +0.000 OA
ATOM     28  C   UNL     1     111.587 128.948 143.910  0.00  0.00    +0.000 C 
ENDBRANCH  12  27
TORSDOF 5
ENDMDL
MODEL 4
REMARK VINA RESULT:      -7.7     12.831     14.160
REMARK  Name = 44259894
REMARK  5 active torsions:
REMARK  status: ('A' for Active; 'I' for Inactive)
REMARK    1  A    between atoms: O_2  and  C_13
REMARK    2  A    between atoms: O_3  and  C_18
REMARK    3  A    between atoms: O_4  and  C_19
REMARK    4  A    between atoms: O_8  and  C_24
REMARK    5  A    between atoms: C_12  and  C_14
REMARK                            x       y       z     vdW  Elec       q    Type
REMARK                         _______ _______ _______ _____ _____    ______ ____
ROOT
ATOM      1  O   UNL     1     113.456 127.064 136.575  0.00  0.00    +0.000 OA
ATOM      2  O   UNL     1     111.453 125.071 135.969  0.00  0.00    +0.000 OA
ATOM      3  O   UNL     1     111.228 126.465 135.678  0.00  0.00    +0.000 OA
ATOM      4  C   UNL     1     112.467 126.077 136.276  0.00  0.00    +0.000 A 
ATOM      5  C   UNL     1     113.209 126.277 136.575  0.00  0.00    +0.000 A 
ATOM      6  C   UNL     1     112.960 127.652 136.276  0.00  0.00    +0.000 A 
ATOM      7  C   UNL     1     112.218 127.453 135.977  0.00  0.00    +0.000 A 
ATOM      8  C   UNL     1     111.971 126.665 135.977  0.00  0.00    +0.000 A 
ATOM      9  C   UNL     1     112.198 125.260 136.270  0.00  0.00    +0.000 A 
ATOM     10  C   UNL     1     113.735 125.673 136.889  0.00  0.00    +0.000 A 
ATOM     11  C   UNL     1     112.710 124.644 136.580  0.00  0.00    +0.000 A 
ATOM     12  C   UNL     1     113.484 124.852 136.891  0.00  0.00    +0.000 A 
ENDROOT
BRANCH   6  15
ATOM     13  O   UNL     1     112.822 128.559 137.647  0.00  0.00    +0.000 OA
ATOM     14  O   UNL     1     114.084 129.894 134.906  0.00  0.00    +0.000 OA
ATOM     15  C   UNL     1     113.207 128.439 136.276  0.00  0.00    +0.000 A 
ATOM     16  C   UNL     1     113.137 128.892 136.962  0.00  0.00    +0.000 A 
ATOM     17  C   UNL     1     113.522 128.773 135.591  0.00  0.00    +0.000 A 
ATOM     18  C   UNL     1     113.769 129.560 135.591  0.00  0.00    +0.000 A 
ATOM     19  C   UNL     1     113.384 129.680 136.962  0.00  0.00    +0.000 A 
ATOM     20  C   UNL     1     113.700 130.013 136.277  0.00  0.00    +0.000 A 
BRANCH  20  21
ATOM     21  O   UNL     1     113.946 130.801 136.277  0.00  0.00    +0.000 OA
ATOM     22  C   UNL     1     113.692 131.313 136.871  0.00  0.00    +0.000 C 
ENDBRANCH  20  21
ENDBRANCH   6  15
BRANCH   7  23
ATOM     23  O   UNL     1     111.721 128.040 135.678  0.00  0.00    +0.000 OA
ATOM     24  C   UNL     1     111.122 127.843 135.147  0.00  0.00    +0.000 C 
ENDBRANCH   7  23
BRANCH  11  25
ATOM     25  O   UNL     1     112.460 123.858 136.578  0.00  0.00    +0.000 OA
ATOM     26  C   UNL     1     111.928 123.593 137.150  0.00  0.00    +0.000 C 
ENDBRANCH  11  25
BRANCH  12  27
ATOM     27  O   UNL     1     113.981 124.266 137.191  0.00  0.00    +0.000 OA
ATOM     28  C   UNL     1     114.756 124.453 137.404  0.00  0.00    +0.000 C 
ENDBRANCH  12  27
TORSDOF 5
ENDMDL
MODEL 5
REMARK VINA RESULT:      -7.6      1.115      4.789
REMARK  Name = 44259894
REMARK  5 active torsions:
REMARK  status: ('A' for Active; 'I' for Inactive)
REMARK    1  A    between atoms: O_2  and  C_13
REMARK    2  A    between atoms: O_3  and  C_18
REMARK    3  A    between atoms: O_4  and  C_19
REMARK    4  A    between atoms: O_8  and  C_24
REMARK    5  A    between atoms: C_12  and  C_14
REMARK                            x       y       z     vdW  Elec       q    Type
REMARK                         _______ _______ _______ _____ _____    ______ ____
ROOT
ATOM      1  O   UNL     1     104.353 124.762 145.989  0.00  0.00    +0.000 OA
ATOM      2  O   UNL     1     106.539 125.533 147.715  0.00  0.00    +0.000 OA
ATOM      3  O   UNL     1     105.364 124.887 148.245  0.00  0.00    +0.000 OA
ATOM      4  C   UNL     1     105.434 125.144 146.841  0.00  0.00    +0.000 A 
ATOM      5  C   UNL     1     105.098 125.102 146.089  0.00  0.00    +0.000 A 
ATOM      6  C   UNL     1     103.945 124.463 146.641  0.00  0.00    +0.000 A 
ATOM      7  C   UNL     1     104.282 124.504 147.393  0.00  0.00    +0.000 A 
ATOM      8  C   UNL     1     105.027 124.845 147.493  0.00  0.00    +0.000 A 
ATOM      9  C   UNL     1     106.210 125.496 146.959  0.00  0.00    +0.000 A 
ATOM     10  C   UNL     1     105.513 125.410 145.402  0.00  0.00    +0.000 A 
ATOM     11  C   UNL     1     106.640 125.809 146.284  0.00  0.00    +0.000 A 
ATOM     12  C   UNL     1     106.289 125.766 145.500  0.00  0.00    +0.000 A 
ENDROOT
BRANCH   6  15
ATOM     13  O   UNL     1     103.809 122.952 145.992  0.00  0.00    +0.000 OA
ATOM     14  O   UNL     1     101.102 124.611 146.889  0.00  0.00    +0.000 OA
ATOM     15  C   UNL     1     103.201 124.123 146.541  0.00  0.00    +0.000 A 
ATOM     16  C   UNL     1     103.133 123.367 146.217  0.00  0.00    +0.000 A 
ATOM     17  C   UNL     1     102.523 124.537 146.765  0.00  0.00    +0.000 A 
ATOM     18  C   UNL     1     101.779 124.197 146.665  0.00  0.00    +0.000 A 
ATOM     19  C   UNL     1     102.388 123.026 146.116  0.00  0.00    +0.000 A 
ATOM     20  C   UNL     1     101.711 123.441 146.341  0.00  0.00    +0.000 A 
BRANCH  20  21
ATOM     21  O   UNL     1     100.966 123.100 146.241  0.00  0.00    +0.000 OA
ATOM     22  C   UNL     1     100.771 122.739 145.526  0.00  0.00    +0.000 C 
ENDBRANCH  20  21
ENDBRANCH   6  15
BRANCH   7  23
ATOM     23  O   UNL     1     103.874 124.206 148.045  0.00  0.00    +0.000 OA
ATOM     24  C   UNL     1     104.025 124.505 148.799  0.00  0.00    +0.000 C 
ENDBRANCH   7  23
BRANCH  11  25
ATOM     25  O   UNL     1     107.384 126.149 146.387  0.00  0.00    +0.000 OA
ATOM     26  C   UNL     1     107.449 126.927 146.655  0.00  0.00    +0.000 C 
ENDBRANCH  11  25
BRANCH  12  27
ATOM     27  O   UNL     1     106.694 126.064 144.847  0.00  0.00    +0.000 OA
ATOM     28  C   UNL     1     106.334 126.068 144.105  0.00  0.00    +0.000 C 
ENDBRANCH  12  27
TORSDOF 5
ENDMDL
MODEL 6
REMARK VINA RESULT:      -7.6      7.155      8.319
REMARK  Name = 44259894
REMARK  5 active torsions:
REMARK  status: ('A' for Active; 'I' for Inactive)
REMARK    1  A    between atoms: O_2  and  C_13
REMARK    2  A    between atoms: O_3  and  C_18
REMARK    3  A    between atoms: O_4  and  C_19
REMARK    4  A    between atoms: O_8  and  C_24
REMARK    5  A    between atoms: C_12  and  C_14
REMARK                            x       y       z     vdW  Elec       q    Type
REMARK                         _______ _______ _______ _____ _____    ______ ____
ROOT
ATOM      1  O   UNL     1     103.604 130.105 142.360  0.00  0.00    +0.000 OA
ATOM      2  O   UNL     1     104.417 127.651 141.069  0.00  0.00    +0.000 OA
ATOM      3  O   UNL     1     103.546 128.589 140.404  0.00  0.00    +0.000 OA
ATOM      4  C   UNL     1     104.007 128.891 141.723  0.00  0.00    +0.000 A 
ATOM      5  C   UNL     1     104.026 129.397 142.375  0.00  0.00    +0.000 A 
ATOM      6  C   UNL     1     103.162 130.309 141.694  0.00  0.00    +0.000 A 
ATOM      7  C   UNL     1     103.143 129.804 141.042  0.00  0.00    +0.000 A 
ATOM      8  C   UNL     1     103.566 129.094 141.056  0.00  0.00    +0.000 A 
ATOM      9  C   UNL     1     104.442 128.150 141.726  0.00  0.00    +0.000 A 
ATOM     10  C   UNL     1     104.482 129.195 143.076  0.00  0.00    +0.000 A 
ATOM     11  C   UNL     1     104.904 127.933 142.417  0.00  0.00    +0.000 A 
ATOM     12  C   UNL     1     104.924 128.459 143.097  0.00  0.00    +0.000 A 
ENDROOT
BRANCH   6  15
ATOM     13  O   UNL     1     103.926 131.716 141.294  0.00  0.00    +0.000 OA
ATOM     14  O   UNL     1     100.710 131.737 142.034  0.00  0.00    +0.000 OA
ATOM     15  C   UNL     1     102.740 131.017 141.679  0.00  0.00    +0.000 A 
ATOM     16  C   UNL     1     103.122 131.720 141.479  0.00  0.00    +0.000 A 
ATOM     17  C   UNL     1     101.936 131.023 141.864  0.00  0.00    +0.000 A 
ATOM     18  C   UNL     1     101.514 131.731 141.849  0.00  0.00    +0.000 A 
ATOM     19  C   UNL     1     102.700 132.430 141.465  0.00  0.00    +0.000 A 
ATOM     20  C   UNL     1     101.896 132.434 141.650  0.00  0.00    +0.000 A 
BRANCH  20  21
ATOM     21  O   UNL     1     101.474 133.144 141.635  0.00  0.00    +0.000 OA
ATOM     22  C   UNL     1     101.866 133.854 141.491  0.00  0.00    +0.000 C 
ENDBRANCH  20  21
ENDBRANCH   6  15
BRANCH   7  23
ATOM     23  O   UNL     1     102.702 130.007 140.375  0.00  0.00    +0.000 OA
ATOM     24  C   UNL     1     102.416 129.417 139.874  0.00  0.00    +0.000 C 
ENDBRANCH   7  23
BRANCH  11  25
ATOM     25  O   UNL     1     105.325 127.223 142.429  0.00  0.00    +0.000 OA
ATOM     26  C   UNL     1     106.074 127.182 142.085  0.00  0.00    +0.000 C 
ENDBRANCH  11  25
BRANCH  12  27
ATOM     27  O   UNL     1     105.364 128.258 143.764  0.00  0.00    +0.000 OA
ATOM     28  C   UNL     1     105.185 128.598 144.494  0.00  0.00    +0.000 C 
ENDBRANCH  12  27
TORSDOF 5
ENDMDL
MODEL 7
REMARK VINA RESULT:      -7.6     12.422     13.487
REMARK  Name = 44259894
REMARK  5 active torsions:
REMARK  status: ('A' for Active; 'I' for Inactive)
REMARK    1  A    between atoms: O_2  and  C_13
REMARK    2  A    between atoms: O_3  and  C_18
REMARK    3  A    between atoms: O_4  and  C_19
REMARK    4  A    between atoms: O_8  and  C_24
REMARK    5  A    between atoms: C_12  and  C_14
REMARK                            x       y       z     vdW  Elec       q    Type
REMARK                         _______ _______ _______ _____ _____    ______ ____
ROOT
ATOM      1  O   UNL     1     111.153 127.239 136.433  0.00  0.00    +0.000 OA
ATOM      2  O   UNL     1     111.618 124.407 136.099  0.00  0.00    +0.000 OA
ATOM      3  O   UNL     1     110.631 125.098 135.306  0.00  0.00    +0.000 OA
ATOM      4  C   UNL     1     111.384 125.839 136.269  0.00  0.00    +0.000 A 
ATOM      5  C   UNL     1     111.558 126.553 136.644  0.00  0.00    +0.000 A 
ATOM      6  C   UNL     1     110.574 127.213 135.846  0.00  0.00    +0.000 A 
ATOM      7  C   UNL     1     110.400 126.500 135.470  0.00  0.00    +0.000 A 
ATOM      8  C   UNL     1     110.805 125.812 135.682  0.00  0.00    +0.000 A 
ATOM      9  C   UNL     1     111.799 125.116 136.480  0.00  0.00    +0.000 A 
ATOM     10  C   UNL     1     112.159 126.593 137.258  0.00  0.00    +0.000 A 
ATOM     11  C   UNL     1     112.403 125.138 137.090  0.00  0.00    +0.000 A 
ATOM     12  C   UNL     1     112.584 125.881 137.482  0.00  0.00    +0.000 A 
ENDROOT
BRANCH   6  15
ATOM     13  O   UNL     1     111.301 128.335 134.879  0.00  0.00    +0.000 OA
ATOM     14  O   UNL     1     108.227 128.839 135.967  0.00  0.00    +0.000 OA
ATOM     15  C   UNL     1     110.169 127.899 135.635  0.00  0.00    +0.000 A 
ATOM     16  C   UNL     1     110.533 128.460 135.151  0.00  0.00    +0.000 A 
ATOM     17  C   UNL     1     109.401 128.026 135.906  0.00  0.00    +0.000 A 
ATOM     18  C   UNL     1     108.996 128.712 135.695  0.00  0.00    +0.000 A 
ATOM     19  C   UNL     1     110.128 129.148 134.939  0.00  0.00    +0.000 A 
ATOM     20  C   UNL     1     109.359 129.273 135.211  0.00  0.00    +0.000 A 
BRANCH  20  21
ATOM     21  O   UNL     1     108.954 129.961 134.999  0.00  0.00    +0.000 OA
ATOM     22  C   UNL     1     109.351 130.570 134.612  0.00  0.00    +0.000 C 
ENDBRANCH  20  21
ENDBRANCH   6  15
BRANCH   7  23
ATOM     23  O   UNL     1     109.821 126.472 134.883  0.00  0.00    +0.000 OA
ATOM     24  C   UNL     1     109.541 125.745 134.613  0.00  0.00    +0.000 C 
ENDBRANCH   7  23
BRANCH  11  25
ATOM     25  O   UNL     1     112.807 124.449 137.300  0.00  0.00    +0.000 OA
ATOM     26  C   UNL     1     113.457 124.201 136.857  0.00  0.00    +0.000 C 
ENDBRANCH  11  25
BRANCH  12  27
ATOM     27  O   UNL     1     113.163 125.911 138.069  0.00  0.00    +0.000 OA
ATOM     28  C   UNL     1     113.186 126.547 138.594  0.00  0.00    +0.000 C 
ENDBRANCH  12  27
TORSDOF 5
ENDMDL
MODEL 8
REMARK VINA RESULT:      -7.5      5.874      7.405
REMARK  Name = 44259894
REMARK  5 active torsions:
REMARK  status: ('A' for Active; 'I' for Inactive)
REMARK    1  A    between atoms: O_2  and  C_13
REMARK    2  A    between atoms: O_3  and  C_18
REMARK    3  A    between atoms: O_4  and  C_19
REMARK    4  A    between atoms: O_8  and  C_24
REMARK    5  A    between atoms: C_12  and  C_14
REMARK                            x       y       z     vdW  Elec       q    Type
REMARK                         _______ _______ _______ _____ _____    ______ ____
ROOT
ATOM      1  O   UNL     1     105.374 125.776 140.972  0.00  0.00    +0.000 OA
ATOM      2  O   UNL     1     107.681 126.288 142.634  0.00  0.00    +0.000 OA
ATOM      3  O   UNL     1     107.582 125.083 141.848  0.00  0.00    +0.000 OA
ATOM      4  C   UNL     1     106.514 126.030 141.794  0.00  0.00    +0.000 A 
ATOM      5  C   UNL     1     105.777 126.261 141.502  0.00  0.00    +0.000 A 
ATOM      6  C   UNL     1     105.705 125.059 140.733  0.00  0.00    +0.000 A 
ATOM      7  C   UNL     1     106.442 124.828 141.025  0.00  0.00    +0.000 A 
ATOM      8  C   UNL     1     106.846 125.314 141.556  0.00  0.00    +0.000 A 
ATOM      9  C   UNL     1     106.945 126.527 142.348  0.00  0.00    +0.000 A 
ATOM     10  C   UNL     1     105.421 127.005 141.743  0.00  0.00    +0.000 A 
ATOM     11  C   UNL     1     106.605 127.274 142.599  0.00  0.00    +0.000 A 
ATOM     12  C   UNL     1     105.837 127.515 142.295  0.00  0.00    +0.000 A 
ENDROOT
BRANCH   6  15
ATOM     13  O   UNL     1     105.780 125.365 139.113  0.00  0.00    +0.000 OA
ATOM     14  O   UNL     1     104.015 122.810 140.230  0.00  0.00    +0.000 OA
ATOM     15  C   UNL     1     105.302 124.573 140.203  0.00  0.00    +0.000 A 
ATOM     16  C   UNL     1     105.339 124.726 139.393  0.00  0.00    +0.000 A 
ATOM     17  C   UNL     1     104.860 123.935 140.481  0.00  0.00    +0.000 A 
ATOM     18  C   UNL     1     104.456 123.449 139.951  0.00  0.00    +0.000 A 
ATOM     19  C   UNL     1     104.935 124.241 138.862  0.00  0.00    +0.000 A 
ATOM     20  C   UNL     1     104.494 123.602 139.142  0.00  0.00    +0.000 A 
BRANCH  20  21
ATOM     21  O   UNL     1     104.089 123.116 138.610  0.00  0.00    +0.000 OA
ATOM     22  C   UNL     1     103.878 123.404 137.868  0.00  0.00    +0.000 C 
ENDBRANCH  20  21
ENDBRANCH   6  15
BRANCH   7  23
ATOM     23  O   UNL     1     106.774 124.112 140.787  0.00  0.00    +0.000 OA
ATOM     24  C   UNL     1     107.448 123.823 141.165  0.00  0.00    +0.000 C 
ENDBRANCH   7  23
BRANCH  11  25
ATOM     25  O   UNL     1     107.011 127.758 143.130  0.00  0.00    +0.000 OA
ATOM     26  C   UNL     1     107.618 128.247 142.861  0.00  0.00    +0.000 C 
ENDBRANCH  11  25
BRANCH  12  27
ATOM     27  O   UNL     1     105.503 128.231 142.532  0.00  0.00    +0.000 OA
ATOM     28  C   UNL     1     104.735 128.425 142.300  0.00  0.00    +0.000 C 
ENDBRANCH  12  27
TORSDOF 5
ENDMDL
MODEL 9
REMARK VINA RESULT:      -7.4     11.961     14.281
REMARK  Name = 44259894
REMARK  5 active torsions:
REMARK  status: ('A' for Active; 'I' for Inactive)
REMARK    1  A    between atoms: O_2  and  C_13
REMARK    2  A    between atoms: O_3  and  C_18
REMARK    3  A    between atoms: O_4  and  C_19
REMARK    4  A    between atoms: O_8  and  C_24
REMARK    5  A    between atoms: C_12  and  C_14
REMARK                            x       y       z     vdW  Elec       q    Type
REMARK                         _______ _______ _______ _____ _____    ______ ____
ROOT
ATOM      1  O   UNL     1     113.013 127.399 136.116  0.00  0.00    +0.000 OA
ATOM      2  O   UNL     1     112.417 130.004 137.215  0.00  0.00    +0.000 OA
ATOM      3  O   UNL     1     111.665 128.839 137.610  0.00  0.00    +0.000 OA
ATOM      4  C   UNL     1     112.720 128.687 136.658  0.00  0.00    +0.000 A 
ATOM      5  C   UNL     1     113.169 128.207 136.160  0.00  0.00    +0.000 A 
ATOM      6  C   UNL     1     112.408 127.069 136.569  0.00  0.00    +0.000 A 
ATOM      7  C   UNL     1     111.958 127.550 137.067  0.00  0.00    +0.000 A 
ATOM      8  C   UNL     1     112.114 128.359 137.112  0.00  0.00    +0.000 A 
ATOM      9  C   UNL     1     112.872 129.532 136.714  0.00  0.00    +0.000 A 
ATOM     10  C   UNL     1     113.803 128.538 135.683  0.00  0.00    +0.000 A 
ATOM     11  C   UNL     1     113.501 129.880 136.244  0.00  0.00    +0.000 A 
ATOM     12  C   UNL     1     113.970 129.380 135.725  0.00  0.00    +0.000 A 
ENDROOT
BRANCH   6  15
ATOM     13  O   UNL     1     113.357 126.000 137.392  0.00  0.00    +0.000 OA
ATOM     14  O   UNL     1     110.833 124.903 135.570  0.00  0.00    +0.000 OA
ATOM     15  C   UNL     1     112.251 126.261 136.525  0.00  0.00    +0.000 A 
ATOM     16  C   UNL     1     112.726 125.726 136.936  0.00  0.00    +0.000 A 
ATOM     17  C   UNL     1     111.620 125.986 136.070  0.00  0.00    +0.000 A 
ATOM     18  C   UNL     1     111.464 125.178 136.025  0.00  0.00    +0.000 A 
ATOM     19  C   UNL     1     112.570 124.917 136.892  0.00  0.00    +0.000 A 
ATOM     20  C   UNL     1     111.939 124.643 136.436  0.00  0.00    +0.000 A 
BRANCH  20  21
ATOM     21  O   UNL     1     111.783 123.834 136.392  0.00  0.00    +0.000 OA
ATOM     22  C   UNL     1     112.040 123.331 136.993  0.00  0.00    +0.000 C 
ENDBRANCH  20  21
ENDBRANCH   6  15
BRANCH   7  23
ATOM     23  O   UNL     1     111.352 127.221 137.521  0.00  0.00    +0.000 OA
ATOM     24  C   UNL     1     110.788 127.710 137.872  0.00  0.00    +0.000 C 
ENDBRANCH   7  23
BRANCH  11  25
ATOM     25  O   UNL     1     113.655 130.689 136.290  0.00  0.00    +0.000 OA
ATOM     26  C   UNL     1     114.090 130.991 136.924  0.00  0.00    +0.000 C 
ENDBRANCH  11  25
BRANCH  12  27
ATOM     27  O   UNL     1     114.576 129.706 135.270  0.00  0.00    +0.000 OA
ATOM     28  C   UNL     1     114.863 129.299 134.612  0.00  0.00    +0.000 C 
ENDBRANCH  12  27
TORSDOF 5
ENDMDL
MODEL 10
REMARK VINA RESULT:      -7.4      1.370      4.351
REMARK  Name = 44259894
REMARK  5 active torsions:
REMARK  status: ('A' for Active; 'I' for Inactive)
REMARK    1  A    between atoms: O_2  and  C_13
REMARK    2  A    between atoms: O_3  and  C_18
REMARK    3  A    between atoms: O_4  and  C_19
REMARK    4  A    between atoms: O_8  and  C_24
REMARK    5  A    between atoms: C_12  and  C_14
REMARK                            x       y       z     vdW  Elec       q    Type
REMARK                         _______ _______ _______ _____ _____    ______ ____
ROOT
ATOM      1  O   UNL     1     103.936 125.132 146.811  0.00  0.00    +0.000 OA
ATOM      2  O   UNL     1     106.088 124.565 144.967  0.00  0.00    +0.000 OA
ATOM      3  O   UNL     1     105.039 123.604 145.206  0.00  0.00    +0.000 OA
ATOM      4  C   UNL     1     105.000 124.853 145.900  0.00  0.00    +0.000 A 
ATOM      5  C   UNL     1     104.633 125.362 146.435  0.00  0.00    +0.000 A 
ATOM      6  C   UNL     1     103.606 124.392 146.653  0.00  0.00    +0.000 A 
ATOM      7  C   UNL     1     103.974 123.883 146.118  0.00  0.00    +0.000 A 
ATOM      8  C   UNL     1     104.671 124.113 145.741  0.00  0.00    +0.000 A 
ATOM      9  C   UNL     1     105.727 125.081 145.500  0.00  0.00    +0.000 A 
ATOM     10  C   UNL     1     104.966 126.135 146.608  0.00  0.00    +0.000 A 
ATOM     11  C   UNL     1     106.075 125.850 145.661  0.00  0.00    +0.000 A 
ATOM     12  C   UNL     1     105.691 126.381 146.219  0.00  0.00    +0.000 A 
ENDROOT
BRANCH   6  15
ATOM     13  O   UNL     1     103.633 123.958 148.244  0.00  0.00    +0.000 OA
ATOM     14  O   UNL     1     100.792 123.903 146.568  0.00  0.00    +0.000 OA
ATOM     15  C   UNL     1     102.910 124.161 147.029  0.00  0.00    +0.000 A 
ATOM     16  C   UNL     1     102.924 123.944 147.825  0.00  0.00    +0.000 A 
ATOM     17  C   UNL     1     102.199 124.148 146.610  0.00  0.00    +0.000 A 
ATOM     18  C   UNL     1     101.503 123.917 146.986  0.00  0.00    +0.000 A 
ATOM     19  C   UNL     1     102.226 123.713 148.202  0.00  0.00    +0.000 A 
ATOM     20  C   UNL     1     101.516 123.700 147.782  0.00  0.00    +0.000 A 
BRANCH  20  21
ATOM     21  O   UNL     1     100.819 123.469 148.159  0.00  0.00    +0.000 OA
ATOM     22  C   UNL     1     100.851 122.975 148.818  0.00  0.00    +0.000 C 
ENDBRANCH  20  21
ENDBRANCH   6  15
BRANCH   7  23
ATOM     23  O   UNL     1     103.645 123.143 145.959  0.00  0.00    +0.000 OA
ATOM     24  C   UNL     1     103.847 122.741 145.267  0.00  0.00    +0.000 C 
ENDBRANCH   7  23
BRANCH  11  25
ATOM     25  O   UNL     1     106.772 126.078 145.283  0.00  0.00    +0.000 OA
ATOM     26  C   UNL     1     106.742 126.407 144.527  0.00  0.00    +0.000 C 
ENDBRANCH  11  25
BRANCH  12  27
ATOM     27  O   UNL     1     106.019 127.121 146.380  0.00  0.00    +0.000 OA
ATOM     28  C   UNL     1     105.774 127.545 147.043  0.00  0.00    +0.000 C 
ENDBRANCH  12  27
TORSDOF 5
ENDMDL
