MODEL 1
REMARK VINA RESULT:      -9.0      0.000      0.000
REMARK  Name = null
REMARK  2 active torsions:
REMARK  status: ('A' for Active; 'I' for Inactive)
REMARK    1  A    between atoms: O_2  and  C_3
REMARK    2  A    between atoms: C_6  and  C_9
REMARK                            x       y       z     vdW  Elec       q    Type
REMARK                         _______ _______ _______ _____ _____    ______ ____
ROOT
ATOM      1  C   UNL     1     105.290 124.648 147.101  0.00  0.00    +0.000 C 
ATOM      2  C   UNL     1     105.755 125.021 146.528  0.00  0.00    +0.000 C 
ATOM      3  C   UNL     1     106.545 125.194 146.687  0.00  0.00    +0.000 C 
ATOM      4  O   UNL     1     107.008 125.566 146.115  0.00  0.00    +0.000 OA
ATOM      5  C   UNL     1     106.871 124.996 147.418  0.00  0.00    +0.000 A 
ATOM      6  C   UNL     1     107.662 125.169 147.577  0.00  0.00    +0.000 A 
ATOM      7  C   UNL     1     107.989 124.971 148.308  0.00  0.00    +0.000 A 
ATOM      8  C   UNL     1     107.525 124.598 148.880  0.00  0.00    +0.000 A 
ATOM      9  C   UNL     1     106.734 124.425 148.721  0.00  0.00    +0.000 A 
ATOM     10  C   UNL     1     106.407 124.623 147.990  0.00  0.00    +0.000 A 
ATOM     11  O   UNL     1     105.617 124.450 147.831  0.00  0.00    +0.000 OA
ATOM     12  O   UNL     1     107.852 124.400 149.611  0.00  0.00    +0.000 OA
ATOM     13  O   UNL     1     108.126 125.541 147.006  0.00  0.00    +0.000 OA
ENDROOT
BRANCH   1  17
ATOM     14  C   UNL     1     102.918 124.129 146.622  0.00  0.00    +0.000 A 
ATOM     15  C   UNL     1     103.515 123.647 146.318  0.00  0.00    +0.000 A 
ATOM     16  C   UNL     1     104.305 123.820 146.478  0.00  0.00    +0.000 A 
ATOM     17  C   UNL     1     104.499 124.475 146.941  0.00  0.00    +0.000 A 
ATOM     18  C   UNL     1     103.903 124.956 147.244  0.00  0.00    +0.000 A 
ATOM     19  C   UNL     1     103.111 124.784 147.085  0.00  0.00    +0.000 A 
ATOM     20  O   UNL     1     103.321 122.993 145.856  0.00  0.00    +0.000 OA
BRANCH  14  22
ATOM     21  C   UNL     1     101.529 124.335 146.885  0.00  0.00    +0.000 C 
ATOM     22  O   UNL     1     102.127 123.957 146.463  0.00  0.00    +0.000 OA
ENDBRANCH  14  22
ENDBRANCH   1  17
TORSDOF 2
ENDMDL
MODEL 2
REMARK VINA RESULT:      -8.7      7.982      9.777
REMARK  Name = null
REMARK  2 active torsions:
REMARK  status: ('A' for Active; 'I' for Inactive)
REMARK    1  A    between atoms: O_2  and  C_3
REMARK    2  A    between atoms: C_6  and  C_9
REMARK                            x       y       z     vdW  Elec       q    Type
REMARK                         _______ _______ _______ _____ _____    ______ ____
ROOT
ATOM      1  C   UNL     1     104.089 123.765 138.720  0.00  0.00    +0.000 C 
ATOM      2  C   UNL     1     103.264 123.747 138.741  0.00  0.00    +0.000 C 
ATOM      3  C   UNL     1     102.839 123.531 138.069  0.00  0.00    +0.000 C 
ATOM      4  O   UNL     1     102.014 123.513 138.090  0.00  0.00    +0.000 OA
ATOM      5  C   UNL     1     103.238 123.333 137.375  0.00  0.00    +0.000 A 
ATOM      6  C   UNL     1     102.813 123.117 136.701  0.00  0.00    +0.000 A 
ATOM      7  C   UNL     1     103.211 122.919 136.007  0.00  0.00    +0.000 A 
ATOM      8  C   UNL     1     104.037 122.938 135.986  0.00  0.00    +0.000 A 
ATOM      9  C   UNL     1     104.462 123.154 136.658  0.00  0.00    +0.000 A 
ATOM     10  C   UNL     1     104.063 123.352 137.353  0.00  0.00    +0.000 A 
ATOM     11  O   UNL     1     104.488 123.568 138.026  0.00  0.00    +0.000 OA
ATOM     12  O   UNL     1     104.435 122.740 135.291  0.00  0.00    +0.000 OA
ATOM     13  O   UNL     1     101.988 123.099 136.723  0.00  0.00    +0.000 OA
ENDROOT
BRANCH   1  17
ATOM     14  C   UNL     1     105.364 124.413 140.740  0.00  0.00    +0.000 A 
ATOM     15  C   UNL     1     105.211 124.972 140.153  0.00  0.00    +0.000 A 
ATOM     16  C   UNL     1     104.787 124.756 139.480  0.00  0.00    +0.000 A 
ATOM     17  C   UNL     1     104.514 123.982 139.393  0.00  0.00    +0.000 A 
ATOM     18  C   UNL     1     104.667 123.423 139.981  0.00  0.00    +0.000 A 
ATOM     19  C   UNL     1     105.092 123.639 140.655  0.00  0.00    +0.000 A 
ATOM     20  O   UNL     1     105.483 125.745 140.239  0.00  0.00    +0.000 OA
BRANCH  14  22
ATOM     21  C   UNL     1     105.646 124.247 142.131  0.00  0.00    +0.000 C 
ATOM     22  O   UNL     1     105.789 124.628 141.414  0.00  0.00    +0.000 OA
ENDBRANCH  14  22
ENDBRANCH   1  17
TORSDOF 2
ENDMDL
MODEL 3
REMARK VINA RESULT:      -8.6      7.444      8.458
REMARK  Name = null
REMARK  2 active torsions:
REMARK  status: ('A' for Active; 'I' for Inactive)
REMARK    1  A    between atoms: O_2  and  C_3
REMARK    2  A    between atoms: C_6  and  C_9
REMARK                            x       y       z     vdW  Elec       q    Type
REMARK                         _______ _______ _______ _____ _____    ______ ____
ROOT
ATOM      1  C   UNL     1     104.460 123.850 138.998  0.00  0.00    +0.000 C 
ATOM      2  C   UNL     1     104.926 123.254 139.329  0.00  0.00    +0.000 C 
ATOM      3  C   UNL     1     105.435 123.428 139.954  0.00  0.00    +0.000 C 
ATOM      4  O   UNL     1     105.900 122.833 140.285  0.00  0.00    +0.000 OA
ATOM      5  C   UNL     1     105.479 124.197 140.248  0.00  0.00    +0.000 A 
ATOM      6  C   UNL     1     105.988 124.372 140.874  0.00  0.00    +0.000 A 
ATOM      7  C   UNL     1     106.032 125.140 141.168  0.00  0.00    +0.000 A 
ATOM      8  C   UNL     1     105.566 125.736 140.837  0.00  0.00    +0.000 A 
ATOM      9  C   UNL     1     105.057 125.562 140.212  0.00  0.00    +0.000 A 
ATOM     10  C   UNL     1     105.013 124.793 139.917  0.00  0.00    +0.000 A 
ATOM     11  O   UNL     1     104.504 124.619 139.292  0.00  0.00    +0.000 OA
ATOM     12  O   UNL     1     105.610 126.506 141.131  0.00  0.00    +0.000 OA
ATOM     13  O   UNL     1     106.454 123.776 141.204  0.00  0.00    +0.000 OA
ENDROOT
BRANCH   1  17
ATOM     14  C   UNL     1     102.933 123.325 137.122  0.00  0.00    +0.000 A 
ATOM     15  C   UNL     1     102.625 123.531 137.859  0.00  0.00    +0.000 A 
ATOM     16  C   UNL     1     103.133 123.705 138.484  0.00  0.00    +0.000 A 
ATOM     17  C   UNL     1     103.950 123.675 138.373  0.00  0.00    +0.000 A 
ATOM     18  C   UNL     1     104.258 123.470 137.636  0.00  0.00    +0.000 A 
ATOM     19  C   UNL     1     103.750 123.295 137.009  0.00  0.00    +0.000 A 
ATOM     20  O   UNL     1     101.809 123.561 137.970  0.00  0.00    +0.000 OA
BRANCH  14  22
ATOM     21  C   UNL     1     102.724 122.825 135.801  0.00  0.00    +0.000 C 
ATOM     22  O   UNL     1     102.425 123.151 136.496  0.00  0.00    +0.000 OA
ENDBRANCH  14  22
ENDBRANCH   1  17
TORSDOF 2
ENDMDL
MODEL 4
REMARK VINA RESULT:      -8.0      0.893      4.523
REMARK  Name = null
REMARK  2 active torsions:
REMARK  status: ('A' for Active; 'I' for Inactive)
REMARK    1  A    between atoms: O_2  and  C_3
REMARK    2  A    between atoms: C_6  and  C_9
REMARK                            x       y       z     vdW  Elec       q    Type
REMARK                         _______ _______ _______ _____ _____    ______ ____
ROOT
ATOM      1  C   UNL     1     104.637 124.637 147.169  0.00  0.00    +0.000 C 
ATOM      2  C   UNL     1     104.118 125.043 147.668  0.00  0.00    +0.000 C 
ATOM      3  C   UNL     1     103.306 124.906 147.616  0.00  0.00    +0.000 C 
ATOM      4  O   UNL     1     102.788 125.311 148.114  0.00  0.00    +0.000 OA
ATOM      5  C   UNL     1     103.013 124.365 147.068  0.00  0.00    +0.000 A 
ATOM      6  C   UNL     1     102.201 124.228 147.017  0.00  0.00    +0.000 A 
ATOM      7  C   UNL     1     101.907 123.687 146.469  0.00  0.00    +0.000 A 
ATOM      8  C   UNL     1     102.426 123.281 145.970  0.00  0.00    +0.000 A 
ATOM      9  C   UNL     1     103.237 123.418 146.021  0.00  0.00    +0.000 A 
ATOM     10  C   UNL     1     103.532 123.959 146.570  0.00  0.00    +0.000 A 
ATOM     11  O   UNL     1     104.343 124.096 146.621  0.00  0.00    +0.000 OA
ATOM     12  O   UNL     1     102.132 122.740 145.422  0.00  0.00    +0.000 OA
ATOM     13  O   UNL     1     101.682 124.633 147.515  0.00  0.00    +0.000 OA
ENDROOT
BRANCH   1  17
ATOM     14  C   UNL     1     107.073 125.047 147.325  0.00  0.00    +0.000 A 
ATOM     15  C   UNL     1     106.671 125.211 146.623  0.00  0.00    +0.000 A 
ATOM     16  C   UNL     1     105.860 125.074 146.571  0.00  0.00    +0.000 A 
ATOM     17  C   UNL     1     105.449 124.774 147.221  0.00  0.00    +0.000 A 
ATOM     18  C   UNL     1     105.851 124.611 147.923  0.00  0.00    +0.000 A 
ATOM     19  C   UNL     1     106.663 124.747 147.975  0.00  0.00    +0.000 A 
ATOM     20  O   UNL     1     107.081 125.510 145.974  0.00  0.00    +0.000 OA
BRANCH  14  22
ATOM     21  C   UNL     1     108.297 124.960 148.055  0.00  0.00    +0.000 C 
ATOM     22  O   UNL     1     107.885 125.184 147.377  0.00  0.00    +0.000 OA
ENDBRANCH  14  22
ENDBRANCH   1  17
TORSDOF 2
ENDMDL
MODEL 5
REMARK VINA RESULT:      -8.0     11.243     12.464
REMARK  Name = null
REMARK  2 active torsions:
REMARK  status: ('A' for Active; 'I' for Inactive)
REMARK    1  A    between atoms: O_2  and  C_3
REMARK    2  A    between atoms: C_6  and  C_9
REMARK                            x       y       z     vdW  Elec       q    Type
REMARK                         _______ _______ _______ _____ _____    ______ ____
ROOT
ATOM      1  C   UNL     1     111.307 125.523 136.634  0.00  0.00    +0.000 C 
ATOM      2  C   UNL     1     111.258 124.717 136.811  0.00  0.00    +0.000 C 
ATOM      3  C   UNL     1     111.946 124.271 136.893  0.00  0.00    +0.000 C 
ATOM      4  O   UNL     1     111.898 123.467 137.070  0.00  0.00    +0.000 OA
ATOM      5  C   UNL     1     112.683 124.628 136.799  0.00  0.00    +0.000 A 
ATOM      6  C   UNL     1     113.373 124.182 136.881  0.00  0.00    +0.000 A 
ATOM      7  C   UNL     1     114.109 124.540 136.786  0.00  0.00    +0.000 A 
ATOM      8  C   UNL     1     114.158 125.345 136.610  0.00  0.00    +0.000 A 
ATOM      9  C   UNL     1     113.470 125.791 136.528  0.00  0.00    +0.000 A 
ATOM     10  C   UNL     1     112.732 125.434 136.622  0.00  0.00    +0.000 A 
ATOM     11  O   UNL     1     112.044 125.880 136.540  0.00  0.00    +0.000 OA
ATOM     12  O   UNL     1     114.896 125.702 136.515  0.00  0.00    +0.000 OA
ATOM     13  O   UNL     1     113.324 123.378 137.057  0.00  0.00    +0.000 OA
ENDROOT
BRANCH   1  17
ATOM     14  C   UNL     1     109.239 126.861 136.387  0.00  0.00    +0.000 A 
ATOM     15  C   UNL     1     109.520 126.671 137.139  0.00  0.00    +0.000 A 
ATOM     16  C   UNL     1     110.208 126.225 137.221  0.00  0.00    +0.000 A 
ATOM     17  C   UNL     1     110.617 125.969 136.552  0.00  0.00    +0.000 A 
ATOM     18  C   UNL     1     110.337 126.159 135.800  0.00  0.00    +0.000 A 
ATOM     19  C   UNL     1     109.647 126.605 135.717  0.00  0.00    +0.000 A 
ATOM     20  O   UNL     1     109.112 126.927 137.808  0.00  0.00    +0.000 OA
BRANCH  14  22
ATOM     21  C   UNL     1     108.495 127.873 135.707  0.00  0.00    +0.000 C 
ATOM     22  O   UNL     1     108.550 127.307 136.303  0.00  0.00    +0.000 OA
ENDBRANCH  14  22
ENDBRANCH   1  17
TORSDOF 2
ENDMDL
MODEL 6
REMARK VINA RESULT:      -7.9      8.115      8.969
REMARK  Name = null
REMARK  2 active torsions:
REMARK  status: ('A' for Active; 'I' for Inactive)
REMARK    1  A    between atoms: O_2  and  C_3
REMARK    2  A    between atoms: C_6  and  C_9
REMARK                            x       y       z     vdW  Elec       q    Type
REMARK                         _______ _______ _______ _____ _____    ______ ____
ROOT
ATOM      1  C   UNL     1     102.780 130.658 141.539  0.00  0.00    +0.000 C 
ATOM      2  C   UNL     1     102.670 130.218 140.849  0.00  0.00    +0.000 C 
ATOM      3  C   UNL     1     103.061 129.498 140.753  0.00  0.00    +0.000 C 
ATOM      4  O   UNL     1     102.952 129.059 140.063  0.00  0.00    +0.000 OA
ATOM      5  C   UNL     1     103.560 129.218 141.346  0.00  0.00    +0.000 A 
ATOM      6  C   UNL     1     103.951 128.497 141.250  0.00  0.00    +0.000 A 
ATOM      7  C   UNL     1     104.451 128.217 141.843  0.00  0.00    +0.000 A 
ATOM      8  C   UNL     1     104.560 128.657 142.533  0.00  0.00    +0.000 A 
ATOM      9  C   UNL     1     104.169 129.376 142.629  0.00  0.00    +0.000 A 
ATOM     10  C   UNL     1     103.669 129.658 142.036  0.00  0.00    +0.000 A 
ATOM     11  O   UNL     1     103.279 130.377 142.132  0.00  0.00    +0.000 OA
ATOM     12  O   UNL     1     105.060 128.375 143.126  0.00  0.00    +0.000 OA
ATOM     13  O   UNL     1     103.842 128.058 140.561  0.00  0.00    +0.000 OA
ENDROOT
BRANCH   1  17
ATOM     14  C   UNL     1     101.606 132.818 141.826  0.00  0.00    +0.000 A 
ATOM     15  C   UNL     1     102.334 132.793 141.439  0.00  0.00    +0.000 A 
ATOM     16  C   UNL     1     102.725 132.074 141.343  0.00  0.00    +0.000 A 
ATOM     17  C   UNL     1     102.389 131.378 141.635  0.00  0.00    +0.000 A 
ATOM     18  C   UNL     1     101.661 131.404 142.022  0.00  0.00    +0.000 A 
ATOM     19  C   UNL     1     101.269 132.124 142.118  0.00  0.00    +0.000 A 
ATOM     20  O   UNL     1     102.670 133.487 141.148  0.00  0.00    +0.000 OA
BRANCH  14  22
ATOM     21  C   UNL     1     100.712 133.651 142.566  0.00  0.00    +0.000 C 
ATOM     22  O   UNL     1     101.214 133.538 141.922  0.00  0.00    +0.000 OA
ENDBRANCH  14  22
ENDBRANCH   1  17
TORSDOF 2
ENDMDL
MODEL 7
REMARK VINA RESULT:      -7.8     11.291     12.717
REMARK  Name = null
REMARK  2 active torsions:
REMARK  status: ('A' for Active; 'I' for Inactive)
REMARK    1  A    between atoms: O_2  and  C_3
REMARK    2  A    between atoms: C_6  and  C_9
REMARK                            x       y       z     vdW  Elec       q    Type
REMARK                         _______ _______ _______ _____ _____    ______ ____
ROOT
ATOM      1  C   UNL     1     110.164 126.674 136.387  0.00  0.00    +0.000 C 
ATOM      2  C   UNL     1     109.338 126.654 136.379  0.00  0.00    +0.000 C 
ATOM      3  C   UNL     1     108.912 127.322 136.151  0.00  0.00    +0.000 C 
ATOM      4  O   UNL     1     108.087 127.302 136.143  0.00  0.00    +0.000 OA
ATOM      5  C   UNL     1     109.309 128.010 135.933  0.00  0.00    +0.000 A 
ATOM      6  C   UNL     1     108.883 128.679 135.705  0.00  0.00    +0.000 A 
ATOM      7  C   UNL     1     109.280 129.367 135.487  0.00  0.00    +0.000 A 
ATOM      8  C   UNL     1     110.106 129.388 135.495  0.00  0.00    +0.000 A 
ATOM      9  C   UNL     1     110.532 128.720 135.722  0.00  0.00    +0.000 A 
ATOM     10  C   UNL     1     110.135 128.030 135.941  0.00  0.00    +0.000 A 
ATOM     11  O   UNL     1     110.561 127.362 136.168  0.00  0.00    +0.000 OA
ATOM     12  O   UNL     1     110.504 130.077 135.276  0.00  0.00    +0.000 OA
ATOM     13  O   UNL     1     108.058 128.659 135.697  0.00  0.00    +0.000 OA
ENDROOT
BRANCH   1  17
ATOM     14  C   UNL     1     111.442 124.667 137.067  0.00  0.00    +0.000 A 
ATOM     15  C   UNL     1     111.154 125.186 137.640  0.00  0.00    +0.000 A 
ATOM     16  C   UNL     1     110.728 125.854 137.414  0.00  0.00    +0.000 A 
ATOM     17  C   UNL     1     110.590 126.005 136.614  0.00  0.00    +0.000 A 
ATOM     18  C   UNL     1     110.878 125.486 136.041  0.00  0.00    +0.000 A 
ATOM     19  C   UNL     1     111.305 124.816 136.268  0.00  0.00    +0.000 A 
ATOM     20  O   UNL     1     111.291 125.035 138.439  0.00  0.00    +0.000 OA
BRANCH  14  22
ATOM     21  C   UNL     1     112.210 123.513 136.721  0.00  0.00    +0.000 C 
ATOM     22  O   UNL     1     111.868 123.998 137.293  0.00  0.00    +0.000 OA
ENDBRANCH  14  22
ENDBRANCH   1  17
TORSDOF 2
ENDMDL
MODEL 8
REMARK VINA RESULT:      -7.8     12.930     14.004
REMARK  Name = null
REMARK  2 active torsions:
REMARK  status: ('A' for Active; 'I' for Inactive)
REMARK    1  A    between atoms: O_2  and  C_3
REMARK    2  A    between atoms: C_6  and  C_9
REMARK                            x       y       z     vdW  Elec       q    Type
REMARK                         _______ _______ _______ _____ _____    ______ ____
ROOT
ATOM      1  C   UNL     1     113.505 126.829 136.622  0.00  0.00    +0.000 C 
ATOM      2  C   UNL     1     114.135 126.426 136.972  0.00  0.00    +0.000 C 
ATOM      3  C   UNL     1     114.092 125.611 137.084  0.00  0.00    +0.000 C 
ATOM      4  O   UNL     1     114.721 125.208 137.434  0.00  0.00    +0.000 OA
ATOM      5  C   UNL     1     113.419 125.197 136.846  0.00  0.00    +0.000 A 
ATOM      6  C   UNL     1     113.375 124.381 136.958  0.00  0.00    +0.000 A 
ATOM      7  C   UNL     1     112.703 123.967 136.720  0.00  0.00    +0.000 A 
ATOM      8  C   UNL     1     112.073 124.370 136.370  0.00  0.00    +0.000 A 
ATOM      9  C   UNL     1     112.116 125.186 136.258  0.00  0.00    +0.000 A 
ATOM     10  C   UNL     1     112.789 125.600 136.496  0.00  0.00    +0.000 A 
ATOM     11  O   UNL     1     112.833 126.416 136.384  0.00  0.00    +0.000 OA
ATOM     12  O   UNL     1     111.400 123.955 136.132  0.00  0.00    +0.000 OA
ATOM     13  O   UNL     1     114.005 123.978 137.308  0.00  0.00    +0.000 OA
ENDROOT
BRANCH   1  17
ATOM     14  C   UNL     1     113.636 129.278 136.288  0.00  0.00    +0.000 A 
ATOM     15  C   UNL     1     113.948 128.768 135.720  0.00  0.00    +0.000 A 
ATOM     16  C   UNL     1     113.904 127.952 135.831  0.00  0.00    +0.000 A 
ATOM     17  C   UNL     1     113.549 127.646 136.510  0.00  0.00    +0.000 A 
ATOM     18  C   UNL     1     113.238 128.157 137.078  0.00  0.00    +0.000 A 
ATOM     19  C   UNL     1     113.281 128.974 136.967  0.00  0.00    +0.000 A 
ATOM     20  O   UNL     1     114.302 129.073 135.041  0.00  0.00    +0.000 OA
BRANCH  14  22
ATOM     21  C   UNL     1     113.456 130.606 136.784  0.00  0.00    +0.000 C 
ATOM     22  O   UNL     1     113.680 130.095 136.178  0.00  0.00    +0.000 OA
ENDBRANCH  14  22
ENDBRANCH   1  17
TORSDOF 2
ENDMDL
MODEL 9
REMARK VINA RESULT:      -7.7      9.013     10.098
REMARK  Name = null
REMARK  2 active torsions:
REMARK  status: ('A' for Active; 'I' for Inactive)
REMARK    1  A    between atoms: O_2  and  C_3
REMARK    2  A    between atoms: C_6  and  C_9
REMARK                            x       y       z     vdW  Elec       q    Type
REMARK                         _______ _______ _______ _____ _____    ______ ____
ROOT
ATOM      1  C   UNL     1     102.445 131.331 141.546  0.00  0.00    +0.000 C 
ATOM      2  C   UNL     1     101.738 131.410 141.967  0.00  0.00    +0.000 C 
ATOM      3  C   UNL     1     101.416 132.158 142.093  0.00  0.00    +0.000 C 
ATOM      4  O   UNL     1     100.710 132.237 142.513  0.00  0.00    +0.000 OA
ATOM      5  C   UNL     1     101.798 132.827 141.800  0.00  0.00    +0.000 A 
ATOM      6  C   UNL     1     101.476 133.576 141.926  0.00  0.00    +0.000 A 
ATOM      7  C   UNL     1     101.858 134.245 141.633  0.00  0.00    +0.000 A 
ATOM      8  C   UNL     1     102.564 134.166 141.212  0.00  0.00    +0.000 A 
ATOM      9  C   UNL     1     102.887 133.417 141.086  0.00  0.00    +0.000 A 
ATOM     10  C   UNL     1     102.504 132.748 141.379  0.00  0.00    +0.000 A 
ATOM     11  O   UNL     1     102.827 131.999 141.253  0.00  0.00    +0.000 OA
ATOM     12  O   UNL     1     102.947 134.835 140.919  0.00  0.00    +0.000 OA
ATOM     13  O   UNL     1     100.770 133.655 142.347  0.00  0.00    +0.000 OA
ENDROOT
BRANCH   1  17
ATOM     14  C   UNL     1     103.412 129.084 141.168  0.00  0.00    +0.000 A 
ATOM     15  C   UNL     1     102.925 129.424 140.596  0.00  0.00    +0.000 A 
ATOM     16  C   UNL     1     102.602 130.173 140.722  0.00  0.00    +0.000 A 
ATOM     17  C   UNL     1     102.767 130.582 141.419  0.00  0.00    +0.000 A 
ATOM     18  C   UNL     1     103.255 130.241 141.991  0.00  0.00    +0.000 A 
ATOM     19  C   UNL     1     103.577 129.492 141.865  0.00  0.00    +0.000 A 
ATOM     20  O   UNL     1     102.760 129.016 139.899  0.00  0.00    +0.000 OA
BRANCH  14  22
ATOM     21  C   UNL     1     104.426 128.113 141.433  0.00  0.00    +0.000 C 
ATOM     22  O   UNL     1     103.735 128.335 141.043  0.00  0.00    +0.000 OA
ENDBRANCH  14  22
ENDBRANCH   1  17
TORSDOF 2
ENDMDL
MODEL 10
REMARK VINA RESULT:      -7.7      1.108      2.257
REMARK  Name = null
REMARK  2 active torsions:
REMARK  status: ('A' for Active; 'I' for Inactive)
REMARK    1  A    between atoms: O_2  and  C_3
REMARK    2  A    between atoms: C_6  and  C_9
REMARK                            x       y       z     vdW  Elec       q    Type
REMARK                         _______ _______ _______ _____ _____    ______ ____
ROOT
ATOM      1  C   UNL     1     103.975 124.276 146.879  0.00  0.00    +0.000 C 
ATOM      2  C   UNL     1     104.178 124.260 147.679  0.00  0.00    +0.000 C 
ATOM      3  C   UNL     1     104.924 124.517 147.920  0.00  0.00    +0.000 C 
ATOM      4  O   UNL     1     105.127 124.501 148.719  0.00  0.00    +0.000 OA
ATOM      5  C   UNL     1     105.466 124.788 147.362  0.00  0.00    +0.000 A 
ATOM      6  C   UNL     1     106.213 125.045 147.603  0.00  0.00    +0.000 A 
ATOM      7  C   UNL     1     106.756 125.317 147.045  0.00  0.00    +0.000 A 
ATOM      8  C   UNL     1     106.552 125.333 146.244  0.00  0.00    +0.000 A 
ATOM      9  C   UNL     1     105.807 125.077 146.004  0.00  0.00    +0.000 A 
ATOM     10  C   UNL     1     105.263 124.804 146.562  0.00  0.00    +0.000 A 
ATOM     11  O   UNL     1     104.517 124.548 146.321  0.00  0.00    +0.000 OA
ATOM     12  O   UNL     1     107.096 125.605 145.687  0.00  0.00    +0.000 OA
ATOM     13  O   UNL     1     106.416 125.029 148.402  0.00  0.00    +0.000 OA
ENDROOT
BRANCH   1  17
ATOM     14  C   UNL     1     101.736 123.506 146.156  0.00  0.00    +0.000 A 
ATOM     15  C   UNL     1     101.807 124.174 146.635  0.00  0.00    +0.000 A 
ATOM     16  C   UNL     1     102.553 124.430 146.876  0.00  0.00    +0.000 A 
ATOM     17  C   UNL     1     103.228 124.020 146.638  0.00  0.00    +0.000 A 
ATOM     18  C   UNL     1     103.156 123.352 146.159  0.00  0.00    +0.000 A 
ATOM     19  C   UNL     1     102.410 123.095 145.918  0.00  0.00    +0.000 A 
ATOM     20  O   UNL     1     101.133 124.584 146.873  0.00  0.00    +0.000 OA
BRANCH  14  22
ATOM     21  C   UNL     1     100.918 122.739 145.271  0.00  0.00    +0.000 C 
ATOM     22  O   UNL     1     100.990 123.248 145.915  0.00  0.00    +0.000 OA
ENDBRANCH  14  22
ENDBRANCH   1  17
TORSDOF 2
ENDMDL
