MODEL 1
REMARK VINA RESULT:     -10.3      0.000      0.000
REMARK  Name = 102514991
REMARK  6 active torsions:
REMARK  status: ('A' for Active; 'I' for Inactive)
REMARK    1  A    between atoms: O_3  and  C_25
REMARK    2  A    between atoms: O_3  and  C_27
REMARK    3  A    between atoms: C_16  and  C_21
REMARK    4  A    between atoms: C_20  and  C_28
REMARK    5  A    between atoms: C_26  and  C_30
REMARK    6  A    between atoms: C_36  and  C_37
REMARK                            x       y       z     vdW  Elec       q    Type
REMARK                         _______ _______ _______ _____ _____    ______ ____
ROOT
ATOM      1  O   UNL     1     113.524 125.941 139.325  0.00  0.00    +0.000 OA
ATOM      2  O   UNL     1     113.428 128.833 139.390  0.00  0.00    +0.000 OA
ATOM      3  O   UNL     1     114.050 126.632 140.477  0.00  0.00    +0.000 OA
ATOM      4  C   UNL     1     112.962 126.660 138.225  0.00  0.00    +0.000 A 
ATOM      5  C   UNL     1     112.758 127.375 137.869  0.00  0.00    +0.000 A 
ATOM      6  C   UNL     1     113.321 126.656 138.969  0.00  0.00    +0.000 A 
ATOM      7  C   UNL     1     112.913 128.087 138.256  0.00  0.00    +0.000 A 
ATOM      8  C   UNL     1     113.475 127.369 139.355  0.00  0.00    +0.000 A 
ATOM      9  C   UNL     1     113.272 128.084 138.998  0.00  0.00    +0.000 A 
ATOM     10  C   UNL     1     113.849 127.353 140.128  0.00  0.00    +0.000 A 
ATOM     11  C   UNL     1     114.013 128.091 140.535  0.00  0.00    +0.000 A 
ATOM     12  C   UNL     1     113.801 128.836 140.164  0.00  0.00    +0.000 A 
ENDROOT
BRANCH   4  17
ATOM     13  O   UNL     1     113.365 125.628 137.322  0.00  0.00    +0.000 OA
ATOM     14  O   UNL     1     111.537 125.873 138.490  0.00  0.00    +0.000 OA
ATOM     15  O   UNL     1     111.226 124.447 137.719  0.00  0.00    +0.000 OA
ATOM     16  O   UNL     1     112.341 123.809 136.684  0.00  0.00    +0.000 OA
ATOM     17  C   UNL     1     112.807 125.947 137.840  0.00  0.00    +0.000 C 
ATOM     18  C   UNL     1     112.094 125.554 137.972  0.00  0.00    +0.000 C 
ATOM     19  C   UNL     1     111.939 124.841 137.586  0.00  0.00    +0.000 C 
ATOM     20  C   UNL     1     112.497 124.522 137.069  0.00  0.00    +0.000 C 
ATOM     21  C   UNL     1     113.209 124.916 136.937  0.00  0.00    +0.000 C 
BRANCH  21  23
ATOM     22  O   UNL     1     114.482 124.989 136.290  0.00  0.00    +0.000 OA
ATOM     23  C   UNL     1     113.767 124.597 136.419  0.00  0.00    +0.000 C 
ENDBRANCH  21  23
ENDBRANCH   4  17
BRANCH  12  25
ATOM     24  O   UNL     1     114.416 131.691 141.701  0.00  0.00    +0.000 OA
ATOM     25  C   UNL     1     113.955 129.550 140.548  0.00  0.00    +0.000 A 
ATOM     26  C   UNL     1     113.407 129.856 141.084  0.00  0.00    +0.000 A 
ATOM     27  C   UNL     1     114.656 129.957 140.397  0.00  0.00    +0.000 A 
ATOM     28  C   UNL     1     113.561 130.570 141.468  0.00  0.00    +0.000 A 
ATOM     29  C   UNL     1     114.809 130.671 140.781  0.00  0.00    +0.000 A 
ATOM     30  C   UNL     1     114.262 130.978 141.317  0.00  0.00    +0.000 A 
ENDBRANCH  12  25
BRANCH   5  31
ATOM     31  O   UNL     1     112.400 127.378 137.126  0.00  0.00    +0.000 OA
BRANCH  31  39
ATOM     32  O   UNL     1     113.333 128.143 136.361  0.00  0.00    +0.000 OA
ATOM     33  O   UNL     1     111.478 129.514 135.466  0.00  0.00    +0.000 OA
ATOM     34  O   UNL     1     111.162 128.292 136.529  0.00  0.00    +0.000 OA
ATOM     35  O   UNL     1     113.030 129.821 135.000  0.00  0.00    +0.000 OA
ATOM     36  C   UNL     1     112.097 129.057 135.764  0.00  0.00    +0.000 C 
ATOM     37  C   UNL     1     111.939 128.446 136.296  0.00  0.00    +0.000 C 
ATOM     38  C   UNL     1     112.873 129.211 135.532  0.00  0.00    +0.000 C 
ATOM     39  C   UNL     1     112.557 127.989 136.595  0.00  0.00    +0.000 C 
ATOM     40  C   UNL     1     113.491 128.754 135.830  0.00  0.00    +0.000 C 
BRANCH  40  42
ATOM     41  O   UNL     1     114.756 128.287 135.357  0.00  0.00    +0.000 OA
ATOM     42  C   UNL     1     114.268 128.907 135.597  0.00  0.00    +0.000 C 
ENDBRANCH  40  42
ENDBRANCH  31  39
ENDBRANCH   5  31
TORSDOF 6
ENDMDL
MODEL 2
REMARK VINA RESULT:     -10.2      1.659      5.198
REMARK  Name = 102514991
REMARK  6 active torsions:
REMARK  status: ('A' for Active; 'I' for Inactive)
REMARK    1  A    between atoms: O_3  and  C_25
REMARK    2  A    between atoms: O_3  and  C_27
REMARK    3  A    between atoms: C_16  and  C_21
REMARK    4  A    between atoms: C_20  and  C_28
REMARK    5  A    between atoms: C_26  and  C_30
REMARK    6  A    between atoms: C_36  and  C_37
REMARK                            x       y       z     vdW  Elec       q    Type
REMARK                         _______ _______ _______ _____ _____    ______ ____
ROOT
ATOM      1  O   UNL     1     113.928 128.310 141.146  0.00  0.00    +0.000 OA
ATOM      2  O   UNL     1     113.295 127.318 138.501  0.00  0.00    +0.000 OA
ATOM      3  O   UNL     1     114.186 126.925 140.838  0.00  0.00    +0.000 OA
ATOM      4  C   UNL     1     113.368 129.191 140.170  0.00  0.00    +0.000 A 
ATOM      5  C   UNL     1     113.077 129.323 139.409  0.00  0.00    +0.000 A 
ATOM      6  C   UNL     1     113.637 128.441 140.385  0.00  0.00    +0.000 A 
ATOM      7  C   UNL     1     113.055 128.704 138.864  0.00  0.00    +0.000 A 
ATOM      8  C   UNL     1     113.614 127.823 139.839  0.00  0.00    +0.000 A 
ATOM      9  C   UNL     1     113.324 127.955 139.078  0.00  0.00    +0.000 A 
ATOM     10  C   UNL     1     113.897 127.046 140.075  0.00  0.00    +0.000 A 
ATOM     11  C   UNL     1     113.877 126.399 139.511  0.00  0.00    +0.000 A 
ATOM     12  C   UNL     1     113.574 126.536 138.719  0.00  0.00    +0.000 A 
ENDROOT
BRANCH   4  17
ATOM     13  O   UNL     1     112.743 129.950 141.207  0.00  0.00    +0.000 OA
ATOM     14  O   UNL     1     114.709 130.145 140.279  0.00  0.00    +0.000 OA
ATOM     15  O   UNL     1     114.755 131.381 141.371  0.00  0.00    +0.000 OA
ATOM     16  O   UNL     1     113.459 131.663 142.353  0.00  0.00    +0.000 OA
ATOM     17  C   UNL     1     113.390 129.809 140.716  0.00  0.00    +0.000 C 
ATOM     18  C   UNL     1     114.061 130.286 140.770  0.00  0.00    +0.000 C 
ATOM     19  C   UNL     1     114.084 130.905 141.316  0.00  0.00    +0.000 C 
ATOM     20  C   UNL     1     113.436 131.046 141.808  0.00  0.00    +0.000 C 
ATOM     21  C   UNL     1     112.766 130.568 141.752  0.00  0.00    +0.000 C 
BRANCH  21  23
ATOM     22  O   UNL     1     111.421 130.277 142.142  0.00  0.00    +0.000 OA
ATOM     23  C   UNL     1     112.118 130.709 142.244  0.00  0.00    +0.000 C 
ENDBRANCH  21  23
ENDBRANCH   4  17
BRANCH  12  25
ATOM     24  O   UNL     1     113.480 124.069 136.528  0.00  0.00    +0.000 OA
ATOM     25  C   UNL     1     113.551 125.919 138.171  0.00  0.00    +0.000 A 
ATOM     26  C   UNL     1     112.826 125.599 137.941  0.00  0.00    +0.000 A 
ATOM     27  C   UNL     1     114.252 125.622 137.854  0.00  0.00    +0.000 A 
ATOM     28  C   UNL     1     112.802 124.983 137.393  0.00  0.00    +0.000 A 
ATOM     29  C   UNL     1     114.228 125.005 137.306  0.00  0.00    +0.000 A 
ATOM     30  C   UNL     1     113.503 124.685 137.076  0.00  0.00    +0.000 A 
ENDBRANCH  12  25
BRANCH   5  31
ATOM     31  O   UNL     1     112.809 130.072 139.194  0.00  0.00    +0.000 OA
BRANCH  31  39
ATOM     32  O   UNL     1     111.461 129.791 138.810  0.00  0.00    +0.000 OA
ATOM     33  O   UNL     1     111.779 131.097 136.733  0.00  0.00    +0.000 OA
ATOM     34  O   UNL     1     113.021 130.943 137.809  0.00  0.00    +0.000 OA
ATOM     35  O   UNL     1     110.326 130.380 137.043  0.00  0.00    +0.000 OA
ATOM     36  C   UNL     1     111.672 130.661 137.426  0.00  0.00    +0.000 C 
ATOM     37  C   UNL     1     112.293 130.584 137.964  0.00  0.00    +0.000 C 
ATOM     38  C   UNL     1     110.946 130.303 137.580  0.00  0.00    +0.000 C 
ATOM     39  C   UNL     1     112.188 130.149 138.656  0.00  0.00    +0.000 C 
ATOM     40  C   UNL     1     110.840 129.868 138.273  0.00  0.00    +0.000 C 
BRANCH  40  42
ATOM     41  O   UNL     1     109.795 129.537 139.188  0.00  0.00    +0.000 OA
ATOM     42  C   UNL     1     110.113 129.510 138.428  0.00  0.00    +0.000 C 
ENDBRANCH  40  42
ENDBRANCH  31  39
ENDBRANCH   5  31
TORSDOF 6
ENDMDL
MODEL 3
REMARK VINA RESULT:     -10.0      2.465      5.893
REMARK  Name = 102514991
REMARK  6 active torsions:
REMARK  status: ('A' for Active; 'I' for Inactive)
REMARK    1  A    between atoms: O_3  and  C_25
REMARK    2  A    between atoms: O_3  and  C_27
REMARK    3  A    between atoms: C_16  and  C_21
REMARK    4  A    between atoms: C_20  and  C_28
REMARK    5  A    between atoms: C_26  and  C_30
REMARK    6  A    between atoms: C_36  and  C_37
REMARK                            x       y       z     vdW  Elec       q    Type
REMARK                         _______ _______ _______ _____ _____    ______ ____
ROOT
ATOM      1  O   UNL     1     108.565 128.544 136.271  0.00  0.00    +0.000 OA
ATOM      2  O   UNL     1     111.019 127.055 136.643  0.00  0.00    +0.000 OA
ATOM      3  O   UNL     1     108.501 127.108 136.385  0.00  0.00    +0.000 OA
ATOM      4  C   UNL     1     109.815 129.235 136.338  0.00  0.00    +0.000 A 
ATOM      5  C   UNL     1     110.635 129.221 136.422  0.00  0.00    +0.000 A 
ATOM      6  C   UNL     1     109.386 128.530 136.355  0.00  0.00    +0.000 A 
ATOM      7  C   UNL     1     111.027 128.502 136.522  0.00  0.00    +0.000 A 
ATOM      8  C   UNL     1     109.779 127.812 136.454  0.00  0.00    +0.000 A 
ATOM      9  C   UNL     1     110.599 127.798 136.538  0.00  0.00    +0.000 A 
ATOM     10  C   UNL     1     109.321 127.084 136.470  0.00  0.00    +0.000 A 
ATOM     11  C   UNL     1     109.724 126.332 136.573  0.00  0.00    +0.000 A 
ATOM     12  C   UNL     1     110.579 126.318 136.660  0.00  0.00    +0.000 A 
ENDROOT
BRANCH   4  17
ATOM     13  O   UNL     1     109.179 130.387 136.897  0.00  0.00    +0.000 OA
ATOM     14  O   UNL     1     109.515 129.805 134.820  0.00  0.00    +0.000 OA
ATOM     15  O   UNL     1     108.729 131.242 134.619  0.00  0.00    +0.000 OA
ATOM     16  O   UNL     1     108.244 132.109 135.937  0.00  0.00    +0.000 OA
ATOM     17  C   UNL     1     109.422 129.954 136.238  0.00  0.00    +0.000 C 
ATOM     18  C   UNL     1     109.272 130.239 135.479  0.00  0.00    +0.000 C 
ATOM     19  C   UNL     1     108.879 130.958 135.378  0.00  0.00    +0.000 C 
ATOM     20  C   UNL     1     108.636 131.391 136.037  0.00  0.00    +0.000 C 
ATOM     21  C   UNL     1     108.787 131.105 136.797  0.00  0.00    +0.000 C 
BRANCH  21  23
ATOM     22  O   UNL     1     108.485 131.170 138.193  0.00  0.00    +0.000 OA
ATOM     23  C   UNL     1     108.544 131.538 137.455  0.00  0.00    +0.000 C 
ENDBRANCH  21  23
ENDBRANCH   4  17
BRANCH  12  25
ATOM     24  O   UNL     1     112.158 123.447 137.059  0.00  0.00    +0.000 OA
ATOM     25  C   UNL     1     110.973 125.600 136.760  0.00  0.00    +0.000 A 
ATOM     26  C   UNL     1     111.183 125.150 136.102  0.00  0.00    +0.000 A 
ATOM     27  C   UNL     1     111.158 125.333 137.519  0.00  0.00    +0.000 A 
ATOM     28  C   UNL     1     111.578 124.432 136.202  0.00  0.00    +0.000 A 
ATOM     29  C   UNL     1     111.553 124.615 137.618  0.00  0.00    +0.000 A 
ATOM     30  C   UNL     1     111.763 124.165 136.959  0.00  0.00    +0.000 A 
ENDBRANCH  12  25
BRANCH   5  31
ATOM     31  O   UNL     1     111.063 129.926 136.405  0.00  0.00    +0.000 OA
BRANCH  31  39
ATOM     32  O   UNL     1     111.685 129.951 137.692  0.00  0.00    +0.000 OA
ATOM     33  O   UNL     1     113.878 130.372 136.625  0.00  0.00    +0.000 OA
ATOM     34  O   UNL     1     112.525 130.207 135.694  0.00  0.00    +0.000 OA
ATOM     35  O   UNL     1     113.768 130.256 138.267  0.00  0.00    +0.000 OA
ATOM     36  C   UNL     1     113.147 130.231 136.981  0.00  0.00    +0.000 C 
ATOM     37  C   UNL     1     112.471 130.149 136.516  0.00  0.00    +0.000 C 
ATOM     38  C   UNL     1     113.092 130.174 137.802  0.00  0.00    +0.000 C 
ATOM     39  C   UNL     1     111.739 130.008 136.871  0.00  0.00    +0.000 C 
ATOM     40  C   UNL     1     112.361 130.033 138.157  0.00  0.00    +0.000 C 
BRANCH  40  42
ATOM     41  O   UNL     1     111.708 130.378 139.381  0.00  0.00    +0.000 OA
ATOM     42  C   UNL     1     112.306 129.975 138.979  0.00  0.00    +0.000 C 
ENDBRANCH  40  42
ENDBRANCH  31  39
ENDBRANCH   5  31
TORSDOF 6
ENDMDL
MODEL 4
REMARK VINA RESULT:      -9.8      2.561      5.583
REMARK  Name = 102514991
REMARK  6 active torsions:
REMARK  status: ('A' for Active; 'I' for Inactive)
REMARK    1  A    between atoms: O_3  and  C_25
REMARK    2  A    between atoms: O_3  and  C_27
REMARK    3  A    between atoms: C_16  and  C_21
REMARK    4  A    between atoms: C_20  and  C_28
REMARK    5  A    between atoms: C_26  and  C_30
REMARK    6  A    between atoms: C_36  and  C_37
REMARK                            x       y       z     vdW  Elec       q    Type
REMARK                         _______ _______ _______ _____ _____    ______ ____
ROOT
ATOM      1  O   UNL     1     108.699 128.393 136.505  0.00  0.00    +0.000 OA
ATOM      2  O   UNL     1     111.127 126.887 136.968  0.00  0.00    +0.000 OA
ATOM      3  O   UNL     1     108.659 126.955 136.404  0.00  0.00    +0.000 OA
ATOM      4  C   UNL     1     109.911 129.078 136.828  0.00  0.00    +0.000 A 
ATOM      5  C   UNL     1     110.715 129.059 137.012  0.00  0.00    +0.000 A 
ATOM      6  C   UNL     1     109.503 128.374 136.689  0.00  0.00    +0.000 A 
ATOM      7  C   UNL     1     111.111 128.336 137.057  0.00  0.00    +0.000 A 
ATOM      8  C   UNL     1     109.899 127.652 136.734  0.00  0.00    +0.000 A 
ATOM      9  C   UNL     1     110.703 127.633 136.918  0.00  0.00    +0.000 A 
ATOM     10  C   UNL     1     109.463 126.926 136.587  0.00  0.00    +0.000 A 
ATOM     11  C   UNL     1     109.870 126.171 136.633  0.00  0.00    +0.000 A 
ATOM     12  C   UNL     1     110.707 126.151 136.824  0.00  0.00    +0.000 A 
ENDROOT
BRANCH   4  17
ATOM     13  O   UNL     1     109.518 130.230 136.079  0.00  0.00    +0.000 OA
ATOM     14  O   UNL     1     109.113 129.663 138.147  0.00  0.00    +0.000 OA
ATOM     15  O   UNL     1     108.319 131.107 138.058  0.00  0.00    +0.000 OA
ATOM     16  O   UNL     1     108.325 131.966 136.650  0.00  0.00    +0.000 OA
ATOM     17  C   UNL     1     109.515 129.800 136.783  0.00  0.00    +0.000 C 
ATOM     18  C   UNL     1     109.116 130.092 137.443  0.00  0.00    +0.000 C 
ATOM     19  C   UNL     1     108.719 130.815 137.398  0.00  0.00    +0.000 C 
ATOM     20  C   UNL     1     108.722 131.244 136.694  0.00  0.00    +0.000 C 
ATOM     21  C   UNL     1     109.121 130.951 136.034  0.00  0.00    +0.000 C 
BRANCH  21  23
ATOM     22  O   UNL     1     109.264 130.996 134.612  0.00  0.00    +0.000 OA
ATOM     23  C   UNL     1     109.124 131.380 135.330  0.00  0.00    +0.000 C 
ENDBRANCH  21  23
ENDBRANCH   4  17
BRANCH  12  25
ATOM     24  O   UNL     1     112.301 123.267 137.008  0.00  0.00    +0.000 OA
ATOM     25  C   UNL     1     111.106 125.430 136.870  0.00  0.00    +0.000 A 
ATOM     26  C   UNL     1     111.247 125.083 137.605  0.00  0.00    +0.000 A 
ATOM     27  C   UNL     1     111.362 125.056 136.181  0.00  0.00    +0.000 A 
ATOM     28  C   UNL     1     111.646 124.362 137.651  0.00  0.00    +0.000 A 
ATOM     29  C   UNL     1     111.761 124.335 136.227  0.00  0.00    +0.000 A 
ATOM     30  C   UNL     1     111.903 123.988 136.962  0.00  0.00    +0.000 A 
ENDBRANCH  12  25
BRANCH   5  31
ATOM     31  O   UNL     1     111.123 129.762 137.151  0.00  0.00    +0.000 OA
BRANCH  31  39
ATOM     32  O   UNL     1     112.192 129.609 136.215  0.00  0.00    +0.000 OA
ATOM     33  O   UNL     1     113.801 130.397 137.921  0.00  0.00    +0.000 OA
ATOM     34  O   UNL     1     112.196 130.287 138.289  0.00  0.00    +0.000 OA
ATOM     35  O   UNL     1     114.333 129.981 136.416  0.00  0.00    +0.000 OA
ATOM     36  C   UNL     1     113.265 130.134 137.352  0.00  0.00    +0.000 C 
ATOM     37  C   UNL     1     112.462 130.079 137.536  0.00  0.00    +0.000 C 
ATOM     38  C   UNL     1     113.530 129.926 136.600  0.00  0.00    +0.000 C 
ATOM     39  C   UNL     1     111.925 129.817 136.967  0.00  0.00    +0.000 C 
ATOM     40  C   UNL     1     112.994 129.664 136.031  0.00  0.00    +0.000 C 
BRANCH  40  42
ATOM     41  O   UNL     1     112.795 129.623 134.617  0.00  0.00    +0.000 OA
ATOM     42  C   UNL     1     113.259 129.456 135.278  0.00  0.00    +0.000 C 
ENDBRANCH  40  42
ENDBRANCH  31  39
ENDBRANCH   5  31
TORSDOF 6
ENDMDL
MODEL 5
REMARK VINA RESULT:      -9.8      1.667      3.811
REMARK  Name = 102514991
REMARK  6 active torsions:
REMARK  status: ('A' for Active; 'I' for Inactive)
REMARK    1  A    between atoms: O_3  and  C_25
REMARK    2  A    between atoms: O_3  and  C_27
REMARK    3  A    between atoms: C_16  and  C_21
REMARK    4  A    between atoms: C_20  and  C_28
REMARK    5  A    between atoms: C_26  and  C_30
REMARK    6  A    between atoms: C_36  and  C_37
REMARK                            x       y       z     vdW  Elec       q    Type
REMARK                         _______ _______ _______ _____ _____    ______ ____
ROOT
ATOM      1  O   UNL     1     112.701 126.911 135.987  0.00  0.00    +0.000 OA
ATOM      2  O   UNL     1     111.741 129.012 137.730  0.00  0.00    +0.000 OA
ATOM      3  O   UNL     1     112.500 128.232 135.444  0.00  0.00    +0.000 OA
ATOM      4  C   UNL     1     112.434 126.629 137.363  0.00  0.00    +0.000 A 
ATOM      5  C   UNL     1     112.187 126.880 138.109  0.00  0.00    +0.000 A 
ATOM      6  C   UNL     1     112.454 127.162 136.733  0.00  0.00    +0.000 A 
ATOM      7  C   UNL     1     111.960 127.665 138.225  0.00  0.00    +0.000 A 
ATOM      8  C   UNL     1     112.227 127.946 136.850  0.00  0.00    +0.000 A 
ATOM      9  C   UNL     1     111.980 128.198 137.596  0.00  0.00    +0.000 A 
ATOM     10  C   UNL     1     112.251 128.492 136.187  0.00  0.00    +0.000 A 
ATOM     11  C   UNL     1     112.016 129.310 136.302  0.00  0.00    +0.000 A 
ATOM     12  C   UNL     1     111.759 129.572 137.079  0.00  0.00    +0.000 A 
ENDROOT
BRANCH   4  17
ATOM     13  O   UNL     1     113.448 125.621 137.355  0.00  0.00    +0.000 OA
ATOM     14  O   UNL     1     111.314 125.506 136.908  0.00  0.00    +0.000 OA
ATOM     15  O   UNL     1     111.767 123.937 136.673  0.00  0.00    +0.000 OA
ATOM     16  O   UNL     1     113.341 123.491 136.893  0.00  0.00    +0.000 OA
ATOM     17  C   UNL     1     112.661 125.844 137.245  0.00  0.00    +0.000 C 
ATOM     18  C   UNL     1     112.101 125.283 137.018  0.00  0.00    +0.000 C 
ATOM     19  C   UNL     1     112.328 124.498 136.901  0.00  0.00    +0.000 C 
ATOM     20  C   UNL     1     113.115 124.275 137.010  0.00  0.00    +0.000 C 
ATOM     21  C   UNL     1     113.674 124.837 137.238  0.00  0.00    +0.000 C 
BRANCH  21  23
ATOM     22  O   UNL     1     114.968 125.093 137.790  0.00  0.00    +0.000 OA
ATOM     23  C   UNL     1     114.461 124.614 137.347  0.00  0.00    +0.000 C 
ENDBRANCH  21  23
ENDBRANCH   4  17
BRANCH  12  25
ATOM     24  O   UNL     1     110.849 132.708 137.557  0.00  0.00    +0.000 OA
ATOM     25  C   UNL     1     111.532 130.356 137.199  0.00  0.00    +0.000 A 
ATOM     26  C   UNL     1     112.104 130.941 137.297  0.00  0.00    +0.000 A 
ATOM     27  C   UNL     1     110.731 130.554 137.220  0.00  0.00    +0.000 A 
ATOM     28  C   UNL     1     111.877 131.725 137.416  0.00  0.00    +0.000 A 
ATOM     29  C   UNL     1     110.504 131.339 137.339  0.00  0.00    +0.000 A 
ATOM     30  C   UNL     1     111.077 131.924 137.438  0.00  0.00    +0.000 A 
ENDBRANCH  12  25
BRANCH   5  31
ATOM     31  O   UNL     1     112.168 126.347 138.738  0.00  0.00    +0.000 OA
BRANCH  31  39
ATOM     32  O   UNL     1     113.021 126.979 139.695  0.00  0.00    +0.000 OA
ATOM     33  O   UNL     1     111.293 126.670 141.439  0.00  0.00    +0.000 OA
ATOM     34  O   UNL     1     111.016 126.141 139.901  0.00  0.00    +0.000 OA
ATOM     35  O   UNL     1     112.722 127.405 141.814  0.00  0.00    +0.000 OA
ATOM     36  C   UNL     1     111.870 126.773 140.858  0.00  0.00    +0.000 C 
ATOM     37  C   UNL     1     111.731 126.509 140.089  0.00  0.00    +0.000 C 
ATOM     38  C   UNL     1     112.584 127.140 141.045  0.00  0.00    +0.000 C 
ATOM     39  C   UNL     1     112.307 126.611 139.507  0.00  0.00    +0.000 C 
ATOM     40  C   UNL     1     113.159 127.243 140.464  0.00  0.00    +0.000 C 
BRANCH  40  42
ATOM     41  O   UNL     1     114.586 127.215 140.524  0.00  0.00    +0.000 OA
ATOM     42  C   UNL     1     113.874 127.611 140.650  0.00  0.00    +0.000 C 
ENDBRANCH  40  42
ENDBRANCH  31  39
ENDBRANCH   5  31
TORSDOF 6
ENDMDL
MODEL 6
REMARK VINA RESULT:      -9.6      2.121      5.039
REMARK  Name = 102514991
REMARK  6 active torsions:
REMARK  status: ('A' for Active; 'I' for Inactive)
REMARK    1  A    between atoms: O_3  and  C_25
REMARK    2  A    between atoms: O_3  and  C_27
REMARK    3  A    between atoms: C_16  and  C_21
REMARK    4  A    between atoms: C_20  and  C_28
REMARK    5  A    between atoms: C_26  and  C_30
REMARK    6  A    between atoms: C_36  and  C_37
REMARK                            x       y       z     vdW  Elec       q    Type
REMARK                         _______ _______ _______ _____ _____    ______ ____
ROOT
ATOM      1  O   UNL     1     113.621 127.756 141.342  0.00  0.00    +0.000 OA
ATOM      2  O   UNL     1     112.784 126.897 138.707  0.00  0.00    +0.000 OA
ATOM      3  O   UNL     1     114.440 126.812 140.621  0.00  0.00    +0.000 OA
ATOM      4  C   UNL     1     112.412 128.268 140.777  0.00  0.00    +0.000 A 
ATOM      5  C   UNL     1     111.871 128.298 140.155  0.00  0.00    +0.000 A 
ATOM      6  C   UNL     1     113.080 127.786 140.720  0.00  0.00    +0.000 A 
ATOM      7  C   UNL     1     111.998 127.845 139.476  0.00  0.00    +0.000 A 
ATOM      8  C   UNL     1     113.205 127.334 140.041  0.00  0.00    +0.000 A 
ATOM      9  C   UNL     1     112.664 127.364 139.420  0.00  0.00    +0.000 A 
ATOM     10  C   UNL     1     113.904 126.836 139.994  0.00  0.00    +0.000 A 
ATOM     11  C   UNL     1     114.041 126.362 139.291  0.00  0.00    +0.000 A 
ATOM     12  C   UNL     1     113.477 126.394 138.643  0.00  0.00    +0.000 A 
ENDROOT
BRANCH   4  17
ATOM     13  O   UNL     1     112.567 129.495 141.493  0.00  0.00    +0.000 OA
ATOM     14  O   UNL     1     111.602 127.620 142.058  0.00  0.00    +0.000 OA
ATOM     15  O   UNL     1     111.350 128.523 143.416  0.00  0.00    +0.000 OA
ATOM     16  O   UNL     1     111.910 130.074 143.492  0.00  0.00    +0.000 OA
ATOM     17  C   UNL     1     112.287 128.720 141.455  0.00  0.00    +0.000 C 
ATOM     18  C   UNL     1     111.881 128.396 142.096  0.00  0.00    +0.000 C 
ATOM     19  C   UNL     1     111.756 128.848 142.776  0.00  0.00    +0.000 C 
ATOM     20  C   UNL     1     112.035 129.623 142.813  0.00  0.00    +0.000 C 
ATOM     21  C   UNL     1     112.441 129.946 142.171  0.00  0.00    +0.000 C 
BRANCH  21  23
ATOM     22  O   UNL     1     113.234 131.004 141.627  0.00  0.00    +0.000 OA
ATOM     23  C   UNL     1     112.721 130.721 142.209  0.00  0.00    +0.000 C 
ENDBRANCH  21  23
ENDBRANCH   4  17
BRANCH  12  25
ATOM     24  O   UNL     1     113.972 124.590 135.924  0.00  0.00    +0.000 OA
ATOM     25  C   UNL     1     113.601 125.942 137.963  0.00  0.00    +0.000 A 
ATOM     26  C   UNL     1     114.067 126.239 137.351  0.00  0.00    +0.000 A 
ATOM     27  C   UNL     1     113.258 125.195 137.896  0.00  0.00    +0.000 A 
ATOM     28  C   UNL     1     114.191 125.788 136.671  0.00  0.00    +0.000 A 
ATOM     29  C   UNL     1     113.382 124.744 137.216  0.00  0.00    +0.000 A 
ATOM     30  C   UNL     1     113.848 125.041 136.603  0.00  0.00    +0.000 A 
ENDBRANCH  12  25
BRANCH   5  31
ATOM     31  O   UNL     1     111.204 128.780 140.211  0.00  0.00    +0.000 OA
BRANCH  31  39
ATOM     32  O   UNL     1     111.390 129.675 139.113  0.00  0.00    +0.000 OA
ATOM     33  O   UNL     1     109.066 129.252 138.375  0.00  0.00    +0.000 OA
ATOM     34  O   UNL     1     109.655 128.497 139.719  0.00  0.00    +0.000 OA
ATOM     35  O   UNL     1     110.027 130.289 137.523  0.00  0.00    +0.000 OA
ATOM     36  C   UNL     1     109.841 129.393 138.620  0.00  0.00    +0.000 C 
ATOM     37  C   UNL     1     110.136 129.016 139.292  0.00  0.00    +0.000 C 
ATOM     38  C   UNL     1     110.321 129.911 138.195  0.00  0.00    +0.000 C 
ATOM     39  C   UNL     1     110.910 129.157 139.539  0.00  0.00    +0.000 C 
ATOM     40  C   UNL     1     111.095 130.053 138.441  0.00  0.00    +0.000 C 
BRANCH  40  42
ATOM     41  O   UNL     1     112.046 131.119 138.415  0.00  0.00    +0.000 OA
ATOM     42  C   UNL     1     111.576 130.571 138.016  0.00  0.00    +0.000 C 
ENDBRANCH  40  42
ENDBRANCH  31  39
ENDBRANCH   5  31
TORSDOF 6
ENDMDL
MODEL 7
REMARK VINA RESULT:      -9.6      2.287      4.936
REMARK  Name = 102514991
REMARK  6 active torsions:
REMARK  status: ('A' for Active; 'I' for Inactive)
REMARK    1  A    between atoms: O_3  and  C_25
REMARK    2  A    between atoms: O_3  and  C_27
REMARK    3  A    between atoms: C_16  and  C_21
REMARK    4  A    between atoms: C_20  and  C_28
REMARK    5  A    between atoms: C_26  and  C_30
REMARK    6  A    between atoms: C_36  and  C_37
REMARK                            x       y       z     vdW  Elec       q    Type
REMARK                         _______ _______ _______ _____ _____    ______ ____
ROOT
ATOM      1  O   UNL     1     110.725 126.397 139.594  0.00  0.00    +0.000 OA
ATOM      2  O   UNL     1     113.347 126.691 138.402  0.00  0.00    +0.000 OA
ATOM      3  O   UNL     1     111.171 125.417 138.635  0.00  0.00    +0.000 OA
ATOM      4  C   UNL     1     111.555 127.503 139.960  0.00  0.00    +0.000 A 
ATOM      5  C   UNL     1     112.262 127.920 139.887  0.00  0.00    +0.000 A 
ATOM      6  C   UNL     1     111.433 126.815 139.521  0.00  0.00    +0.000 A 
ATOM      7  C   UNL     1     112.849 127.650 139.373  0.00  0.00    +0.000 A 
ATOM      8  C   UNL     1     112.020 126.545 139.007  0.00  0.00    +0.000 A 
ATOM      9  C   UNL     1     112.728 126.963 138.934  0.00  0.00    +0.000 A 
ATOM     10  C   UNL     1     111.882 125.828 138.555  0.00  0.00    +0.000 A 
ATOM     11  C   UNL     1     112.489 125.542 138.019  0.00  0.00    +0.000 A 
ATOM     12  C   UNL     1     113.226 125.976 137.942  0.00  0.00    +0.000 A 
ENDROOT
BRANCH   4  17
ATOM     13  O   UNL     1     110.405 128.315 140.209  0.00  0.00    +0.000 OA
ATOM     14  O   UNL     1     111.507 126.957 141.516  0.00  0.00    +0.000 OA
ATOM     15  O   UNL     1     110.334 127.496 142.544  0.00  0.00    +0.000 OA
ATOM     16  O   UNL     1     109.208 128.580 142.015  0.00  0.00    +0.000 OA
ATOM     17  C   UNL     1     110.968 127.773 140.474  0.00  0.00    +0.000 C 
ATOM     18  C   UNL     1     110.944 127.499 141.252  0.00  0.00    +0.000 C 
ATOM     19  C   UNL     1     110.357 127.769 141.766  0.00  0.00    +0.000 C 
ATOM     20  C   UNL     1     109.794 128.311 141.501  0.00  0.00    +0.000 C 
ATOM     21  C   UNL     1     109.819 128.583 140.723  0.00  0.00    +0.000 C 
BRANCH  21  23
ATOM     22  O   UNL     1     109.052 129.152 139.658  0.00  0.00    +0.000 OA
ATOM     23  C   UNL     1     109.256 129.126 140.458  0.00  0.00    +0.000 C 
ENDBRANCH  21  23
ENDBRANCH   4  17
BRANCH  12  25
ATOM     24  O   UNL     1     115.580 124.904 135.892  0.00  0.00    +0.000 OA
ATOM     25  C   UNL     1     113.814 125.708 137.429  0.00  0.00    +0.000 A 
ATOM     26  C   UNL     1     114.307 125.087 137.656  0.00  0.00    +0.000 A 
ATOM     27  C   UNL     1     113.910 126.062 136.690  0.00  0.00    +0.000 A 
ATOM     28  C   UNL     1     114.895 124.819 137.143  0.00  0.00    +0.000 A 
ATOM     29  C   UNL     1     114.499 125.793 136.178  0.00  0.00    +0.000 A 
ATOM     30  C   UNL     1     114.991 125.172 136.404  0.00  0.00    +0.000 A 
ENDBRANCH  12  25
BRANCH   5  31
ATOM     31  O   UNL     1     112.383 128.607 140.326  0.00  0.00    +0.000 OA
BRANCH  31  39
ATOM     32  O   UNL     1     112.695 129.564 139.311  0.00  0.00    +0.000 OA
ATOM     33  O   UNL     1     114.688 130.277 140.593  0.00  0.00    +0.000 OA
ATOM     34  O   UNL     1     113.712 129.083 141.181  0.00  0.00    +0.000 OA
ATOM     35  O   UNL     1     114.334 130.995 139.150  0.00  0.00    +0.000 OA
ATOM     36  C   UNL     1     114.023 130.039 140.165  0.00  0.00    +0.000 C 
ATOM     37  C   UNL     1     113.535 129.442 140.459  0.00  0.00    +0.000 C 
ATOM     38  C   UNL     1     113.846 130.398 139.444  0.00  0.00    +0.000 C 
ATOM     39  C   UNL     1     112.871 129.204 140.032  0.00  0.00    +0.000 C 
ATOM     40  C   UNL     1     113.182 130.161 139.017  0.00  0.00    +0.000 C 
BRANCH  40  42
ATOM     41  O   UNL     1     112.226 130.728 138.120  0.00  0.00    +0.000 OA
ATOM     42  C   UNL     1     113.005 130.520 138.296  0.00  0.00    +0.000 C 
ENDBRANCH  40  42
ENDBRANCH  31  39
ENDBRANCH   5  31
TORSDOF 6
ENDMDL
MODEL 8
REMARK VINA RESULT:      -9.5      2.636      5.957
REMARK  Name = 102514991
REMARK  6 active torsions:
REMARK  status: ('A' for Active; 'I' for Inactive)
REMARK    1  A    between atoms: O_3  and  C_25
REMARK    2  A    between atoms: O_3  and  C_27
REMARK    3  A    between atoms: C_16  and  C_21
REMARK    4  A    between atoms: C_20  and  C_28
REMARK    5  A    between atoms: C_26  and  C_30
REMARK    6  A    between atoms: C_36  and  C_37
REMARK                            x       y       z     vdW  Elec       q    Type
REMARK                         _______ _______ _______ _____ _____    ______ ____
ROOT
ATOM      1  O   UNL     1     110.031 128.964 135.128  0.00  0.00    +0.000 OA
ATOM      2  O   UNL     1     111.060 126.999 136.987  0.00  0.00    +0.000 OA
ATOM      3  O   UNL     1     110.733 127.815 134.612  0.00  0.00    +0.000 OA
ATOM      4  C   UNL     1     109.839 129.144 136.533  0.00  0.00    +0.000 A 
ATOM      5  C   UNL     1     109.944 128.880 137.308  0.00  0.00    +0.000 A 
ATOM      6  C   UNL     1     110.136 128.701 135.903  0.00  0.00    +0.000 A 
ATOM      7  C   UNL     1     110.346 128.174 137.452  0.00  0.00    +0.000 A 
ATOM      8  C   UNL     1     110.538 127.996 136.048  0.00  0.00    +0.000 A 
ATOM      9  C   UNL     1     110.643 127.732 136.823  0.00  0.00    +0.000 A 
ATOM     10  C   UNL     1     110.843 127.543 135.384  0.00  0.00    +0.000 A 
ATOM     11  C   UNL     1     111.262 126.808 135.528  0.00  0.00    +0.000 A 
ATOM     12  C   UNL     1     111.372 126.534 136.335  0.00  0.00    +0.000 A 
ENDROOT
BRANCH   4  17
ATOM     13  O   UNL     1     109.846 130.566 136.390  0.00  0.00    +0.000 OA
ATOM     14  O   UNL     1     108.217 129.120 136.237  0.00  0.00    +0.000 OA
ATOM     15  O   UNL     1     107.411 130.531 135.945  0.00  0.00    +0.000 OA
ATOM     16  O   UNL     1     108.229 131.964 135.951  0.00  0.00    +0.000 OA
ATOM     17  C   UNL     1     109.437 129.849 136.388  0.00  0.00    +0.000 C 
ATOM     18  C   UNL     1     108.626 129.837 136.239  0.00  0.00    +0.000 C 
ATOM     19  C   UNL     1     108.223 130.543 136.094  0.00  0.00    +0.000 C 
ATOM     20  C   UNL     1     108.632 131.259 136.096  0.00  0.00    +0.000 C 
ATOM     21  C   UNL     1     109.443 131.270 136.245  0.00  0.00    +0.000 C 
BRANCH  21  23
ATOM     22  O   UNL     1     110.630 132.017 136.523  0.00  0.00    +0.000 OA
ATOM     23  C   UNL     1     109.852 131.987 136.248  0.00  0.00    +0.000 C 
ENDBRANCH  21  23
ENDBRANCH   4  17
BRANCH  12  25
ATOM     24  O   UNL     1     112.980 123.713 136.926  0.00  0.00    +0.000 OA
ATOM     25  C   UNL     1     111.774 125.829 136.483  0.00  0.00    +0.000 A 
ATOM     26  C   UNL     1     112.590 125.836 136.598  0.00  0.00    +0.000 A 
ATOM     27  C   UNL     1     111.358 125.116 136.516  0.00  0.00    +0.000 A 
ATOM     28  C   UNL     1     112.992 125.130 136.746  0.00  0.00    +0.000 A 
ATOM     29  C   UNL     1     111.761 124.411 136.664  0.00  0.00    +0.000 A 
ATOM     30  C   UNL     1     112.578 124.418 136.779  0.00  0.00    +0.000 A 
ENDBRANCH  12  25
BRANCH   5  31
ATOM     31  O   UNL     1     109.647 129.323 137.937  0.00  0.00    +0.000 OA
BRANCH  31  39
ATOM     32  O   UNL     1     110.832 129.601 138.686  0.00  0.00    +0.000 OA
ATOM     33  O   UNL     1     109.698 128.861 140.757  0.00  0.00    +0.000 OA
ATOM     34  O   UNL     1     108.891 128.829 139.318  0.00  0.00    +0.000 OA
ATOM     35  O   UNL     1     111.261 129.386 140.815  0.00  0.00    +0.000 OA
ATOM     36  C   UNL     1     110.077 129.108 140.067  0.00  0.00    +0.000 C 
ATOM     37  C   UNL     1     109.673 129.092 139.347  0.00  0.00    +0.000 C 
ATOM     38  C   UNL     1     110.858 129.370 140.095  0.00  0.00    +0.000 C 
ATOM     39  C   UNL     1     110.051 129.338 138.657  0.00  0.00    +0.000 C 
ATOM     40  C   UNL     1     111.236 129.617 139.406  0.00  0.00    +0.000 C 
BRANCH  40  42
ATOM     41  O   UNL     1     112.215 130.617 139.122  0.00  0.00    +0.000 OA
ATOM     42  C   UNL     1     112.017 129.879 139.434  0.00  0.00    +0.000 C 
ENDBRANCH  40  42
ENDBRANCH  31  39
ENDBRANCH   5  31
TORSDOF 6
ENDMDL
MODEL 9
REMARK VINA RESULT:      -9.5      2.076      5.337
REMARK  Name = 102514991
REMARK  6 active torsions:
REMARK  status: ('A' for Active; 'I' for Inactive)
REMARK    1  A    between atoms: O_3  and  C_25
REMARK    2  A    between atoms: O_3  and  C_27
REMARK    3  A    between atoms: C_16  and  C_21
REMARK    4  A    between atoms: C_20  and  C_28
REMARK    5  A    between atoms: C_26  and  C_30
REMARK    6  A    between atoms: C_36  and  C_37
REMARK                            x       y       z     vdW  Elec       q    Type
REMARK                         _______ _______ _______ _____ _____    ______ ____
ROOT
ATOM      1  O   UNL     1     110.790 128.955 136.514  0.00  0.00    +0.000 OA
ATOM      2  O   UNL     1     112.812 127.353 137.828  0.00  0.00    +0.000 OA
ATOM      3  O   UNL     1     111.380 127.849 135.800  0.00  0.00    +0.000 OA
ATOM      4  C   UNL     1     111.188 129.267 137.851  0.00  0.00    +0.000 A 
ATOM      5  C   UNL     1     111.653 129.108 138.513  0.00  0.00    +0.000 A 
ATOM      6  C   UNL     1     111.255 128.796 137.176  0.00  0.00    +0.000 A 
ATOM      7  C   UNL     1     112.186 128.478 138.501  0.00  0.00    +0.000 A 
ATOM      8  C   UNL     1     111.788 128.166 137.165  0.00  0.00    +0.000 A 
ATOM      9  C   UNL     1     112.253 128.007 137.828  0.00  0.00    +0.000 A 
ATOM     10  C   UNL     1     111.849 127.682 136.457  0.00  0.00    +0.000 A 
ATOM     11  C   UNL     1     112.402 127.025 136.439  0.00  0.00    +0.000 A 
ATOM     12  C   UNL     1     112.886 126.860 137.129  0.00  0.00    +0.000 A 
ENDROOT
BRANCH   4  17
ATOM     13  O   UNL     1     110.906 130.653 137.648  0.00  0.00    +0.000 OA
ATOM     14  O   UNL     1     109.622 129.013 138.301  0.00  0.00    +0.000 OA
ATOM     15  O   UNL     1     108.556 130.271 138.323  0.00  0.00    +0.000 OA
ATOM     16  O   UNL     1     109.056 131.784 137.895  0.00  0.00    +0.000 OA
ATOM     17  C   UNL     1     110.656 129.897 137.862  0.00  0.00    +0.000 C 
ATOM     18  C   UNL     1     109.872 129.769 138.087  0.00  0.00    +0.000 C 
ATOM     19  C   UNL     1     109.339 130.399 138.098  0.00  0.00    +0.000 C 
ATOM     20  C   UNL     1     109.589 131.156 137.884  0.00  0.00    +0.000 C 
ATOM     21  C   UNL     1     110.373 131.282 137.659  0.00  0.00    +0.000 C 
BRANCH  21  23
ATOM     22  O   UNL     1     111.396 132.158 137.180  0.00  0.00    +0.000 OA
ATOM     23  C   UNL     1     110.623 132.039 137.446  0.00  0.00    +0.000 C 
ENDBRANCH  21  23
ENDBRANCH   4  17
BRANCH  12  25
ATOM     24  O   UNL     1     115.020 124.342 137.093  0.00  0.00    +0.000 OA
ATOM     25  C   UNL     1     113.420 126.230 137.120  0.00  0.00    +0.000 A 
ATOM     26  C   UNL     1     114.090 126.264 136.640  0.00  0.00    +0.000 A 
ATOM     27  C   UNL     1     113.283 125.567 137.591  0.00  0.00    +0.000 A 
ATOM     28  C   UNL     1     114.623 125.635 136.631  0.00  0.00    +0.000 A 
ATOM     29  C   UNL     1     113.817 124.938 137.582  0.00  0.00    +0.000 A 
ATOM     30  C   UNL     1     114.487 124.972 137.102  0.00  0.00    +0.000 A 
ENDBRANCH  12  25
BRANCH   5  31
ATOM     31  O   UNL     1     111.586 129.579 139.187  0.00  0.00    +0.000 OA
BRANCH  31  39
ATOM     32  O   UNL     1     112.930 130.031 139.366  0.00  0.00    +0.000 OA
ATOM     33  O   UNL     1     112.829 129.387 141.753  0.00  0.00    +0.000 OA
ATOM     34  O   UNL     1     111.519 129.149 140.779  0.00  0.00    +0.000 OA
ATOM     35  O   UNL     1     114.206 130.054 141.136  0.00  0.00    +0.000 OA
ATOM     36  C   UNL     1     112.863 129.602 140.957  0.00  0.00    +0.000 C 
ATOM     37  C   UNL     1     112.208 129.483 140.470  0.00  0.00    +0.000 C 
ATOM     38  C   UNL     1     113.551 129.935 140.649  0.00  0.00    +0.000 C 
ATOM     39  C   UNL     1     112.241 129.697 139.674  0.00  0.00    +0.000 C 
ATOM     40  C   UNL     1     113.585 130.150 139.853  0.00  0.00    +0.000 C 
BRANCH  40  42
ATOM     41  O   UNL     1     114.224 131.044 138.941  0.00  0.00    +0.000 OA
ATOM     42  C   UNL     1     114.273 130.483 139.544  0.00  0.00    +0.000 C 
ENDBRANCH  40  42
ENDBRANCH  31  39
ENDBRANCH   5  31
TORSDOF 6
ENDMDL
