MODEL 1
REMARK VINA RESULT:     -10.0      0.000      0.000
REMARK  Name = 44259845
REMARK  9 active torsions:
REMARK  status: ('A' for Active; 'I' for Inactive)
REMARK    1  A    between atoms: O_3  and  C_21
REMARK    2  A    between atoms: O_3  and  C_23
REMARK    3  A    between atoms: O_6  and  C_22
REMARK    4  A    between atoms: O_6  and  C_27
REMARK    5  A    between atoms: O_13  and  C_41
REMARK    6  A    between atoms: C_19  and  C_22
REMARK    7  A    between atoms: C_27  and  C_32
REMARK    8  A    between atoms: C_31  and  C_34
REMARK    9  A    between atoms: C_35  and  C_38
REMARK                            x       y       z     vdW  Elec       q    Type
REMARK                         _______ _______ _______ _____ _____    ______ ____
ROOT
ATOM      1  O   UNL     1     113.744 126.408 136.707  0.00  0.00    +0.000 OA
ENDROOT
BRANCH   1   7
ATOM      2  O   UNL     1     112.007 128.106 138.312  0.00  0.00    +0.000 OA
ATOM      3  O   UNL     1     114.102 127.730 135.717  0.00  0.00    +0.000 OA
ATOM      4  O   UNL     1     113.400 129.231 136.044  0.00  0.00    +0.000 OA
ATOM      5  O   UNL     1     112.531 130.042 136.862  0.00  0.00    +0.000 OA
ATOM      6  O   UNL     1     111.502 130.222 138.139  0.00  0.00    +0.000 OA
ATOM      7  C   UNL     1     113.406 127.145 136.859  0.00  0.00    +0.000 A 
ATOM      8  C   UNL     1     113.588 127.817 136.355  0.00  0.00    +0.000 A 
ATOM      9  C   UNL     1     112.869 127.245 137.522  0.00  0.00    +0.000 A 
ATOM     10  C   UNL     1     112.522 128.016 137.673  0.00  0.00    +0.000 A 
ATOM     11  C   UNL     1     112.696 128.662 137.190  0.00  0.00    +0.000 A 
ATOM     12  C   UNL     1     113.231 128.580 136.522  0.00  0.00    +0.000 A 
ATOM     13  C   UNL     1     112.356 129.397 137.345  0.00  0.00    +0.000 A 
ATOM     14  C   UNL     1     111.667 128.842 138.466  0.00  0.00    +0.000 A 
ATOM     15  C   UNL     1     111.841 129.487 137.984  0.00  0.00    +0.000 A 
BRANCH  14  17
ATOM     16  O   UNL     1     109.026 128.728 139.552  0.00  0.00    +0.000 OA
ATOM     17  C   UNL     1     111.152 128.932 139.106  0.00  0.00    +0.000 A 
ATOM     18  C   UNL     1     110.347 128.785 139.010  0.00  0.00    +0.000 A 
ATOM     19  C   UNL     1     111.444 129.169 139.840  0.00  0.00    +0.000 A 
ATOM     20  C   UNL     1     109.832 128.875 139.648  0.00  0.00    +0.000 A 
ATOM     21  C   UNL     1     110.929 129.259 140.479  0.00  0.00    +0.000 A 
ATOM     22  C   UNL     1     110.123 129.112 140.382  0.00  0.00    +0.000 A 
BRANCH  22  23
ATOM     23  O   UNL     1     109.608 129.202 141.021  0.00  0.00    +0.000 OA
ATOM     24  C   UNL     1     109.903 129.420 141.760  0.00  0.00    +0.000 C 
ENDBRANCH  22  23
ENDBRANCH  14  17
ENDBRANCH   1   7
BRANCH   1  33
ATOM     25  O   UNL     1     112.527 125.795 136.278  0.00  0.00    +0.000 OA
ATOM     26  O   UNL     1     111.828 123.734 136.448  0.00  0.00    +0.000 OA
ATOM     27  O   UNL     1     113.305 123.623 137.175  0.00  0.00    +0.000 OA
ATOM     28  O   UNL     1     114.263 124.961 137.305  0.00  0.00    +0.000 OA
ATOM     29  C   UNL     1     112.307 124.402 136.512  0.00  0.00    +0.000 C 
ATOM     30  C   UNL     1     113.046 124.347 136.876  0.00  0.00    +0.000 C 
ATOM     31  C   UNL     1     112.048 125.126 136.213  0.00  0.00    +0.000 C 
ATOM     32  C   UNL     1     113.524 125.015 136.941  0.00  0.00    +0.000 C 
ATOM     33  C   UNL     1     113.265 125.739 136.642  0.00  0.00    +0.000 C 
BRANCH  31  34
ATOM     34  C   UNL     1     111.309 125.182 135.849  0.00  0.00    +0.000 C 
BRANCH  34  35
ATOM     35  O   UNL     1     111.173 125.766 135.282  0.00  0.00    +0.000 OA
BRANCH  35  37
ATOM     36  O   UNL     1     109.919 125.483 134.657  0.00  0.00    +0.000 OA
ATOM     37  C   UNL     1     110.400 125.988 135.098  0.00  0.00    +0.000 C 
BRANCH  37  38
ATOM     38  C   UNL     1     110.108 126.716 135.354  0.00  0.00    +0.000 C 
ATOM     39  C   UNL     1     109.920 127.301 134.804  0.00  0.00    +0.000 C 
BRANCH  39  42
ATOM     40  O   UNL     1     109.942 130.157 134.684  0.00  0.00    +0.000 OA
ATOM     41  O   UNL     1     108.754 130.214 135.829  0.00  0.00    +0.000 OA
ATOM     42  C   UNL     1     109.628 128.030 135.061  0.00  0.00    +0.000 A 
ATOM     43  C   UNL     1     109.931 128.729 134.744  0.00  0.00    +0.000 A 
ATOM     44  C   UNL     1     109.035 128.058 135.633  0.00  0.00    +0.000 A 
ATOM     45  C   UNL     1     109.639 129.458 135.001  0.00  0.00    +0.000 A 
ATOM     46  C   UNL     1     108.744 128.786 135.889  0.00  0.00    +0.000 A 
ATOM     47  C   UNL     1     109.045 129.486 135.573  0.00  0.00    +0.000 A 
ENDBRANCH  39  42
ENDBRANCH  37  38
ENDBRANCH  35  37
ENDBRANCH  34  35
ENDBRANCH  31  34
ENDBRANCH   1  33
TORSDOF 9
ENDMDL
MODEL 2
REMARK VINA RESULT:      -9.7      1.687      3.492
REMARK  Name = 44259845
REMARK  9 active torsions:
REMARK  status: ('A' for Active; 'I' for Inactive)
REMARK    1  A    between atoms: O_3  and  C_21
REMARK    2  A    between atoms: O_3  and  C_23
REMARK    3  A    between atoms: O_6  and  C_22
REMARK    4  A    between atoms: O_6  and  C_27
REMARK    5  A    between atoms: O_13  and  C_41
REMARK    6  A    between atoms: C_19  and  C_22
REMARK    7  A    between atoms: C_27  and  C_32
REMARK    8  A    between atoms: C_31  and  C_34
REMARK    9  A    between atoms: C_35  and  C_38
REMARK                            x       y       z     vdW  Elec       q    Type
REMARK                         _______ _______ _______ _____ _____    ______ ____
ROOT
ATOM      1  O   UNL     1     112.191 125.288 136.321  0.00  0.00    +0.000 OA
ENDROOT
BRANCH   1   7
ATOM      2  O   UNL     1     111.759 126.360 138.993  0.00  0.00    +0.000 OA
ATOM      3  O   UNL     1     113.860 125.340 136.581  0.00  0.00    +0.000 OA
ATOM      4  O   UNL     1     114.455 125.908 138.058  0.00  0.00    +0.000 OA
ATOM      5  O   UNL     1     114.203 126.438 139.376  0.00  0.00    +0.000 OA
ATOM      6  O   UNL     1     113.167 126.938 140.558  0.00  0.00    +0.000 OA
ATOM      7  C   UNL     1     112.491 125.563 137.038  0.00  0.00    +0.000 A 
ATOM      8  C   UNL     1     113.339 125.590 137.171  0.00  0.00    +0.000 A 
ATOM      9  C   UNL     1     111.956 125.825 137.657  0.00  0.00    +0.000 A 
ATOM     10  C   UNL     1     112.277 126.110 138.401  0.00  0.00    +0.000 A 
ATOM     11  C   UNL     1     113.093 126.136 138.529  0.00  0.00    +0.000 A 
ATOM     12  C   UNL     1     113.642 125.878 137.921  0.00  0.00    +0.000 A 
ATOM     13  C   UNL     1     113.388 126.412 139.248  0.00  0.00    +0.000 A 
ATOM     14  C   UNL     1     112.056 126.636 139.711  0.00  0.00    +0.000 A 
ATOM     15  C   UNL     1     112.870 126.662 139.839  0.00  0.00    +0.000 A 
BRANCH  14  17
ATOM     16  O   UNL     1     110.203 126.026 141.800  0.00  0.00    +0.000 OA
ATOM     17  C   UNL     1     111.537 126.887 140.303  0.00  0.00    +0.000 A 
ATOM     18  C   UNL     1     111.130 126.332 140.756  0.00  0.00    +0.000 A 
ATOM     19  C   UNL     1     111.427 127.693 140.441  0.00  0.00    +0.000 A 
ATOM     20  C   UNL     1     110.611 126.582 141.347  0.00  0.00    +0.000 A 
ATOM     21  C   UNL     1     110.909 127.944 141.032  0.00  0.00    +0.000 A 
ATOM     22  C   UNL     1     110.501 127.387 141.485  0.00  0.00    +0.000 A 
BRANCH  22  23
ATOM     23  O   UNL     1     109.982 127.638 142.076  0.00  0.00    +0.000 OA
ATOM     24  C   UNL     1     109.802 128.439 142.154  0.00  0.00    +0.000 C 
ENDBRANCH  22  23
ENDBRANCH  14  17
ENDBRANCH   1   7
BRANCH   1  33
ATOM     25  O   UNL     1     111.761 126.547 135.799  0.00  0.00    +0.000 OA
ATOM     26  O   UNL     1     109.983 127.087 134.654  0.00  0.00    +0.000 OA
ATOM     27  O   UNL     1     109.739 125.469 134.864  0.00  0.00    +0.000 OA
ATOM     28  O   UNL     1     110.843 124.569 135.697  0.00  0.00    +0.000 OA
ATOM     29  C   UNL     1     110.535 126.637 135.070  0.00  0.00    +0.000 C 
ATOM     30  C   UNL     1     110.413 125.828 135.176  0.00  0.00    +0.000 C 
ATOM     31  C   UNL     1     111.209 126.997 135.382  0.00  0.00    +0.000 C 
ATOM     32  C   UNL     1     110.965 125.378 135.592  0.00  0.00    +0.000 C 
ATOM     33  C   UNL     1     111.639 125.738 135.904  0.00  0.00    +0.000 C 
BRANCH  31  34
ATOM     34  C   UNL     1     111.331 127.806 135.277  0.00  0.00    +0.000 C 
BRANCH  34  35
ATOM     35  O   UNL     1     112.040 128.150 135.525  0.00  0.00    +0.000 OA
BRANCH  35  37
ATOM     36  O   UNL     1     111.985 129.509 135.086  0.00  0.00    +0.000 OA
ATOM     37  C   UNL     1     112.068 128.957 135.693  0.00  0.00    +0.000 C 
BRANCH  37  38
ATOM     38  C   UNL     1     112.180 129.212 136.471  0.00  0.00    +0.000 C 
ATOM     39  C   UNL     1     112.856 129.640 136.671  0.00  0.00    +0.000 C 
BRANCH  39  42
ATOM     40  O   UNL     1     111.869 130.947 139.013  0.00  0.00    +0.000 OA
ATOM     41  O   UNL     1     113.303 130.658 139.778  0.00  0.00    +0.000 OA
ATOM     42  C   UNL     1     112.968 129.895 137.448  0.00  0.00    +0.000 A 
ATOM     43  C   UNL     1     112.363 130.293 137.842  0.00  0.00    +0.000 A 
ATOM     44  C   UNL     1     113.685 129.751 137.830  0.00  0.00    +0.000 A 
ATOM     45  C   UNL     1     112.475 130.548 138.619  0.00  0.00    +0.000 A 
ATOM     46  C   UNL     1     113.796 130.005 138.606  0.00  0.00    +0.000 A 
ATOM     47  C   UNL     1     113.191 130.404 139.001  0.00  0.00    +0.000 A 
ENDBRANCH  39  42
ENDBRANCH  37  38
ENDBRANCH  35  37
ENDBRANCH  34  35
ENDBRANCH  31  34
ENDBRANCH   1  33
TORSDOF 9
ENDMDL
MODEL 3
REMARK VINA RESULT:      -9.6      1.514      4.274
REMARK  Name = 44259845
REMARK  9 active torsions:
REMARK  status: ('A' for Active; 'I' for Inactive)
REMARK    1  A    between atoms: O_3  and  C_21
REMARK    2  A    between atoms: O_3  and  C_23
REMARK    3  A    between atoms: O_6  and  C_22
REMARK    4  A    between atoms: O_6  and  C_27
REMARK    5  A    between atoms: O_13  and  C_41
REMARK    6  A    between atoms: C_19  and  C_22
REMARK    7  A    between atoms: C_27  and  C_32
REMARK    8  A    between atoms: C_31  and  C_34
REMARK    9  A    between atoms: C_35  and  C_38
REMARK                            x       y       z     vdW  Elec       q    Type
REMARK                         _______ _______ _______ _____ _____    ______ ____
ROOT
ATOM      1  O   UNL     1     110.945 130.327 135.577  0.00  0.00    +0.000 OA
ENDROOT
BRANCH   1   7
ATOM      2  O   UNL     1     112.023 129.230 138.049  0.00  0.00    +0.000 OA
ATOM      3  O   UNL     1     112.035 129.383 134.696  0.00  0.00    +0.000 OA
ATOM      4  O   UNL     1     113.111 128.369 135.515  0.00  0.00    +0.000 OA
ATOM      5  O   UNL     1     113.620 127.847 136.760  0.00  0.00    +0.000 OA
ATOM      6  O   UNL     1     113.610 127.776 138.408  0.00  0.00    +0.000 OA
ATOM      7  C   UNL     1     111.474 129.829 135.968  0.00  0.00    +0.000 A 
ATOM      8  C   UNL     1     112.028 129.349 135.520  0.00  0.00    +0.000 A 
ATOM      9  C   UNL     1     111.474 129.787 136.826  0.00  0.00    +0.000 A 
ATOM     10  C   UNL     1     112.028 129.266 137.225  0.00  0.00    +0.000 A 
ATOM     11  C   UNL     1     112.561 128.805 136.795  0.00  0.00    +0.000 A 
ATOM     12  C   UNL     1     112.575 128.834 135.936  0.00  0.00    +0.000 A 
ATOM     13  C   UNL     1     113.088 128.308 137.190  0.00  0.00    +0.000 A 
ATOM     14  C   UNL     1     112.551 128.733 138.443  0.00  0.00    +0.000 A 
ATOM     15  C   UNL     1     113.083 128.273 138.014  0.00  0.00    +0.000 A 
BRANCH  14  17
ATOM     16  O   UNL     1     113.501 129.677 140.968  0.00  0.00    +0.000 OA
ATOM     17  C   UNL     1     112.546 128.697 139.268  0.00  0.00    +0.000 A 
ATOM     18  C   UNL     1     113.026 129.205 139.706  0.00  0.00    +0.000 A 
ATOM     19  C   UNL     1     112.060 128.153 139.654  0.00  0.00    +0.000 A 
ATOM     20  C   UNL     1     113.021 129.169 140.530  0.00  0.00    +0.000 A 
ATOM     21  C   UNL     1     112.055 128.117 140.479  0.00  0.00    +0.000 A 
ATOM     22  C   UNL     1     112.536 128.626 140.917  0.00  0.00    +0.000 A 
BRANCH  22  23
ATOM     23  O   UNL     1     112.530 128.589 141.741  0.00  0.00    +0.000 OA
ATOM     24  C   UNL     1     112.045 128.045 142.127  0.00  0.00    +0.000 C 
ENDBRANCH  22  23
ENDBRANCH  14  17
ENDBRANCH   1   7
BRANCH   1  33
ATOM     25  O   UNL     1     109.803 129.476 135.689  0.00  0.00    +0.000 OA
ATOM     26  O   UNL     1     107.695 129.947 136.005  0.00  0.00    +0.000 OA
ATOM     27  O   UNL     1     108.355 131.459 135.995  0.00  0.00    +0.000 OA
ATOM     28  O   UNL     1     109.980 131.649 135.781  0.00  0.00    +0.000 OA
ATOM     29  C   UNL     1     108.507 130.042 135.898  0.00  0.00    +0.000 C 
ATOM     30  C   UNL     1     108.838 130.798 135.893  0.00  0.00    +0.000 C 
ATOM     31  C   UNL     1     108.990 129.381 135.796  0.00  0.00    +0.000 C 
ATOM     32  C   UNL     1     109.649 130.893 135.786  0.00  0.00    +0.000 C 
ATOM     33  C   UNL     1     110.132 130.232 135.684  0.00  0.00    +0.000 C 
BRANCH  31  34
ATOM     34  C   UNL     1     108.661 128.624 135.801  0.00  0.00    +0.000 C 
BRANCH  34  35
ATOM     35  O   UNL     1     108.913 128.069 136.357  0.00  0.00    +0.000 OA
BRANCH  35  37
ATOM     36  O   UNL     1     108.109 126.932 136.032  0.00  0.00    +0.000 OA
ATOM     37  C   UNL     1     108.848 127.263 136.193  0.00  0.00    +0.000 C 
BRANCH  37  38
ATOM     38  C   UNL     1     109.523 126.787 136.190  0.00  0.00    +0.000 C 
ATOM     39  C   UNL     1     109.681 126.293 136.831  0.00  0.00    +0.000 C 
BRANCH  39  42
ATOM     40  O   UNL     1     111.699 124.852 138.251  0.00  0.00    +0.000 OA
ATOM     41  O   UNL     1     112.378 124.391 136.819  0.00  0.00    +0.000 OA
ATOM     42  C   UNL     1     110.355 125.817 136.828  0.00  0.00    +0.000 A 
ATOM     43  C   UNL     1     110.690 125.572 137.541  0.00  0.00    +0.000 A 
ATOM     44  C   UNL     1     110.695 125.587 136.112  0.00  0.00    +0.000 A 
ATOM     45  C   UNL     1     111.365 125.096 137.538  0.00  0.00    +0.000 A 
ATOM     46  C   UNL     1     111.369 125.112 136.109  0.00  0.00    +0.000 A 
ATOM     47  C   UNL     1     111.704 124.866 136.822  0.00  0.00    +0.000 A 
ENDBRANCH  39  42
ENDBRANCH  37  38
ENDBRANCH  35  37
ENDBRANCH  34  35
ENDBRANCH  31  34
ENDBRANCH   1  33
TORSDOF 9
ENDMDL
MODEL 4
REMARK VINA RESULT:      -9.6      2.056      4.081
REMARK  Name = 44259845
REMARK  9 active torsions:
REMARK  status: ('A' for Active; 'I' for Inactive)
REMARK    1  A    between atoms: O_3  and  C_21
REMARK    2  A    between atoms: O_3  and  C_23
REMARK    3  A    between atoms: O_6  and  C_22
REMARK    4  A    between atoms: O_6  and  C_27
REMARK    5  A    between atoms: O_13  and  C_41
REMARK    6  A    between atoms: C_19  and  C_22
REMARK    7  A    between atoms: C_27  and  C_32
REMARK    8  A    between atoms: C_31  and  C_34
REMARK    9  A    between atoms: C_35  and  C_38
REMARK                            x       y       z     vdW  Elec       q    Type
REMARK                         _______ _______ _______ _____ _____    ______ ____
ROOT
ATOM      1  O   UNL     1     112.478 127.779 136.514  0.00  0.00    +0.000 OA
ENDROOT
BRANCH   1   7
ATOM      2  O   UNL     1     110.900 129.611 138.137  0.00  0.00    +0.000 OA
ATOM      3  O   UNL     1     113.669 128.966 136.352  0.00  0.00    +0.000 OA
ATOM      4  O   UNL     1     113.453 130.470 137.092  0.00  0.00    +0.000 OA
ATOM      5  O   UNL     1     112.644 131.351 137.899  0.00  0.00    +0.000 OA
ATOM      6  O   UNL     1     111.281 131.663 138.775  0.00  0.00    +0.000 OA
ATOM      7  C   UNL     1     112.381 128.516 136.872  0.00  0.00    +0.000 A 
ATOM      8  C   UNL     1     112.987 129.120 136.789  0.00  0.00    +0.000 A 
ATOM      9  C   UNL     1     111.674 128.684 137.330  0.00  0.00    +0.000 A 
ATOM     10  C   UNL     1     111.582 129.455 137.698  0.00  0.00    +0.000 A 
ATOM     11  C   UNL     1     112.163 130.035 137.619  0.00  0.00    +0.000 A 
ATOM     12  C   UNL     1     112.877 129.884 137.165  0.00  0.00    +0.000 A 
ATOM     13  C   UNL     1     112.063 130.771 137.979  0.00  0.00    +0.000 A 
ATOM     14  C   UNL     1     110.801 130.347 138.496  0.00  0.00    +0.000 A 
ATOM     15  C   UNL     1     111.381 130.927 138.417  0.00  0.00    +0.000 A 
BRANCH  14  17
ATOM     16  O   UNL     1     108.141 131.382 138.652  0.00  0.00    +0.000 OA
ATOM     17  C   UNL     1     110.118 130.503 138.934  0.00  0.00    +0.000 A 
ATOM     18  C   UNL     1     109.471 130.864 138.574  0.00  0.00    +0.000 A 
ATOM     19  C   UNL     1     110.086 130.297 139.732  0.00  0.00    +0.000 A 
ATOM     20  C   UNL     1     108.790 131.020 139.012  0.00  0.00    +0.000 A 
ATOM     21  C   UNL     1     109.404 130.453 140.171  0.00  0.00    +0.000 A 
ATOM     22  C   UNL     1     108.756 130.815 139.810  0.00  0.00    +0.000 A 
BRANCH  22  23
ATOM     23  O   UNL     1     108.075 130.971 140.249  0.00  0.00    +0.000 OA
ATOM     24  C   UNL     1     107.961 130.603 140.979  0.00  0.00    +0.000 C 
ENDBRANCH  22  23
ENDBRANCH  14  17
ENDBRANCH   1   7
BRANCH   1  33
ATOM     25  O   UNL     1     112.772 127.065 137.717  0.00  0.00    +0.000 OA
ATOM     26  O   UNL     1     112.281 125.027 138.325  0.00  0.00    +0.000 OA
ATOM     27  O   UNL     1     111.596 125.078 136.825  0.00  0.00    +0.000 OA
ATOM     28  O   UNL     1     111.694 126.454 135.920  0.00  0.00    +0.000 OA
ATOM     29  C   UNL     1     112.330 125.714 137.873  0.00  0.00    +0.000 C 
ATOM     30  C   UNL     1     111.988 125.741 137.122  0.00  0.00    +0.000 C 
ATOM     31  C   UNL     1     112.723 126.376 138.170  0.00  0.00    +0.000 C 
ATOM     32  C   UNL     1     112.037 126.428 136.670  0.00  0.00    +0.000 C 
ATOM     33  C   UNL     1     112.429 127.090 136.967  0.00  0.00    +0.000 C 
BRANCH  31  34
ATOM     34  C   UNL     1     113.066 126.351 138.920  0.00  0.00    +0.000 C 
BRANCH  34  35
ATOM     35  O   UNL     1     113.602 126.936 139.147  0.00  0.00    +0.000 OA
BRANCH  35  37
ATOM     36  O   UNL     1     114.106 126.512 140.416  0.00  0.00    +0.000 OA
ATOM     37  C   UNL     1     113.737 127.082 139.948  0.00  0.00    +0.000 C 
BRANCH  37  38
ATOM     38  C   UNL     1     113.502 127.800 140.281  0.00  0.00    +0.000 C 
ATOM     39  C   UNL     1     114.069 128.352 140.512  0.00  0.00    +0.000 C 
BRANCH  39  42
ATOM     40  O   UNL     1     114.468 131.158 140.880  0.00  0.00    +0.000 OA
ATOM     41  O   UNL     1     113.129 131.222 141.843  0.00  0.00    +0.000 OA
ATOM     42  C   UNL     1     113.834 129.070 140.845  0.00  0.00    +0.000 A 
ATOM     43  C   UNL     1     114.268 129.755 140.696  0.00  0.00    +0.000 A 
ATOM     44  C   UNL     1     113.165 129.102 141.327  0.00  0.00    +0.000 A 
ATOM     45  C   UNL     1     114.033 130.473 141.029  0.00  0.00    +0.000 A 
ATOM     46  C   UNL     1     112.930 129.819 141.659  0.00  0.00    +0.000 A 
ATOM     47  C   UNL     1     113.364 130.505 141.510  0.00  0.00    +0.000 A 
ENDBRANCH  39  42
ENDBRANCH  37  38
ENDBRANCH  35  37
ENDBRANCH  34  35
ENDBRANCH  31  34
ENDBRANCH   1  33
TORSDOF 9
ENDMDL
MODEL 5
REMARK VINA RESULT:      -9.6      1.910      3.197
REMARK  Name = 44259845
REMARK  9 active torsions:
REMARK  status: ('A' for Active; 'I' for Inactive)
REMARK    1  A    between atoms: O_3  and  C_21
REMARK    2  A    between atoms: O_3  and  C_23
REMARK    3  A    between atoms: O_6  and  C_22
REMARK    4  A    between atoms: O_6  and  C_27
REMARK    5  A    between atoms: O_13  and  C_41
REMARK    6  A    between atoms: C_19  and  C_22
REMARK    7  A    between atoms: C_27  and  C_32
REMARK    8  A    between atoms: C_31  and  C_34
REMARK    9  A    between atoms: C_35  and  C_38
REMARK                            x       y       z     vdW  Elec       q    Type
REMARK                         _______ _______ _______ _____ _____    ______ ____
ROOT
ATOM      1  O   UNL     1     111.722 127.861 135.480  0.00  0.00    +0.000 OA
ENDROOT
BRANCH   1   7
ATOM      2  O   UNL     1     112.161 129.026 138.112  0.00  0.00    +0.000 OA
ATOM      3  O   UNL     1     112.420 129.227 134.772  0.00  0.00    +0.000 OA
ATOM      4  O   UNL     1     112.982 130.481 135.756  0.00  0.00    +0.000 OA
ATOM      5  O   UNL     1     113.184 131.027 137.076  0.00  0.00    +0.000 OA
ATOM      6  O   UNL     1     113.054 130.923 138.717  0.00  0.00    +0.000 OA
ATOM      7  C   UNL     1     111.999 128.478 135.953  0.00  0.00    +0.000 A 
ATOM      8  C   UNL     1     112.354 129.173 135.592  0.00  0.00    +0.000 A 
ATOM      9  C   UNL     1     111.934 128.430 136.807  0.00  0.00    +0.000 A 
ATOM     10  C   UNL     1     112.226 129.077 137.291  0.00  0.00    +0.000 A 
ATOM     11  C   UNL     1     112.567 129.745 136.946  0.00  0.00    +0.000 A 
ATOM     12  C   UNL     1     112.640 129.810 136.092  0.00  0.00    +0.000 A 
ATOM     13  C   UNL     1     112.843 130.360 137.422  0.00  0.00    +0.000 A 
ATOM     14  C   UNL     1     112.437 129.641 138.587  0.00  0.00    +0.000 A 
ATOM     15  C   UNL     1     112.778 130.308 138.242  0.00  0.00    +0.000 A 
BRANCH  14  17
ATOM     16  O   UNL     1     113.481 128.775 141.103  0.00  0.00    +0.000 OA
ATOM     17  C   UNL     1     112.372 129.589 139.409  0.00  0.00    +0.000 A 
ATOM     18  C   UNL     1     112.959 129.208 139.845  0.00  0.00    +0.000 A 
ATOM     19  C   UNL     1     111.720 129.919 139.793  0.00  0.00    +0.000 A 
ATOM     20  C   UNL     1     112.894 129.156 140.666  0.00  0.00    +0.000 A 
ATOM     21  C   UNL     1     111.655 129.867 140.613  0.00  0.00    +0.000 A 
ATOM     22  C   UNL     1     112.242 129.485 141.050  0.00  0.00    +0.000 A 
BRANCH  22  23
ATOM     23  O   UNL     1     112.177 129.434 141.871  0.00  0.00    +0.000 OA
ATOM     24  C   UNL     1     111.513 129.740 142.252  0.00  0.00    +0.000 C 
ENDBRANCH  22  23
ENDBRANCH  14  17
ENDBRANCH   1   7
BRANCH   1  33
ATOM     25  O   UNL     1     110.333 128.167 135.625  0.00  0.00    +0.000 OA
ATOM     26  O   UNL     1     108.588 126.862 135.742  0.00  0.00    +0.000 OA
ATOM     27  O   UNL     1     109.797 125.751 135.583  0.00  0.00    +0.000 OA
ATOM     28  O   UNL     1     111.364 126.251 135.452  0.00  0.00    +0.000 OA
ATOM     29  C   UNL     1     109.371 127.111 135.677  0.00  0.00    +0.000 C 
ATOM     30  C   UNL     1     109.976 126.556 135.597  0.00  0.00    +0.000 C 
ATOM     31  C   UNL     1     109.549 127.917 135.691  0.00  0.00    +0.000 C 
ATOM     32  C   UNL     1     110.759 126.806 135.532  0.00  0.00    +0.000 C 
ATOM     33  C   UNL     1     110.938 127.611 135.546  0.00  0.00    +0.000 C 
BRANCH  31  34
ATOM     34  C   UNL     1     108.945 128.472 135.770  0.00  0.00    +0.000 C 
BRANCH  34  35
ATOM     35  O   UNL     1     109.089 129.266 135.595  0.00  0.00    +0.000 OA
BRANCH  35  37
ATOM     36  O   UNL     1     107.821 129.916 135.696  0.00  0.00    +0.000 OA
ATOM     37  C   UNL     1     108.612 129.854 135.922  0.00  0.00    +0.000 C 
BRANCH  37  38
ATOM     38  C   UNL     1     108.926 130.379 136.476  0.00  0.00    +0.000 C 
ATOM     39  C   UNL     1     109.045 131.170 136.272  0.00  0.00    +0.000 C 
BRANCH  39  42
ATOM     40  O   UNL     1     110.679 133.432 136.887  0.00  0.00    +0.000 OA
ATOM     41  O   UNL     1     110.301 133.271 138.485  0.00  0.00    +0.000 OA
ATOM     42  C   UNL     1     109.359 131.695 136.826  0.00  0.00    +0.000 A 
ATOM     43  C   UNL     1     109.862 132.301 136.579  0.00  0.00    +0.000 A 
ATOM     44  C   UNL     1     109.171 131.614 137.625  0.00  0.00    +0.000 A 
ATOM     45  C   UNL     1     110.176 132.827 137.133  0.00  0.00    +0.000 A 
ATOM     46  C   UNL     1     109.484 132.139 138.177  0.00  0.00    +0.000 A 
ATOM     47  C   UNL     1     109.988 132.746 137.932  0.00  0.00    +0.000 A 
ENDBRANCH  39  42
ENDBRANCH  37  38
ENDBRANCH  35  37
ENDBRANCH  34  35
ENDBRANCH  31  34
ENDBRANCH   1  33
TORSDOF 9
ENDMDL
MODEL 6
REMARK VINA RESULT:      -9.6      7.194      9.577
REMARK  Name = 44259845
REMARK  9 active torsions:
REMARK  status: ('A' for Active; 'I' for Inactive)
REMARK    1  A    between atoms: O_3  and  C_21
REMARK    2  A    between atoms: O_3  and  C_23
REMARK    3  A    between atoms: O_6  and  C_22
REMARK    4  A    between atoms: O_6  and  C_27
REMARK    5  A    between atoms: O_13  and  C_41
REMARK    6  A    between atoms: C_19  and  C_22
REMARK    7  A    between atoms: C_27  and  C_32
REMARK    8  A    between atoms: C_31  and  C_34
REMARK    9  A    between atoms: C_35  and  C_38
REMARK                            x       y       z     vdW  Elec       q    Type
REMARK                         _______ _______ _______ _____ _____    ______ ____
ROOT
ATOM      1  O   UNL     1     106.377 125.456 143.028  0.00  0.00    +0.000 OA
ENDROOT
BRANCH   1   7
ATOM      2  O   UNL     1     105.121 128.073 142.803  0.00  0.00    +0.000 OA
ATOM      3  O   UNL     1     107.830 126.118 142.478  0.00  0.00    +0.000 OA
ATOM      4  O   UNL     1     107.905 127.763 142.096  0.00  0.00    +0.000 OA
ATOM      5  O   UNL     1     107.250 129.045 141.997  0.00  0.00    +0.000 OA
ATOM      6  O   UNL     1     105.916 130.001 142.159  0.00  0.00    +0.000 OA
ATOM      7  C   UNL     1     106.422 126.258 142.840  0.00  0.00    +0.000 A 
ATOM      8  C   UNL     1     107.162 126.594 142.560  0.00  0.00    +0.000 A 
ATOM      9  C   UNL     1     105.731 126.761 142.922  0.00  0.00    +0.000 A 
ATOM     10  C   UNL     1     105.789 127.595 142.723  0.00  0.00    +0.000 A 
ATOM     11  C   UNL     1     106.498 127.919 142.454  0.00  0.00    +0.000 A 
ATOM     12  C   UNL     1     107.200 127.430 142.366  0.00  0.00    +0.000 A 
ATOM     13  C   UNL     1     106.540 128.721 142.266  0.00  0.00    +0.000 A 
ATOM     14  C   UNL     1     105.164 128.876 142.615  0.00  0.00    +0.000 A 
ATOM     15  C   UNL     1     105.873 129.199 142.347  0.00  0.00    +0.000 A 
BRANCH  14  17
ATOM     16  O   UNL     1     102.744 129.951 141.539  0.00  0.00    +0.000 OA
ATOM     17  C   UNL     1     104.496 129.354 142.696  0.00  0.00    +0.000 A 
ATOM     18  C   UNL     1     103.954 129.414 142.078  0.00  0.00    +0.000 A 
ATOM     19  C   UNL     1     104.371 129.773 143.395  0.00  0.00    +0.000 A 
ATOM     20  C   UNL     1     103.287 129.892 142.158  0.00  0.00    +0.000 A 
ATOM     21  C   UNL     1     103.704 130.252 143.477  0.00  0.00    +0.000 A 
ATOM     22  C   UNL     1     103.162 130.311 142.857  0.00  0.00    +0.000 A 
BRANCH  22  23
ATOM     23  O   UNL     1     102.494 130.789 142.938  0.00  0.00    +0.000 OA
ATOM     24  C   UNL     1     102.489 131.399 143.494  0.00  0.00    +0.000 C 
ENDBRANCH  22  23
ENDBRANCH  14  17
ENDBRANCH   1   7
BRANCH   1  33
ATOM     25  O   UNL     1     106.414 125.609 144.449  0.00  0.00    +0.000 OA
ATOM     26  O   UNL     1     105.376 124.522 146.031  0.00  0.00    +0.000 OA
ATOM     27  O   UNL     1     104.800 123.749 144.692  0.00  0.00    +0.000 OA
ATOM     28  O   UNL     1     105.301 124.216 143.191  0.00  0.00    +0.000 OA
ATOM     29  C   UNL     1     105.626 124.755 145.281  0.00  0.00    +0.000 C 
ATOM     30  C   UNL     1     105.338 124.369 144.611  0.00  0.00    +0.000 C 
ATOM     31  C   UNL     1     106.164 125.375 145.200  0.00  0.00    +0.000 C 
ATOM     32  C   UNL     1     105.588 124.602 143.861  0.00  0.00    +0.000 C 
ATOM     33  C   UNL     1     106.126 125.222 143.780  0.00  0.00    +0.000 C 
BRANCH  31  34
ATOM     34  C   UNL     1     106.452 125.762 145.869  0.00  0.00    +0.000 C 
BRANCH  34  35
ATOM     35  O   UNL     1     107.064 126.312 145.796  0.00  0.00    +0.000 OA
BRANCH  35  37
ATOM     36  O   UNL     1     107.435 126.671 147.128  0.00  0.00    +0.000 OA
ATOM     37  C   UNL     1     107.172 126.887 146.377  0.00  0.00    +0.000 C 
BRANCH  37  38
ATOM     38  C   UNL     1     107.018 127.680 146.206  0.00  0.00    +0.000 C 
ATOM     39  C   UNL     1     107.643 128.209 146.104  0.00  0.00    +0.000 C 
BRANCH  39  42
ATOM     40  O   UNL     1     108.404 130.666 144.859  0.00  0.00    +0.000 OA
ATOM     41  O   UNL     1     107.025 131.377 145.420  0.00  0.00    +0.000 OA
ATOM     42  C   UNL     1     107.488 129.002 145.933  0.00  0.00    +0.000 A 
ATOM     43  C   UNL     1     108.023 129.437 145.481  0.00  0.00    +0.000 A 
ATOM     44  C   UNL     1     106.798 129.357 146.213  0.00  0.00    +0.000 A 
ATOM     45  C   UNL     1     107.869 130.230 145.310  0.00  0.00    +0.000 A 
ATOM     46  C   UNL     1     106.644 130.149 146.042  0.00  0.00    +0.000 A 
ATOM     47  C   UNL     1     107.179 130.586 145.591  0.00  0.00    +0.000 A 
ENDBRANCH  39  42
ENDBRANCH  37  38
ENDBRANCH  35  37
ENDBRANCH  34  35
ENDBRANCH  31  34
ENDBRANCH   1  33
TORSDOF 9
ENDMDL
MODEL 7
REMARK VINA RESULT:      -9.5      1.500      4.008
REMARK  Name = 44259845
REMARK  9 active torsions:
REMARK  status: ('A' for Active; 'I' for Inactive)
REMARK    1  A    between atoms: O_3  and  C_21
REMARK    2  A    between atoms: O_3  and  C_23
REMARK    3  A    between atoms: O_6  and  C_22
REMARK    4  A    between atoms: O_6  and  C_27
REMARK    5  A    between atoms: O_13  and  C_41
REMARK    6  A    between atoms: C_19  and  C_22
REMARK    7  A    between atoms: C_27  and  C_32
REMARK    8  A    between atoms: C_31  and  C_34
REMARK    9  A    between atoms: C_35  and  C_38
REMARK                            x       y       z     vdW  Elec       q    Type
REMARK                         _______ _______ _______ _____ _____    ______ ____
ROOT
ATOM      1  O   UNL     1     110.581 129.371 135.369  0.00  0.00    +0.000 OA
ENDROOT
BRANCH   1   7
ATOM      2  O   UNL     1     111.901 129.447 137.963  0.00  0.00    +0.000 OA
ATOM      3  O   UNL     1     112.091 129.389 134.613  0.00  0.00    +0.000 OA
ATOM      4  O   UNL     1     113.494 129.436 135.553  0.00  0.00    +0.000 OA
ATOM      5  O   UNL     1     114.114 129.474 136.856  0.00  0.00    +0.000 OA
ATOM      6  O   UNL     1     114.015 129.502 138.502  0.00  0.00    +0.000 OA
ATOM      7  C   UNL     1     111.271 129.394 135.821  0.00  0.00    +0.000 A 
ATOM      8  C   UNL     1     112.039 129.403 135.435  0.00  0.00    +0.000 A 
ATOM      9  C   UNL     1     111.226 129.409 136.678  0.00  0.00    +0.000 A 
ATOM     10  C   UNL     1     111.950 129.433 137.140  0.00  0.00    +0.000 A 
ATOM     11  C   UNL     1     112.688 129.442 136.771  0.00  0.00    +0.000 A 
ATOM     12  C   UNL     1     112.752 129.427 135.914  0.00  0.00    +0.000 A 
ATOM     13  C   UNL     1     113.376 129.465 137.225  0.00  0.00    +0.000 A 
ATOM     14  C   UNL     1     112.589 129.470 138.417  0.00  0.00    +0.000 A 
ATOM     15  C   UNL     1     113.326 129.479 138.048  0.00  0.00    +0.000 A 
BRANCH  14  17
ATOM     16  O   UNL     1     112.261 130.929 140.853  0.00  0.00    +0.000 OA
ATOM     17  C   UNL     1     112.540 129.484 139.241  0.00  0.00    +0.000 A 
ATOM     18  C   UNL     1     112.425 130.199 139.635  0.00  0.00    +0.000 A 
ATOM     19  C   UNL     1     112.605 128.782 139.670  0.00  0.00    +0.000 A 
ATOM     20  C   UNL     1     112.376 130.213 140.458  0.00  0.00    +0.000 A 
ATOM     21  C   UNL     1     112.555 128.796 140.494  0.00  0.00    +0.000 A 
ATOM     22  C   UNL     1     112.441 129.512 140.888  0.00  0.00    +0.000 A 
BRANCH  22  23
ATOM     23  O   UNL     1     112.391 129.526 141.711  0.00  0.00    +0.000 OA
ATOM     24  C   UNL     1     112.303 128.821 142.131  0.00  0.00    +0.000 C 
ENDBRANCH  22  23
ENDBRANCH  14  17
ENDBRANCH   1   7
BRANCH   1  33
ATOM     25  O   UNL     1     110.248 127.997 135.575  0.00  0.00    +0.000 OA
ATOM     26  O   UNL     1     108.323 127.029 135.924  0.00  0.00    +0.000 OA
ATOM     27  O   UNL     1     107.859 128.607 135.788  0.00  0.00    +0.000 OA
ATOM     28  O   UNL     1     108.988 129.778 135.511  0.00  0.00    +0.000 OA
ATOM     29  C   UNL     1     108.887 127.614 135.785  0.00  0.00    +0.000 C 
ATOM     30  C   UNL     1     108.655 128.403 135.717  0.00  0.00    +0.000 C 
ATOM     31  C   UNL     1     109.683 127.411 135.714  0.00  0.00    +0.000 C 
ATOM     32  C   UNL     1     109.219 128.989 135.579  0.00  0.00    +0.000 C 
ATOM     33  C   UNL     1     110.016 128.785 135.508  0.00  0.00    +0.000 C 
BRANCH  31  34
ATOM     34  C   UNL     1     109.916 126.622 135.782  0.00  0.00    +0.000 C 
BRANCH  34  35
ATOM     35  O   UNL     1     110.709 126.416 135.678  0.00  0.00    +0.000 OA
BRANCH  35  37
ATOM     36  O   UNL     1     110.610 124.992 135.622  0.00  0.00    +0.000 OA
ATOM     37  C   UNL     1     110.975 125.672 135.914  0.00  0.00    +0.000 C 
BRANCH  37  38
ATOM     38  C   UNL     1     111.606 125.608 136.442  0.00  0.00    +0.000 C 
ATOM     39  C   UNL     1     112.381 125.671 136.166  0.00  0.00    +0.000 C 
BRANCH  39  42
ATOM     40  O   UNL     1     115.098 124.965 136.701  0.00  0.00    +0.000 OA
ATOM     41  O   UNL     1     114.906 125.417 138.276  0.00  0.00    +0.000 OA
ATOM     42  C   UNL     1     113.013 125.608 136.694  0.00  0.00    +0.000 A 
ATOM     43  C   UNL     1     113.740 125.318 136.434  0.00  0.00    +0.000 A 
ATOM     44  C   UNL     1     112.917 125.834 137.482  0.00  0.00    +0.000 A 
ATOM     45  C   UNL     1     114.371 125.254 136.962  0.00  0.00    +0.000 A 
ATOM     46  C   UNL     1     113.547 125.770 138.009  0.00  0.00    +0.000 A 
ATOM     47  C   UNL     1     114.275 125.480 137.749  0.00  0.00    +0.000 A 
ENDBRANCH  39  42
ENDBRANCH  37  38
ENDBRANCH  35  37
ENDBRANCH  34  35
ENDBRANCH  31  34
ENDBRANCH   1  33
TORSDOF 9
ENDMDL
MODEL 8
REMARK VINA RESULT:      -9.4      1.997      5.752
REMARK  Name = 44259845
REMARK  9 active torsions:
REMARK  status: ('A' for Active; 'I' for Inactive)
REMARK    1  A    between atoms: O_3  and  C_21
REMARK    2  A    between atoms: O_3  and  C_23
REMARK    3  A    between atoms: O_6  and  C_22
REMARK    4  A    between atoms: O_6  and  C_27
REMARK    5  A    between atoms: O_13  and  C_41
REMARK    6  A    between atoms: C_19  and  C_22
REMARK    7  A    between atoms: C_27  and  C_32
REMARK    8  A    between atoms: C_31  and  C_34
REMARK    9  A    between atoms: C_35  and  C_38
REMARK                            x       y       z     vdW  Elec       q    Type
REMARK                         _______ _______ _______ _____ _____    ______ ____
ROOT
ATOM      1  O   UNL     1     111.412 130.572 137.482  0.00  0.00    +0.000 OA
ENDROOT
BRANCH   1   7
ATOM      2  O   UNL     1     111.093 127.684 137.290  0.00  0.00    +0.000 OA
ATOM      3  O   UNL     1     110.071 130.640 138.508  0.00  0.00    +0.000 OA
ATOM      4  O   UNL     1     109.256 129.215 138.911  0.00  0.00    +0.000 OA
ATOM      5  O   UNL     1     109.129 127.783 138.792  0.00  0.00    +0.000 OA
ATOM      6  O   UNL     1     109.636 126.332 138.191  0.00  0.00    +0.000 OA
ATOM      7  C   UNL     1     111.008 129.881 137.684  0.00  0.00    +0.000 A 
ATOM      8  C   UNL     1     110.326 129.916 138.206  0.00  0.00    +0.000 A 
ATOM      9  C   UNL     1     111.267 129.123 137.375  0.00  0.00    +0.000 A 
ATOM     10  C   UNL     1     110.840 128.410 137.591  0.00  0.00    +0.000 A 
ATOM     11  C   UNL     1     110.185 128.442 138.092  0.00  0.00    +0.000 A 
ATOM     12  C   UNL     1     109.912 129.192 138.411  0.00  0.00    +0.000 A 
ATOM     13  C   UNL     1     109.784 127.749 138.291  0.00  0.00    +0.000 A 
ATOM     14  C   UNL     1     110.692 126.992 137.491  0.00  0.00    +0.000 A 
ATOM     15  C   UNL     1     110.038 127.025 137.991  0.00  0.00    +0.000 A 
BRANCH  14  17
ATOM     16  O   UNL     1     110.701 125.047 135.397  0.00  0.00    +0.000 OA
ATOM     17  C   UNL     1     110.945 126.266 137.190  0.00  0.00    +0.000 A 
ATOM     18  C   UNL     1     110.697 126.019 136.444  0.00  0.00    +0.000 A 
ATOM     19  C   UNL     1     111.448 125.788 137.636  0.00  0.00    +0.000 A 
ATOM     20  C   UNL     1     110.950 125.294 136.143  0.00  0.00    +0.000 A 
ATOM     21  C   UNL     1     111.702 125.062 137.336  0.00  0.00    +0.000 A 
ATOM     22  C   UNL     1     111.452 124.815 136.589  0.00  0.00    +0.000 A 
BRANCH  22  23
ATOM     23  O   UNL     1     111.706 124.090 136.289  0.00  0.00    +0.000 OA
ATOM     24  C   UNL     1     112.179 123.595 136.750  0.00  0.00    +0.000 C 
ENDBRANCH  22  23
ENDBRANCH  14  17
ENDBRANCH   1   7
BRANCH   1  33
ATOM     25  O   UNL     1     112.563 130.366 138.303  0.00  0.00    +0.000 OA
ATOM     26  O   UNL     1     114.676 130.765 137.927  0.00  0.00    +0.000 OA
ATOM     27  O   UNL     1     114.005 131.273 136.507  0.00  0.00    +0.000 OA
ATOM     28  O   UNL     1     112.373 131.176 136.285  0.00  0.00    +0.000 OA
ATOM     29  C   UNL     1     113.861 130.717 137.815  0.00  0.00    +0.000 C 
ATOM     30  C   UNL     1     113.524 130.971 137.106  0.00  0.00    +0.000 C 
ATOM     31  C   UNL     1     113.380 130.415 138.414  0.00  0.00    +0.000 C 
ATOM     32  C   UNL     1     112.709 130.923 136.995  0.00  0.00    +0.000 C 
ATOM     33  C   UNL     1     112.228 130.620 137.593  0.00  0.00    +0.000 C 
BRANCH  31  34
ATOM     34  C   UNL     1     113.715 130.161 139.124  0.00  0.00    +0.000 C 
BRANCH  34  35
ATOM     35  O   UNL     1     113.257 130.139 139.811  0.00  0.00    +0.000 OA
BRANCH  35  37
ATOM     36  O   UNL     1     114.047 129.834 140.962  0.00  0.00    +0.000 OA
ATOM     37  C   UNL     1     113.459 129.625 140.423  0.00  0.00    +0.000 C 
BRANCH  37  38
ATOM     38  C   UNL     1     113.070 128.900 140.497  0.00  0.00    +0.000 C 
ATOM     39  C   UNL     1     112.551 128.773 141.125  0.00  0.00    +0.000 C 
BRANCH  39  42
ATOM     40  O   UNL     1     110.288 127.254 141.986  0.00  0.00    +0.000 OA
ATOM     41  O   UNL     1     110.998 125.876 141.420  0.00  0.00    +0.000 OA
ATOM     42  C   UNL     1     112.163 128.048 141.199  0.00  0.00    +0.000 A 
ATOM     43  C   UNL     1     111.420 128.013 141.556  0.00  0.00    +0.000 A 
ATOM     44  C   UNL     1     112.518 127.359 140.916  0.00  0.00    +0.000 A 
ATOM     45  C   UNL     1     111.031 127.288 141.629  0.00  0.00    +0.000 A 
ATOM     46  C   UNL     1     112.130 126.635 140.990  0.00  0.00    +0.000 A 
ATOM     47  C   UNL     1     111.386 126.599 141.346  0.00  0.00    +0.000 A 
ENDBRANCH  39  42
ENDBRANCH  37  38
ENDBRANCH  35  37
ENDBRANCH  34  35
ENDBRANCH  31  34
ENDBRANCH   1  33
TORSDOF 9
ENDMDL
MODEL 9
REMARK VINA RESULT:      -9.4      1.511      2.990
REMARK  Name = 44259845
REMARK  9 active torsions:
REMARK  status: ('A' for Active; 'I' for Inactive)
REMARK    1  A    between atoms: O_3  and  C_21
REMARK    2  A    between atoms: O_3  and  C_23
REMARK    3  A    between atoms: O_6  and  C_22
REMARK    4  A    between atoms: O_6  and  C_27
REMARK    5  A    between atoms: O_13  and  C_41
REMARK    6  A    between atoms: C_19  and  C_22
REMARK    7  A    between atoms: C_27  and  C_32
REMARK    8  A    between atoms: C_31  and  C_34
REMARK    9  A    between atoms: C_35  and  C_38
REMARK                            x       y       z     vdW  Elec       q    Type
REMARK                         _______ _______ _______ _____ _____    ______ ____
ROOT
ATOM      1  O   UNL     1     110.853 125.734 138.667  0.00  0.00    +0.000 OA
ENDROOT
BRANCH   1   7
ATOM      2  O   UNL     1     111.831 128.447 138.266  0.00  0.00    +0.000 OA
ATOM      3  O   UNL     1     109.446 126.357 139.365  0.00  0.00    +0.000 OA
ATOM      4  O   UNL     1     109.254 128.030 139.503  0.00  0.00    +0.000 OA
ATOM      5  O   UNL     1     109.771 129.360 139.288  0.00  0.00    +0.000 OA
ATOM      6  O   UNL     1     110.946 130.383 138.746  0.00  0.00    +0.000 OA
ATOM      7  C   UNL     1     110.751 126.550 138.738  0.00  0.00    +0.000 A 
ATOM      8  C   UNL     1     110.035 126.866 139.093  0.00  0.00    +0.000 A 
ATOM      9  C   UNL     1     111.359 127.088 138.458  0.00  0.00    +0.000 A 
ATOM     10  C   UNL     1     111.244 127.935 138.537  0.00  0.00    +0.000 A 
ATOM     11  C   UNL     1     110.556 128.240 138.878  0.00  0.00    +0.000 A 
ATOM     12  C   UNL     1     109.937 127.717 139.163  0.00  0.00    +0.000 A 
ATOM     13  C   UNL     1     110.458 129.056 138.947  0.00  0.00    +0.000 A 
ATOM     14  C   UNL     1     111.732 129.263 138.336  0.00  0.00    +0.000 A 
ATOM     15  C   UNL     1     111.045 129.567 138.676  0.00  0.00    +0.000 A 
BRANCH  14  17
ATOM     16  O   UNL     1     114.068 130.833 138.831  0.00  0.00    +0.000 OA
ATOM     17  C   UNL     1     112.320 129.775 138.065  0.00  0.00    +0.000 A 
ATOM     18  C   UNL     1     112.900 130.048 138.583  0.00  0.00    +0.000 A 
ATOM     19  C   UNL     1     112.327 130.014 137.275  0.00  0.00    +0.000 A 
ATOM     20  C   UNL     1     113.488 130.559 138.313  0.00  0.00    +0.000 A 
ATOM     21  C   UNL     1     112.915 130.526 137.004  0.00  0.00    +0.000 A 
ATOM     22  C   UNL     1     113.495 130.799 137.523  0.00  0.00    +0.000 A 
BRANCH  22  23
ATOM     23  O   UNL     1     114.083 131.310 137.252  0.00  0.00    +0.000 OA
ATOM     24  C   UNL     1     114.131 131.494 136.449  0.00  0.00    +0.000 C 
ENDBRANCH  22  23
ENDBRANCH  14  17
ENDBRANCH   1   7
BRANCH   1  33
ATOM     25  O   UNL     1     110.621 125.662 137.259  0.00  0.00    +0.000 OA
ATOM     26  O   UNL     1     111.533 124.407 135.723  0.00  0.00    +0.000 OA
ATOM     27  O   UNL     1     112.337 123.889 137.067  0.00  0.00    +0.000 OA
ATOM     28  O   UNL     1     111.998 124.552 138.539  0.00  0.00    +0.000 OA
ATOM     29  C   UNL     1     111.363 124.739 136.458  0.00  0.00    +0.000 C 
ATOM     30  C   UNL     1     111.765 124.480 137.131  0.00  0.00    +0.000 C 
ATOM     31  C   UNL     1     110.791 125.330 136.522  0.00  0.00    +0.000 C 
ATOM     32  C   UNL     1     111.596 124.811 137.866  0.00  0.00    +0.000 C 
ATOM     33  C   UNL     1     111.024 125.402 137.930  0.00  0.00    +0.000 C 
BRANCH  31  34
ATOM     34  C   UNL     1     110.389 125.589 135.851  0.00  0.00    +0.000 C 
BRANCH  34  35
ATOM     35  O   UNL     1     109.783 126.146 135.923  0.00  0.00    +0.000 OA
BRANCH  35  37
ATOM     36  O   UNL     1     109.215 126.189 134.612  0.00  0.00    +0.000 OA
ATOM     37  C   UNL     1     109.540 126.578 135.263  0.00  0.00    +0.000 C 
BRANCH  37  38
ATOM     38  C   UNL     1     109.623 127.399 135.254  0.00  0.00    +0.000 C 
ATOM     39  C   UNL     1     108.989 127.879 135.475  0.00  0.00    +0.000 C 
BRANCH  39  42
ATOM     40  O   UNL     1     108.179 130.457 136.404  0.00  0.00    +0.000 OA
ATOM     41  O   UNL     1     109.318 131.162 135.441  0.00  0.00    +0.000 OA
ATOM     42  C   UNL     1     109.071 128.700 135.466  0.00  0.00    +0.000 A 
ATOM     43  C   UNL     1     108.584 129.168 135.940  0.00  0.00    +0.000 A 
ATOM     44  C   UNL     1     109.641 129.053 134.985  0.00  0.00    +0.000 A 
ATOM     45  C   UNL     1     108.666 129.990 135.931  0.00  0.00    +0.000 A 
ATOM     46  C   UNL     1     109.723 129.873 134.976  0.00  0.00    +0.000 A 
ATOM     47  C   UNL     1     109.236 130.342 135.449  0.00  0.00    +0.000 A 
ENDBRANCH  39  42
ENDBRANCH  37  38
ENDBRANCH  35  37
ENDBRANCH  34  35
ENDBRANCH  31  34
ENDBRANCH   1  33
TORSDOF 9
ENDMDL
MODEL 10
REMARK VINA RESULT:      -9.4      1.555      3.093
REMARK  Name = 44259845
REMARK  9 active torsions:
REMARK  status: ('A' for Active; 'I' for Inactive)
REMARK    1  A    between atoms: O_3  and  C_21
REMARK    2  A    between atoms: O_3  and  C_23
REMARK    3  A    between atoms: O_6  and  C_22
REMARK    4  A    between atoms: O_6  and  C_27
REMARK    5  A    between atoms: O_13  and  C_41
REMARK    6  A    between atoms: C_19  and  C_22
REMARK    7  A    between atoms: C_27  and  C_32
REMARK    8  A    between atoms: C_31  and  C_34
REMARK    9  A    between atoms: C_35  and  C_38
REMARK                            x       y       z     vdW  Elec       q    Type
REMARK                         _______ _______ _______ _____ _____    ______ ____
ROOT
ATOM      1  O   UNL     1     111.064 125.027 136.739  0.00  0.00    +0.000 OA
ENDROOT
BRANCH   1   7
ATOM      2  O   UNL     1     110.616 126.702 139.077  0.00  0.00    +0.000 OA
ATOM      3  O   UNL     1     110.019 126.011 135.848  0.00  0.00    +0.000 OA
ATOM      4  O   UNL     1     109.282 127.336 136.594  0.00  0.00    +0.000 OA
ATOM      5  O   UNL     1     109.084 128.144 137.773  0.00  0.00    +0.000 OA
ATOM      6  O   UNL     1     109.381 128.479 139.361  0.00  0.00    +0.000 OA
ATOM      7  C   UNL     1     110.700 125.676 137.095  0.00  0.00    +0.000 A 
ATOM      8  C   UNL     1     110.169 126.176 136.641  0.00  0.00    +0.000 A 
ATOM      9  C   UNL     1     110.851 125.856 137.921  0.00  0.00    +0.000 A 
ATOM     10  C   UNL     1     110.467 126.534 138.283  0.00  0.00    +0.000 A 
ATOM     11  C   UNL     1     109.957 127.015 137.849  0.00  0.00    +0.000 A 
ATOM     12  C   UNL     1     109.795 126.850 137.021  0.00  0.00    +0.000 A 
ATOM     13  C   UNL     1     109.595 127.663 138.209  0.00  0.00    +0.000 A 
ATOM     14  C   UNL     1     110.253 127.351 139.436  0.00  0.00    +0.000 A 
ATOM     15  C   UNL     1     109.743 127.831 139.002  0.00  0.00    +0.000 A 
BRANCH  14  17
ATOM     16  O   UNL     1     109.609 127.012 142.200  0.00  0.00    +0.000 OA
ATOM     17  C   UNL     1     110.402 127.518 140.231  0.00  0.00    +0.000 A 
ATOM     18  C   UNL     1     109.932 127.182 140.819  0.00  0.00    +0.000 A 
ATOM     19  C   UNL     1     111.021 128.023 140.437  0.00  0.00    +0.000 A 
ATOM     20  C   UNL     1     110.080 127.349 141.612  0.00  0.00    +0.000 A 
ATOM     21  C   UNL     1     111.170 128.191 141.231  0.00  0.00    +0.000 A 
ATOM     22  C   UNL     1     110.699 127.854 141.819  0.00  0.00    +0.000 A 
BRANCH  22  23
ATOM     23  O   UNL     1     110.847 128.022 142.613  0.00  0.00    +0.000 OA
ATOM     24  C   UNL     1     111.453 128.544 142.818  0.00  0.00    +0.000 C 
ENDBRANCH  22  23
ENDBRANCH  14  17
ENDBRANCH   1   7
BRANCH   1  33
ATOM     25  O   UNL     1     112.352 125.632 136.603  0.00  0.00    +0.000 OA
ATOM     26  O   UNL     1     114.354 124.774 136.738  0.00  0.00    +0.000 OA
ATOM     27  O   UNL     1     113.424 123.438 137.009  0.00  0.00    +0.000 OA
ATOM     28  O   UNL     1     111.779 123.565 137.009  0.00  0.00    +0.000 OA
ATOM     29  C   UNL     1     113.533 124.837 136.738  0.00  0.00    +0.000 C 
ATOM     30  C   UNL     1     113.067 124.169 136.874  0.00  0.00    +0.000 C 
ATOM     31  C   UNL     1     113.175 125.568 136.603  0.00  0.00    +0.000 C 
ATOM     32  C   UNL     1     112.245 124.232 136.874  0.00  0.00    +0.000 C 
ATOM     33  C   UNL     1     111.887 124.963 136.738  0.00  0.00    +0.000 C 
BRANCH  31  34
ATOM     34  C   UNL     1     113.640 126.236 136.468  0.00  0.00    +0.000 C 
BRANCH  34  35
ATOM     35  O   UNL     1     113.289 126.934 136.201  0.00  0.00    +0.000 OA
BRANCH  35  37
ATOM     36  O   UNL     1     114.368 127.813 135.874  0.00  0.00    +0.000 OA
ATOM     37  C   UNL     1     113.679 127.654 136.299  0.00  0.00    +0.000 C 
BRANCH  37  38
ATOM     38  C   UNL     1     113.380 128.217 136.824  0.00  0.00    +0.000 C 
ATOM     39  C   UNL     1     113.042 128.912 136.535  0.00  0.00    +0.000 C 
BRANCH  39  42
ATOM     40  O   UNL     1     111.072 130.870 137.204  0.00  0.00    +0.000 OA
ATOM     41  O   UNL     1     111.844 131.159 138.634  0.00  0.00    +0.000 OA
ATOM     42  C   UNL     1     112.742 129.474 137.060  0.00  0.00    +0.000 A 
ATOM     43  C   UNL     1     112.057 129.891 136.870  0.00  0.00    +0.000 A 
ATOM     44  C   UNL     1     113.129 129.618 137.775  0.00  0.00    +0.000 A 
ATOM     45  C   UNL     1     111.757 130.453 137.395  0.00  0.00    +0.000 A 
ATOM     46  C   UNL     1     112.829 130.180 138.299  0.00  0.00    +0.000 A 
ATOM     47  C   UNL     1     112.143 130.598 138.110  0.00  0.00    +0.000 A 
ENDBRANCH  39  42
ENDBRANCH  37  38
ENDBRANCH  35  37
ENDBRANCH  34  35
ENDBRANCH  31  34
ENDBRANCH   1  33
TORSDOF 9
ENDMDL
