MODEL 1
REMARK VINA RESULT:     -10.6      0.000      0.000
REMARK  Name = 44257902
REMARK  13 active torsions:
REMARK  status: ('A' for Active; 'I' for Inactive)
REMARK    1  A    between atoms: O_1  and  C_25
REMARK    2  A    between atoms: O_1  and  C_27
REMARK    3  A    between atoms: O_4  and  C_29
REMARK    4  A    between atoms: O_4  and  C_35
REMARK    5  A    between atoms: O_5  and  C_26
REMARK    6  A    between atoms: O_5  and  C_37
REMARK    7  A    between atoms: O_13  and  C_39
REMARK    8  A    between atoms: O_13  and  C_49
REMARK    9  A    between atoms: O_24  and  C_63
REMARK   10  A    between atoms: C_33  and  C_45
REMARK   11  A    between atoms: C_34  and  C_46
REMARK   12  A    between atoms: C_41  and  C_47
REMARK   13  A    between atoms: C_56  and  C_58
REMARK                            x       y       z     vdW  Elec       q    Type
REMARK                         _______ _______ _______ _____ _____    ______ ____
ROOT
ATOM      1  O   UNL     1     110.585 129.662 138.325  0.00  0.00    +0.000 OA
ENDROOT
BRANCH   1   7
ATOM      2  O   UNL     1     110.343 131.070 138.331  0.00  0.00    +0.000 OA
ATOM      3  O   UNL     1     110.227 131.039 140.803  0.00  0.00    +0.000 OA
ATOM      4  O   UNL     1     110.024 132.458 139.986  0.00  0.00    +0.000 OA
ATOM      5  C   UNL     1     110.406 130.351 139.564  0.00  0.00    +0.000 C 
ATOM      6  C   UNL     1     110.266 131.050 139.979  0.00  0.00    +0.000 C 
ATOM      7  C   UNL     1     110.445 130.362 138.740  0.00  0.00    +0.000 C 
ATOM      8  C   UNL     1     110.164 131.759 139.570  0.00  0.00    +0.000 C 
ATOM      9  C   UNL     1     110.203 131.770 138.746  0.00  0.00    +0.000 C 
BRANCH   9  11
ATOM     10  O   UNL     1     110.715 132.781 137.877  0.00  0.00    +0.000 OA
ATOM     11  C   UNL     1     110.102 132.479 138.338  0.00  0.00    +0.000 C 
ENDBRANCH   9  11
BRANCH   5  12
ATOM     12  O   UNL     1     110.508 129.641 139.973  0.00  0.00    +0.000 OA
BRANCH  12  17
ATOM     13  O   UNL     1     111.917 129.846 140.091  0.00  0.00    +0.000 OA
ATOM     14  O   UNL     1     111.983 128.276 142.004  0.00  0.00    +0.000 OA
ATOM     15  O   UNL     1     113.370 129.003 141.485  0.00  0.00    +0.000 OA
ATOM     16  C   UNL     1     111.245 128.959 140.988  0.00  0.00    +0.000 C 
ATOM     17  C   UNL     1     111.223 129.482 140.351  0.00  0.00    +0.000 C 
ATOM     18  C   UNL     1     111.961 128.799 141.366  0.00  0.00    +0.000 C 
ATOM     19  C   UNL     1     112.655 129.162 141.107  0.00  0.00    +0.000 C 
ATOM     20  C   UNL     1     112.632 129.686 140.469  0.00  0.00    +0.000 C 
BRANCH  20  22
ATOM     21  O   UNL     1     113.454 130.851 140.363  0.00  0.00    +0.000 OA
ATOM     22  C   UNL     1     113.326 130.049 140.210  0.00  0.00    +0.000 C 
ENDBRANCH  20  22
BRANCH  16  23
ATOM     23  O   UNL     1     110.552 128.595 141.248  0.00  0.00    +0.000 OA
BRANCH  23  28
ATOM     24  O   UNL     1     110.784 127.470 140.399  0.00  0.00    +0.000 OA
ATOM     25  O   UNL     1     109.447 127.720 142.106  0.00  0.00    +0.000 OA
ATOM     26  O   UNL     1     109.127 126.156 141.686  0.00  0.00    +0.000 OA
ATOM     27  O   UNL     1     109.911 125.469 140.407  0.00  0.00    +0.000 OA
ATOM     28  C   UNL     1     110.391 127.814 141.038  0.00  0.00    +0.000 C 
ATOM     29  C   UNL     1     109.839 127.376 141.467  0.00  0.00    +0.000 C 
ATOM     30  C   UNL     1     109.679 126.595 141.257  0.00  0.00    +0.000 C 
ATOM     31  C   UNL     1     110.071 126.251 140.618  0.00  0.00    +0.000 C 
ATOM     32  C   UNL     1     110.623 126.688 140.188  0.00  0.00    +0.000 C 
ATOM     33  C   UNL     1     111.016 126.344 139.549  0.00  0.00    +0.000 C 
ENDBRANCH  23  28
ENDBRANCH  16  23
ENDBRANCH  12  17
ENDBRANCH   5  12
ENDBRANCH   1   7
BRANCH   1  37
ATOM     34  O   UNL     1     110.646 129.615 136.143  0.00  0.00    +0.000 OA
ATOM     35  O   UNL     1     109.005 129.341 137.976  0.00  0.00    +0.000 OA
ATOM     36  O   UNL     1     108.518 129.202 136.406  0.00  0.00    +0.000 OA
ATOM     37  C   UNL     1     110.342 129.593 137.540  0.00  0.00    +0.000 C 
ATOM     38  C   UNL     1     109.552 129.432 137.365  0.00  0.00    +0.000 C 
ATOM     39  C   UNL     1     109.309 129.363 136.579  0.00  0.00    +0.000 C 
ATOM     40  C   UNL     1     110.889 129.684 136.928  0.00  0.00    +0.000 C 
ATOM     41  C   UNL     1     109.855 129.454 135.969  0.00  0.00    +0.000 C 
BRANCH  41  43
ATOM     42  O   UNL     1     109.934 128.798 134.702  0.00  0.00    +0.000 OA
ATOM     43  C   UNL     1     109.612 129.385 135.184  0.00  0.00    +0.000 C 
ENDBRANCH  41  43
BRANCH  40  44
ATOM     44  O   UNL     1     111.679 129.845 137.103  0.00  0.00    +0.000 OA
BRANCH  44  48
ATOM     45  O   UNL     1     112.952 127.241 136.812  0.00  0.00    +0.000 OA
ATOM     46  O   UNL     1     114.067 129.533 135.451  0.00  0.00    +0.000 OA
ATOM     47  O   UNL     1     114.671 128.228 135.330  0.00  0.00    +0.000 OA
ATOM     48  C   UNL     1     112.276 129.371 136.786  0.00  0.00    +0.000 A 
ATOM     49  C   UNL     1     112.304 128.532 136.968  0.00  0.00    +0.000 A 
ATOM     50  C   UNL     1     112.872 129.714 136.272  0.00  0.00    +0.000 A 
ATOM     51  C   UNL     1     112.929 128.046 136.633  0.00  0.00    +0.000 A 
ATOM     52  C   UNL     1     113.490 129.212 135.946  0.00  0.00    +0.000 A 
ATOM     53  C   UNL     1     113.502 128.376 136.139  0.00  0.00    +0.000 A 
ATOM     54  C   UNL     1     114.098 127.899 135.824  0.00  0.00    +0.000 A 
ATOM     55  C   UNL     1     113.547 126.765 136.496  0.00  0.00    +0.000 A 
ATOM     56  C   UNL     1     114.120 127.093 136.002  0.00  0.00    +0.000 A 
BRANCH  55  57
ATOM     57  C   UNL     1     113.570 125.960 136.675  0.00  0.00    +0.000 A 
ATOM     58  C   UNL     1     114.167 125.660 137.158  0.00  0.00    +0.000 A 
ATOM     59  C   UNL     1     112.994 125.453 136.369  0.00  0.00    +0.000 A 
ATOM     60  C   UNL     1     114.189 124.856 137.336  0.00  0.00    +0.000 A 
ATOM     61  C   UNL     1     113.016 124.648 136.547  0.00  0.00    +0.000 A 
ATOM     62  C   UNL     1     113.614 124.350 137.031  0.00  0.00    +0.000 A 
BRANCH  62  63
ATOM     63  O   UNL     1     113.636 123.544 137.209  0.00  0.00    +0.000 OA
ATOM     64  C   UNL     1     112.937 123.138 137.375  0.00  0.00    +0.000 C 
ENDBRANCH  62  63
ENDBRANCH  55  57
ENDBRANCH  44  48
ENDBRANCH  40  44
ENDBRANCH   1  37
TORSDOF 13
ENDMDL
MODEL 2
REMARK VINA RESULT:     -10.4      1.913      5.963
REMARK  Name = 44257902
REMARK  13 active torsions:
REMARK  status: ('A' for Active; 'I' for Inactive)
REMARK    1  A    between atoms: O_1  and  C_25
REMARK    2  A    between atoms: O_1  and  C_27
REMARK    3  A    between atoms: O_4  and  C_29
REMARK    4  A    between atoms: O_4  and  C_35
REMARK    5  A    between atoms: O_5  and  C_26
REMARK    6  A    between atoms: O_5  and  C_37
REMARK    7  A    between atoms: O_13  and  C_39
REMARK    8  A    between atoms: O_13  and  C_49
REMARK    9  A    between atoms: O_24  and  C_63
REMARK   10  A    between atoms: C_33  and  C_45
REMARK   11  A    between atoms: C_34  and  C_46
REMARK   12  A    between atoms: C_41  and  C_47
REMARK   13  A    between atoms: C_56  and  C_58
REMARK                            x       y       z     vdW  Elec       q    Type
REMARK                         _______ _______ _______ _____ _____    ______ ____
ROOT
ATOM      1  O   UNL     1     111.614 128.425 137.893  0.00  0.00    +0.000 OA
ENDROOT
BRANCH   1   7
ATOM      2  O   UNL     1     112.448 128.070 136.787  0.00  0.00    +0.000 OA
ATOM      3  O   UNL     1     111.470 129.914 135.458  0.00  0.00    +0.000 OA
ATOM      4  O   UNL     1     112.630 128.944 134.796  0.00  0.00    +0.000 OA
ATOM      5  C   UNL     1     111.543 129.169 136.675  0.00  0.00    +0.000 C 
ATOM      6  C   UNL     1     111.796 129.299 135.901  0.00  0.00    +0.000 C 
ATOM      7  C   UNL     1     111.869 128.554 137.118  0.00  0.00    +0.000 C 
ATOM      8  C   UNL     1     112.376 128.814 135.570  0.00  0.00    +0.000 C 
ATOM      9  C   UNL     1     112.702 128.199 136.013  0.00  0.00    +0.000 C 
BRANCH   9  11
ATOM     10  O   UNL     1     114.056 127.747 135.964  0.00  0.00    +0.000 OA
ATOM     11  C   UNL     1     113.282 127.715 135.682  0.00  0.00    +0.000 C 
ENDBRANCH   9  11
BRANCH   5  12
ATOM     12  O   UNL     1     110.963 129.654 137.006  0.00  0.00    +0.000 OA
BRANCH  12  17
ATOM     13  O   UNL     1     109.914 128.882 136.417  0.00  0.00    +0.000 OA
ATOM     14  O   UNL     1     108.351 130.779 136.717  0.00  0.00    +0.000 OA
ATOM     15  O   UNL     1     107.823 129.376 136.028  0.00  0.00    +0.000 OA
ATOM     16  C   UNL     1     109.657 130.216 136.861  0.00  0.00    +0.000 C 
ATOM     17  C   UNL     1     110.178 129.584 136.761  0.00  0.00    +0.000 C 
ATOM     18  C   UNL     1     108.873 130.146 136.617  0.00  0.00    +0.000 C 
ATOM     19  C   UNL     1     108.608 129.445 136.272  0.00  0.00    +0.000 C 
ATOM     20  C   UNL     1     109.129 128.813 136.172  0.00  0.00    +0.000 C 
BRANCH  20  22
ATOM     21  O   UNL     1     108.728 127.447 136.299  0.00  0.00    +0.000 OA
ATOM     22  C   UNL     1     108.865 128.112 135.828  0.00  0.00    +0.000 C 
ENDBRANCH  20  22
BRANCH  16  23
ATOM     23  O   UNL     1     109.921 130.918 137.206  0.00  0.00    +0.000 OA
BRANCH  23  28
ATOM     24  O   UNL     1     109.427 130.483 138.473  0.00  0.00    +0.000 OA
ATOM     25  O   UNL     1     110.467 132.313 137.897  0.00  0.00    +0.000 OA
ATOM     26  O   UNL     1     110.247 132.575 139.512  0.00  0.00    +0.000 OA
ATOM     27  O   UNL     1     109.480 131.442 140.434  0.00  0.00    +0.000 OA
ATOM     28  C   UNL     1     109.811 131.049 138.012  0.00  0.00    +0.000 C 
ATOM     29  C   UNL     1     110.084 131.747 138.359  0.00  0.00    +0.000 C 
ATOM     30  C   UNL     1     109.974 131.878 139.165  0.00  0.00    +0.000 C 
ATOM     31  C   UNL     1     109.590 131.311 139.626  0.00  0.00    +0.000 C 
ATOM     32  C   UNL     1     109.317 130.614 139.281  0.00  0.00    +0.000 C 
ATOM     33  C   UNL     1     108.934 130.047 139.742  0.00  0.00    +0.000 C 
ENDBRANCH  23  28
ENDBRANCH  16  23
ENDBRANCH  12  17
ENDBRANCH   5  12
ENDBRANCH   1   7
BRANCH   1  37
ATOM     34  O   UNL     1     113.135 127.906 139.371  0.00  0.00    +0.000 OA
ATOM     35  O   UNL     1     111.363 126.801 138.041  0.00  0.00    +0.000 OA
ATOM     36  O   UNL     1     112.293 125.913 139.076  0.00  0.00    +0.000 OA
ATOM     37  C   UNL     1     112.079 127.981 138.410  0.00  0.00    +0.000 C 
ATOM     38  C   UNL     1     111.954 127.169 138.485  0.00  0.00    +0.000 C 
ATOM     39  C   UNL     1     112.419 126.726 139.002  0.00  0.00    +0.000 C 
ATOM     40  C   UNL     1     112.670 128.350 138.854  0.00  0.00    +0.000 C 
ATOM     41  C   UNL     1     113.009 127.094 139.445  0.00  0.00    +0.000 C 
BRANCH  41  43
ATOM     42  O   UNL     1     114.293 126.629 139.867  0.00  0.00    +0.000 OA
ATOM     43  C   UNL     1     113.474 126.650 139.963  0.00  0.00    +0.000 C 
ENDBRANCH  41  43
BRANCH  40  44
ATOM     44  O   UNL     1     112.795 129.161 138.779  0.00  0.00    +0.000 OA
BRANCH  44  48
ATOM     45  O   UNL     1     112.399 130.302 141.429  0.00  0.00    +0.000 OA
ATOM     46  O   UNL     1     114.922 130.685 140.076  0.00  0.00    +0.000 OA
ATOM     47  O   UNL     1     114.690 131.236 141.389  0.00  0.00    +0.000 OA
ATOM     48  C   UNL     1     113.078 129.596 139.422  0.00  0.00    +0.000 A 
ATOM     49  C   UNL     1     112.579 129.726 140.108  0.00  0.00    +0.000 A 
ATOM     50  C   UNL     1     113.873 129.919 139.407  0.00  0.00    +0.000 A 
ATOM     51  C   UNL     1     112.882 130.180 140.772  0.00  0.00    +0.000 A 
ATOM     52  C   UNL     1     114.160 130.371 140.081  0.00  0.00    +0.000 A 
ATOM     53  C   UNL     1     113.646 130.491 140.759  0.00  0.00    +0.000 A 
ATOM     54  C   UNL     1     113.926 130.924 141.403  0.00  0.00    +0.000 A 
ATOM     55  C   UNL     1     112.679 130.736 142.073  0.00  0.00    +0.000 A 
ATOM     56  C   UNL     1     113.443 131.047 142.060  0.00  0.00    +0.000 A 
BRANCH  55  57
ATOM     57  C   UNL     1     112.196 130.858 142.730  0.00  0.00    +0.000 A 
ATOM     58  C   UNL     1     111.916 131.615 142.903  0.00  0.00    +0.000 A 
ATOM     59  C   UNL     1     111.991 130.222 143.215  0.00  0.00    +0.000 A 
ATOM     60  C   UNL     1     111.433 131.737 143.559  0.00  0.00    +0.000 A 
ATOM     61  C   UNL     1     111.507 130.345 143.873  0.00  0.00    +0.000 A 
ATOM     62  C   UNL     1     111.228 131.102 144.044  0.00  0.00    +0.000 A 
BRANCH  62  63
ATOM     63  O   UNL     1     110.745 131.224 144.701  0.00  0.00    +0.000 OA
ATOM     64  C   UNL     1     111.055 131.569 145.384  0.00  0.00    +0.000 C 
ENDBRANCH  62  63
ENDBRANCH  55  57
ENDBRANCH  44  48
ENDBRANCH  40  44
ENDBRANCH   1  37
TORSDOF 13
ENDMDL
MODEL 3
REMARK VINA RESULT:     -10.4      1.844      5.835
REMARK  Name = 44257902
REMARK  13 active torsions:
REMARK  status: ('A' for Active; 'I' for Inactive)
REMARK    1  A    between atoms: O_1  and  C_25
REMARK    2  A    between atoms: O_1  and  C_27
REMARK    3  A    between atoms: O_4  and  C_29
REMARK    4  A    between atoms: O_4  and  C_35
REMARK    5  A    between atoms: O_5  and  C_26
REMARK    6  A    between atoms: O_5  and  C_37
REMARK    7  A    between atoms: O_13  and  C_39
REMARK    8  A    between atoms: O_13  and  C_49
REMARK    9  A    between atoms: O_24  and  C_63
REMARK   10  A    between atoms: C_33  and  C_45
REMARK   11  A    between atoms: C_34  and  C_46
REMARK   12  A    between atoms: C_41  and  C_47
REMARK   13  A    between atoms: C_56  and  C_58
REMARK                            x       y       z     vdW  Elec       q    Type
REMARK                         _______ _______ _______ _____ _____    ______ ____
ROOT
ATOM      1  O   UNL     1     110.624 127.070 137.467  0.00  0.00    +0.000 OA
ENDROOT
BRANCH   1   7
ATOM      2  O   UNL     1     110.756 125.844 136.745  0.00  0.00    +0.000 OA
ATOM      3  O   UNL     1     110.198 127.024 134.642  0.00  0.00    +0.000 OA
ATOM      4  O   UNL     1     110.516 125.405 134.620  0.00  0.00    +0.000 OA
ATOM      5  C   UNL     1     110.411 127.046 136.055  0.00  0.00    +0.000 C 
ATOM      6  C   UNL     1     110.384 126.630 135.343  0.00  0.00    +0.000 C 
ATOM      7  C   UNL     1     110.597 126.653 136.756  0.00  0.00    +0.000 C 
ATOM      8  C   UNL     1     110.543 125.820 135.332  0.00  0.00    +0.000 C 
ATOM      9  C   UNL     1     110.729 125.427 136.033  0.00  0.00    +0.000 C 
BRANCH   9  11
ATOM     10  O   UNL     1     111.643 124.343 136.208  0.00  0.00    +0.000 OA
ATOM     11  C   UNL     1     110.888 124.618 136.022  0.00  0.00    +0.000 C 
ENDBRANCH   9  11
BRANCH   5  12
ATOM     12  O   UNL     1     110.252 127.856 136.066  0.00  0.00    +0.000 OA
BRANCH  12  17
ATOM     13  O   UNL     1     111.624 128.170 135.818  0.00  0.00    +0.000 OA
ATOM     14  O   UNL     1     110.974 130.451 135.110  0.00  0.00    +0.000 OA
ATOM     15  O   UNL     1     112.562 130.005 135.098  0.00  0.00    +0.000 OA
ATOM     16  C   UNL     1     110.613 129.153 135.588  0.00  0.00    +0.000 C 
ATOM     17  C   UNL     1     110.830 128.393 135.824  0.00  0.00    +0.000 C 
ATOM     18  C   UNL     1     111.191 129.690 135.346  0.00  0.00    +0.000 C 
ATOM     19  C   UNL     1     111.985 129.468 135.340  0.00  0.00    +0.000 C 
ATOM     20  C   UNL     1     112.202 128.707 135.576  0.00  0.00    +0.000 C 
BRANCH  20  22
ATOM     21  O   UNL     1     113.421 128.454 136.278  0.00  0.00    +0.000 OA
ATOM     22  C   UNL     1     112.996 128.484 135.570  0.00  0.00    +0.000 C 
ENDBRANCH  20  22
BRANCH  16  23
ATOM     23  O   UNL     1     109.819 129.377 135.593  0.00  0.00    +0.000 OA
BRANCH  23  28
ATOM     24  O   UNL     1     109.952 129.901 136.915  0.00  0.00    +0.000 OA
ATOM     25  O   UNL     1     108.363 130.137 135.438  0.00  0.00    +0.000 OA
ATOM     26  O   UNL     1     107.768 131.042 136.684  0.00  0.00    +0.000 OA
ATOM     27  O   UNL     1     108.629 131.186 138.083  0.00  0.00    +0.000 OA
ATOM     28  C   UNL     1     109.521 129.829 136.215  0.00  0.00    +0.000 C 
ATOM     29  C   UNL     1     108.793 130.209 136.138  0.00  0.00    +0.000 C 
ATOM     30  C   UNL     1     108.496 130.661 136.760  0.00  0.00    +0.000 C 
ATOM     31  C   UNL     1     108.926 130.733 137.460  0.00  0.00    +0.000 C 
ATOM     32  C   UNL     1     109.655 130.354 137.538  0.00  0.00    +0.000 C 
ATOM     33  C   UNL     1     110.085 130.426 138.238  0.00  0.00    +0.000 C 
ENDBRANCH  23  28
ENDBRANCH  16  23
ENDBRANCH  12  17
ENDBRANCH   5  12
ENDBRANCH   1   7
BRANCH   1  37
ATOM     34  O   UNL     1     110.934 126.057 139.377  0.00  0.00    +0.000 OA
ATOM     35  O   UNL     1     109.066 126.766 137.915  0.00  0.00    +0.000 OA
ATOM     36  O   UNL     1     108.752 125.990 139.337  0.00  0.00    +0.000 OA
ATOM     37  C   UNL     1     110.468 126.682 138.178  0.00  0.00    +0.000 C 
ATOM     38  C   UNL     1     109.689 126.529 138.403  0.00  0.00    +0.000 C 
ATOM     39  C   UNL     1     109.532 126.141 139.114  0.00  0.00    +0.000 C 
ATOM     40  C   UNL     1     111.091 126.445 138.666  0.00  0.00    +0.000 C 
ATOM     41  C   UNL     1     110.154 125.905 139.600  0.00  0.00    +0.000 C 
BRANCH  41  43
ATOM     42  O   UNL     1     110.320 125.800 141.016  0.00  0.00    +0.000 OA
ATOM     43  C   UNL     1     109.997 125.517 140.311  0.00  0.00    +0.000 C 
ENDBRANCH  41  43
BRANCH  40  44
ATOM     44  O   UNL     1     111.870 126.597 138.442  0.00  0.00    +0.000 OA
BRANCH  44  48
ATOM     45  O   UNL     1     112.719 128.619 140.359  0.00  0.00    +0.000 OA
ATOM     46  O   UNL     1     114.350 126.270 139.948  0.00  0.00    +0.000 OA
ATOM     47  O   UNL     1     114.739 127.291 140.890  0.00  0.00    +0.000 OA
ATOM     48  C   UNL     1     112.413 126.872 139.000  0.00  0.00    +0.000 A 
ATOM     49  C   UNL     1     112.280 127.621 139.399  0.00  0.00    +0.000 A 
ATOM     50  C   UNL     1     113.114 126.411 139.183  0.00  0.00    +0.000 A 
ATOM     51  C   UNL     1     112.851 127.899 139.978  0.00  0.00    +0.000 A 
ATOM     52  C   UNL     1     113.674 126.705 139.765  0.00  0.00    +0.000 A 
ATOM     53  C   UNL     1     113.525 127.456 140.155  0.00  0.00    +0.000 A 
ATOM     54  C   UNL     1     114.066 127.734 140.713  0.00  0.00    +0.000 A 
ATOM     55  C   UNL     1     113.260 128.895 140.917  0.00  0.00    +0.000 A 
ATOM     56  C   UNL     1     113.933 128.454 141.094  0.00  0.00    +0.000 A 
BRANCH  55  57
ATOM     57  C   UNL     1     113.128 129.615 141.298  0.00  0.00    +0.000 A 
ATOM     58  C   UNL     1     113.654 130.242 141.193  0.00  0.00    +0.000 A 
ATOM     59  C   UNL     1     112.468 129.708 141.786  0.00  0.00    +0.000 A 
ATOM     60  C   UNL     1     113.521 130.960 141.573  0.00  0.00    +0.000 A 
ATOM     61  C   UNL     1     112.336 130.428 142.167  0.00  0.00    +0.000 A 
ATOM     62  C   UNL     1     112.862 131.054 142.061  0.00  0.00    +0.000 A 
BRANCH  62  63
ATOM     63  O   UNL     1     112.730 131.774 142.442  0.00  0.00    +0.000 OA
ATOM     64  C   UNL     1     112.474 131.785 143.227  0.00  0.00    +0.000 C 
ENDBRANCH  62  63
ENDBRANCH  55  57
ENDBRANCH  44  48
ENDBRANCH  40  44
ENDBRANCH   1  37
TORSDOF 13
ENDMDL
MODEL 4
REMARK VINA RESULT:     -10.4      1.691      6.303
REMARK  Name = 44257902
REMARK  13 active torsions:
REMARK  status: ('A' for Active; 'I' for Inactive)
REMARK    1  A    between atoms: O_1  and  C_25
REMARK    2  A    between atoms: O_1  and  C_27
REMARK    3  A    between atoms: O_4  and  C_29
REMARK    4  A    between atoms: O_4  and  C_35
REMARK    5  A    between atoms: O_5  and  C_26
REMARK    6  A    between atoms: O_5  and  C_37
REMARK    7  A    between atoms: O_13  and  C_39
REMARK    8  A    between atoms: O_13  and  C_49
REMARK    9  A    between atoms: O_24  and  C_63
REMARK   10  A    between atoms: C_33  and  C_45
REMARK   11  A    between atoms: C_34  and  C_46
REMARK   12  A    between atoms: C_41  and  C_47
REMARK   13  A    between atoms: C_56  and  C_58
REMARK                            x       y       z     vdW  Elec       q    Type
REMARK                         _______ _______ _______ _____ _____    ______ ____
ROOT
ATOM      1  O   UNL     1     111.924 129.465 137.765  0.00  0.00    +0.000 OA
ENDROOT
BRANCH   1   7
ATOM      2  O   UNL     1     112.812 128.711 136.937  0.00  0.00    +0.000 OA
ATOM      3  O   UNL     1     111.694 129.610 134.920  0.00  0.00    +0.000 OA
ATOM      4  O   UNL     1     112.954 128.557 134.764  0.00  0.00    +0.000 OA
ATOM      5  C   UNL     1     111.810 129.537 136.343  0.00  0.00    +0.000 C 
ATOM      6  C   UNL     1     112.067 129.311 135.592  0.00  0.00    +0.000 C 
ATOM      7  C   UNL     1     112.182 129.237 137.015  0.00  0.00    +0.000 C 
ATOM      8  C   UNL     1     112.697 128.783 135.514  0.00  0.00    +0.000 C 
ATOM      9  C   UNL     1     113.070 128.484 136.187  0.00  0.00    +0.000 C 
BRANCH   9  11
ATOM     10  O   UNL     1     113.629 127.185 136.389  0.00  0.00    +0.000 OA
ATOM     11  C   UNL     1     113.700 127.957 136.109  0.00  0.00    +0.000 C 
ENDBRANCH   9  11
BRANCH   5  12
ATOM     12  O   UNL     1     111.179 130.064 136.421  0.00  0.00    +0.000 OA
BRANCH  12  17
ATOM     13  O   UNL     1     110.231 128.998 136.353  0.00  0.00    +0.000 OA
ATOM     14  O   UNL     1     108.435 130.627 135.854  0.00  0.00    +0.000 OA
ATOM     15  O   UNL     1     108.085 129.017 135.953  0.00  0.00    +0.000 OA
ATOM     16  C   UNL     1     109.808 130.345 136.137  0.00  0.00    +0.000 C 
ATOM     17  C   UNL     1     110.406 129.803 136.304  0.00  0.00    +0.000 C 
ATOM     18  C   UNL     1     109.034 130.084 136.021  0.00  0.00    +0.000 C 
ATOM     19  C   UNL     1     108.858 129.279 136.070  0.00  0.00    +0.000 C 
ATOM     20  C   UNL     1     109.458 128.736 136.236  0.00  0.00    +0.000 C 
BRANCH  20  22
ATOM     21  O   UNL     1     109.213 127.569 137.024  0.00  0.00    +0.000 OA
ATOM     22  C   UNL     1     109.282 127.931 136.285  0.00  0.00    +0.000 C 
ENDBRANCH  20  22
BRANCH  16  23
ATOM     23  O   UNL     1     109.982 131.150 136.088  0.00  0.00    +0.000 OA
BRANCH  23  28
ATOM     24  O   UNL     1     109.627 131.319 137.461  0.00  0.00    +0.000 OA
ATOM     25  O   UNL     1     110.521 132.709 136.036  0.00  0.00    +0.000 OA
ATOM     26  O   UNL     1     110.435 133.657 137.384  0.00  0.00    +0.000 OA
ATOM     27  O   UNL     1     109.811 133.047 138.783  0.00  0.00    +0.000 OA
ATOM     28  C   UNL     1     109.939 131.624 136.761  0.00  0.00    +0.000 C 
ATOM     29  C   UNL     1     110.209 132.404 136.736  0.00  0.00    +0.000 C 
ATOM     30  C   UNL     1     110.166 132.878 137.409  0.00  0.00    +0.000 C 
ATOM     31  C   UNL     1     109.854 132.572 138.109  0.00  0.00    +0.000 C 
ATOM     32  C   UNL     1     109.584 131.793 138.136  0.00  0.00    +0.000 C 
ATOM     33  C   UNL     1     109.272 131.488 138.836  0.00  0.00    +0.000 C 
ENDBRANCH  23  28
ENDBRANCH  16  23
ENDBRANCH  12  17
ENDBRANCH   5  12
ENDBRANCH   1   7
BRANCH   1  37
ATOM     34  O   UNL     1     112.977 128.862 139.581  0.00  0.00    +0.000 OA
ATOM     35  O   UNL     1     112.994 130.710 137.933  0.00  0.00    +0.000 OA
ATOM     36  O   UNL     1     114.052 130.723 139.199  0.00  0.00    +0.000 OA
ATOM     37  C   UNL     1     112.453 129.471 138.398  0.00  0.00    +0.000 C 
ATOM     38  C   UNL     1     112.988 130.093 138.483  0.00  0.00    +0.000 C 
ATOM     39  C   UNL     1     113.517 130.100 139.116  0.00  0.00    +0.000 C 
ATOM     40  C   UNL     1     112.448 128.855 138.948  0.00  0.00    +0.000 C 
ATOM     41  C   UNL     1     113.511 129.485 139.664  0.00  0.00    +0.000 C 
BRANCH  41  43
ATOM     42  O   UNL     1     114.425 128.797 140.521  0.00  0.00    +0.000 OA
ATOM     43  C   UNL     1     114.040 129.491 140.297  0.00  0.00    +0.000 C 
ENDBRANCH  41  43
BRANCH  40  44
ATOM     44  O   UNL     1     111.913 128.233 138.863  0.00  0.00    +0.000 OA
BRANCH  44  48
ATOM     45  O   UNL     1     109.809 128.638 140.837  0.00  0.00    +0.000 OA
ATOM     46  O   UNL     1     111.369 126.208 140.895  0.00  0.00    +0.000 OA
ATOM     47  O   UNL     1     110.320 126.442 141.857  0.00  0.00    +0.000 OA
ATOM     48  C   UNL     1     111.482 127.968 139.516  0.00  0.00    +0.000 A 
ATOM     49  C   UNL     1     110.854 128.453 139.845  0.00  0.00    +0.000 A 
ATOM     50  C   UNL     1     111.660 127.206 139.869  0.00  0.00    +0.000 A 
ATOM     51  C   UNL     1     110.412 128.169 140.524  0.00  0.00    +0.000 A 
ATOM     52  C   UNL     1     111.206 126.938 140.549  0.00  0.00    +0.000 A 
ATOM     53  C   UNL     1     110.582 127.436 140.864  0.00  0.00    +0.000 A 
ATOM     54  C   UNL     1     110.150 127.174 141.517  0.00  0.00    +0.000 A 
ATOM     55  C   UNL     1     109.378 128.376 141.489  0.00  0.00    +0.000 A 
ATOM     56  C   UNL     1     109.548 127.644 141.829  0.00  0.00    +0.000 A 
BRANCH  55  57
ATOM     57  C   UNL     1     108.776 128.846 141.801  0.00  0.00    +0.000 A 
ATOM     58  C   UNL     1     108.000 128.755 141.536  0.00  0.00    +0.000 A 
ATOM     59  C   UNL     1     108.950 129.408 142.381  0.00  0.00    +0.000 A 
ATOM     60  C   UNL     1     107.399 129.224 141.847  0.00  0.00    +0.000 A 
ATOM     61  C   UNL     1     108.348 129.878 142.693  0.00  0.00    +0.000 A 
ATOM     62  C   UNL     1     107.572 129.786 142.426  0.00  0.00    +0.000 A 
BRANCH  62  63
ATOM     63  O   UNL     1     106.970 130.255 142.739  0.00  0.00    +0.000 OA
ATOM     64  C   UNL     1     106.812 130.996 142.411  0.00  0.00    +0.000 C 
ENDBRANCH  62  63
ENDBRANCH  55  57
ENDBRANCH  44  48
ENDBRANCH  40  44
ENDBRANCH   1  37
TORSDOF 13
ENDMDL
MODEL 5
REMARK VINA RESULT:     -10.3      1.281      2.306
REMARK  Name = 44257902
REMARK  13 active torsions:
REMARK  status: ('A' for Active; 'I' for Inactive)
REMARK    1  A    between atoms: O_1  and  C_25
REMARK    2  A    between atoms: O_1  and  C_27
REMARK    3  A    between atoms: O_4  and  C_29
REMARK    4  A    between atoms: O_4  and  C_35
REMARK    5  A    between atoms: O_5  and  C_26
REMARK    6  A    between atoms: O_5  and  C_37
REMARK    7  A    between atoms: O_13  and  C_39
REMARK    8  A    between atoms: O_13  and  C_49
REMARK    9  A    between atoms: O_24  and  C_63
REMARK   10  A    between atoms: C_33  and  C_45
REMARK   11  A    between atoms: C_34  and  C_46
REMARK   12  A    between atoms: C_41  and  C_47
REMARK   13  A    between atoms: C_56  and  C_58
REMARK                            x       y       z     vdW  Elec       q    Type
REMARK                         _______ _______ _______ _____ _____    ______ ____
ROOT
ATOM      1  O   UNL     1     110.016 130.017 137.736  0.00  0.00    +0.000 OA
ENDROOT
BRANCH   1   7
ATOM      2  O   UNL     1     109.526 131.257 137.220  0.00  0.00    +0.000 OA
ATOM      3  O   UNL     1     110.521 132.452 139.145  0.00  0.00    +0.000 OA
ATOM      4  O   UNL     1     109.700 133.293 137.987  0.00  0.00    +0.000 OA
ATOM      5  C   UNL     1     110.268 131.235 138.440  0.00  0.00    +0.000 C 
ATOM      6  C   UNL     1     110.189 132.054 138.503  0.00  0.00    +0.000 C 
ATOM      7  C   UNL     1     109.937 130.836 137.798  0.00  0.00    +0.000 C 
ATOM      8  C   UNL     1     109.778 132.474 137.924  0.00  0.00    +0.000 C 
ATOM      9  C   UNL     1     109.447 132.076 137.282  0.00  0.00    +0.000 C 
BRANCH   9  11
ATOM     10  O   UNL     1     108.238 132.339 136.568  0.00  0.00    +0.000 OA
ATOM     11  C   UNL     1     109.036 132.496 136.704  0.00  0.00    +0.000 C 
ENDBRANCH   9  11
BRANCH   5  12
ATOM     12  O   UNL     1     110.679 130.814 139.020  0.00  0.00    +0.000 OA
BRANCH  12  17
ATOM     13  O   UNL     1     109.526 130.685 139.853  0.00  0.00    +0.000 OA
ATOM     14  O   UNL     1     110.988 130.443 141.836  0.00  0.00    +0.000 OA
ATOM     15  O   UNL     1     109.348 130.393 142.010  0.00  0.00    +0.000 OA
ATOM     16  C   UNL     1     110.834 130.629 140.427  0.00  0.00    +0.000 C 
ATOM     17  C   UNL     1     110.347 130.709 139.767  0.00  0.00    +0.000 C 
ATOM     18  C   UNL     1     110.501 130.523 141.175  0.00  0.00    +0.000 C 
ATOM     19  C   UNL     1     109.681 130.499 141.262  0.00  0.00    +0.000 C 
ATOM     20  C   UNL     1     109.193 130.579 140.601  0.00  0.00    +0.000 C 
BRANCH  20  22
ATOM     21  O   UNL     1     107.941 129.942 140.342  0.00  0.00    +0.000 OA
ATOM     22  C   UNL     1     108.374 130.555 140.688  0.00  0.00    +0.000 C 
ENDBRANCH  20  22
BRANCH  16  23
ATOM     23  O   UNL     1     111.654 130.653 140.341  0.00  0.00    +0.000 OA
BRANCH  23  28
ATOM     24  O   UNL     1     111.690 129.227 140.266  0.00  0.00    +0.000 OA
ATOM     25  O   UNL     1     113.298 130.702 140.216  0.00  0.00    +0.000 OA
ATOM     26  O   UNL     1     114.157 129.299 140.077  0.00  0.00    +0.000 OA
ATOM     27  O   UNL     1     113.371 127.849 140.065  0.00  0.00    +0.000 OA
ATOM     28  C   UNL     1     112.083 129.953 140.272  0.00  0.00    +0.000 C 
ATOM     29  C   UNL     1     112.906 129.976 140.209  0.00  0.00    +0.000 C 
ATOM     30  C   UNL     1     113.335 129.276 140.140  0.00  0.00    +0.000 C 
ATOM     31  C   UNL     1     112.942 128.551 140.134  0.00  0.00    +0.000 C 
ATOM     32  C   UNL     1     112.120 128.526 140.197  0.00  0.00    +0.000 C 
ATOM     33  C   UNL     1     111.727 127.800 140.190  0.00  0.00    +0.000 C 
ENDBRANCH  23  28
ENDBRANCH  16  23
ENDBRANCH  12  17
ENDBRANCH   5  12
ENDBRANCH   1   7
BRANCH   1  37
ATOM     34  O   UNL     1     110.459 129.195 135.763  0.00  0.00    +0.000 OA
ATOM     35  O   UNL     1     108.532 129.446 137.296  0.00  0.00    +0.000 OA
ATOM     36  O   UNL     1     108.332 128.708 135.834  0.00  0.00    +0.000 OA
ATOM     37  C   UNL     1     109.916 129.648 137.005  0.00  0.00    +0.000 C 
ATOM     38  C   UNL     1     109.175 129.362 136.785  0.00  0.00    +0.000 C 
ATOM     39  C   UNL     1     109.075 128.993 136.054  0.00  0.00    +0.000 C 
ATOM     40  C   UNL     1     110.559 129.565 136.494  0.00  0.00    +0.000 C 
ATOM     41  C   UNL     1     109.717 128.910 135.543  0.00  0.00    +0.000 C 
BRANCH  41  43
ATOM     42  O   UNL     1     109.954 127.801 134.674  0.00  0.00    +0.000 OA
ATOM     43  C   UNL     1     109.617 128.541 134.812  0.00  0.00    +0.000 C 
ENDBRANCH  41  43
BRANCH  40  44
ATOM     44  O   UNL     1     111.301 129.850 136.714  0.00  0.00    +0.000 OA
BRANCH  44  48
ATOM     45  O   UNL     1     112.930 127.436 136.718  0.00  0.00    +0.000 OA
ATOM     46  O   UNL     1     113.856 129.778 135.303  0.00  0.00    +0.000 OA
ATOM     47  O   UNL     1     114.637 128.565 135.327  0.00  0.00    +0.000 OA
ATOM     48  C   UNL     1     111.983 129.446 136.484  0.00  0.00    +0.000 A 
ATOM     49  C   UNL     1     112.105 128.631 136.727  0.00  0.00    +0.000 A 
ATOM     50  C   UNL     1     112.575 129.838 136.001  0.00  0.00    +0.000 A 
ATOM     51  C   UNL     1     112.818 128.219 136.483  0.00  0.00    +0.000 A 
ATOM     52  C   UNL     1     113.283 129.410 135.767  0.00  0.00    +0.000 A 
ATOM     53  C   UNL     1     113.387 128.595 136.019  0.00  0.00    +0.000 A 
ATOM     54  C   UNL     1     114.068 128.188 135.791  0.00  0.00    +0.000 A 
ATOM     55  C   UNL     1     113.611 127.030 136.490  0.00  0.00    +0.000 A 
ATOM     56  C   UNL     1     114.180 127.406 136.027  0.00  0.00    +0.000 A 
BRANCH  55  57
ATOM     57  C   UNL     1     113.723 126.247 136.726  0.00  0.00    +0.000 A 
ATOM     58  C   UNL     1     113.435 125.630 136.260  0.00  0.00    +0.000 A 
ATOM     59  C   UNL     1     114.123 126.081 137.429  0.00  0.00    +0.000 A 
ATOM     60  C   UNL     1     113.547 124.849 136.496  0.00  0.00    +0.000 A 
ATOM     61  C   UNL     1     114.235 125.299 137.665  0.00  0.00    +0.000 A 
ATOM     62  C   UNL     1     113.947 124.682 137.198  0.00  0.00    +0.000 A 
BRANCH  62  63
ATOM     63  O   UNL     1     114.059 123.900 137.434  0.00  0.00    +0.000 OA
ATOM     64  C   UNL     1     113.415 123.386 137.482  0.00  0.00    +0.000 C 
ENDBRANCH  62  63
ENDBRANCH  55  57
ENDBRANCH  44  48
ENDBRANCH  40  44
ENDBRANCH   1  37
TORSDOF 13
ENDMDL
MODEL 6
REMARK VINA RESULT:     -10.2      1.906      6.811
REMARK  Name = 44257902
REMARK  13 active torsions:
REMARK  status: ('A' for Active; 'I' for Inactive)
REMARK    1  A    between atoms: O_1  and  C_25
REMARK    2  A    between atoms: O_1  and  C_27
REMARK    3  A    between atoms: O_4  and  C_29
REMARK    4  A    between atoms: O_4  and  C_35
REMARK    5  A    between atoms: O_5  and  C_26
REMARK    6  A    between atoms: O_5  and  C_37
REMARK    7  A    between atoms: O_13  and  C_39
REMARK    8  A    between atoms: O_13  and  C_49
REMARK    9  A    between atoms: O_24  and  C_63
REMARK   10  A    between atoms: C_33  and  C_45
REMARK   11  A    between atoms: C_34  and  C_46
REMARK   12  A    between atoms: C_41  and  C_47
REMARK   13  A    between atoms: C_56  and  C_58
REMARK                            x       y       z     vdW  Elec       q    Type
REMARK                         _______ _______ _______ _____ _____    ______ ____
ROOT
ATOM      1  O   UNL     1     111.362 127.472 138.264  0.00  0.00    +0.000 OA
ENDROOT
BRANCH   1   7
ATOM      2  O   UNL     1     111.797 126.214 137.745  0.00  0.00    +0.000 OA
ATOM      3  O   UNL     1     111.613 127.101 135.442  0.00  0.00    +0.000 OA
ATOM      4  O   UNL     1     112.109 125.547 135.690  0.00  0.00    +0.000 OA
ATOM      5  C   UNL     1     111.488 127.286 136.853  0.00  0.00    +0.000 C 
ATOM      6  C   UNL     1     111.674 126.806 136.209  0.00  0.00    +0.000 C 
ATOM      7  C   UNL     1     111.549 126.990 137.621  0.00  0.00    +0.000 C 
ATOM      8  C   UNL     1     111.922 126.028 136.334  0.00  0.00    +0.000 C 
ATOM      9  C   UNL     1     111.984 125.732 137.101  0.00  0.00    +0.000 C 
BRANCH   9  11
ATOM     10  O   UNL     1     111.716 124.406 137.560  0.00  0.00    +0.000 OA
ATOM     11  C   UNL     1     112.232 124.956 137.225  0.00  0.00    +0.000 C 
ENDBRANCH   9  11
BRANCH   5  12
ATOM     12  O   UNL     1     111.239 128.064 136.729  0.00  0.00    +0.000 OA
BRANCH  12  17
ATOM     13  O   UNL     1     109.901 127.618 136.501  0.00  0.00    +0.000 OA
ATOM     14  O   UNL     1     109.297 129.865 135.655  0.00  0.00    +0.000 OA
ATOM     15  O   UNL     1     108.160 128.670 135.709  0.00  0.00    +0.000 OA
ATOM     16  C   UNL     1     110.269 128.964 136.192  0.00  0.00    +0.000 C 
ATOM     17  C   UNL     1     110.470 128.215 136.474  0.00  0.00    +0.000 C 
ATOM     18  C   UNL     1     109.499 129.115 135.937  0.00  0.00    +0.000 C 
ATOM     19  C   UNL     1     108.930 128.519 135.964  0.00  0.00    +0.000 C 
ATOM     20  C   UNL     1     109.131 127.769 136.246  0.00  0.00    +0.000 C 
BRANCH  20  22
ATOM     21  O   UNL     1     108.399 126.791 136.986  0.00  0.00    +0.000 OA
ATOM     22  C   UNL     1     108.563 127.173 136.273  0.00  0.00    +0.000 C 
ENDBRANCH  20  22
BRANCH  16  23
ATOM     23  O   UNL     1     110.837 129.561 136.165  0.00  0.00    +0.000 OA
BRANCH  23  28
ATOM     24  O   UNL     1     110.316 130.122 137.371  0.00  0.00    +0.000 OA
ATOM     25  O   UNL     1     112.100 130.622 136.217  0.00  0.00    +0.000 OA
ATOM     26  O   UNL     1     112.211 131.713 137.450  0.00  0.00    +0.000 OA
ATOM     27  O   UNL     1     111.058 131.744 138.630  0.00  0.00    +0.000 OA
ATOM     28  C   UNL     1     110.892 130.107 136.781  0.00  0.00    +0.000 C 
ATOM     29  C   UNL     1     111.524 130.637 136.807  0.00  0.00    +0.000 C 
ATOM     30  C   UNL     1     111.579 131.183 137.423  0.00  0.00    +0.000 C 
ATOM     31  C   UNL     1     111.003 131.198 138.013  0.00  0.00    +0.000 C 
ATOM     32  C   UNL     1     110.371 130.668 137.988  0.00  0.00    +0.000 C 
ATOM     33  C   UNL     1     109.795 130.684 138.578  0.00  0.00    +0.000 C 
ENDBRANCH  23  28
ENDBRANCH  16  23
ENDBRANCH  12  17
ENDBRANCH   5  12
ENDBRANCH   1   7
BRANCH   1  37
ATOM     34  O   UNL     1     111.640 126.837 140.335  0.00  0.00    +0.000 OA
ATOM     35  O   UNL     1     112.927 127.927 138.522  0.00  0.00    +0.000 OA
ATOM     36  O   UNL     1     113.634 127.655 139.988  0.00  0.00    +0.000 OA
ATOM     37  C   UNL     1     111.716 127.336 138.997  0.00  0.00    +0.000 C 
ATOM     38  C   UNL     1     112.498 127.564 139.127  0.00  0.00    +0.000 C 
ATOM     39  C   UNL     1     112.852 127.428 139.859  0.00  0.00    +0.000 C 
ATOM     40  C   UNL     1     111.287 126.973 139.602  0.00  0.00    +0.000 C 
ATOM     41  C   UNL     1     112.423 127.065 140.463  0.00  0.00    +0.000 C 
BRANCH  41  43
ATOM     42  O   UNL     1     112.662 126.210 141.583  0.00  0.00    +0.000 OA
ATOM     43  C   UNL     1     112.777 126.929 141.196  0.00  0.00    +0.000 C 
ENDBRANCH  41  43
BRANCH  40  44
ATOM     44  O   UNL     1     110.504 126.746 139.472  0.00  0.00    +0.000 OA
BRANCH  44  48
ATOM     45  O   UNL     1     108.807 128.486 141.077  0.00  0.00    +0.000 OA
ATOM     46  O   UNL     1     108.751 125.632 141.525  0.00  0.00    +0.000 OA
ATOM     47  O   UNL     1     107.924 126.524 142.301  0.00  0.00    +0.000 OA
ATOM     48  C   UNL     1     109.942 126.847 140.069  0.00  0.00    +0.000 A 
ATOM     49  C   UNL     1     109.660 127.633 140.268  0.00  0.00    +0.000 A 
ATOM     50  C   UNL     1     109.636 126.166 140.493  0.00  0.00    +0.000 A 
ATOM     51  C   UNL     1     109.074 127.728 140.890  0.00  0.00    +0.000 A 
ATOM     52  C   UNL     1     109.050 126.280 141.112  0.00  0.00    +0.000 A 
ATOM     53  C   UNL     1     108.780 127.074 141.298  0.00  0.00    +0.000 A 
ATOM     54  C   UNL     1     108.218 127.178 141.893  0.00  0.00    +0.000 A 
ATOM     55  C   UNL     1     108.245 128.589 141.673  0.00  0.00    +0.000 A 
ATOM     56  C   UNL     1     107.950 127.936 142.081  0.00  0.00    +0.000 A 
BRANCH  55  57
ATOM     57  C   UNL     1     107.978 129.346 141.860  0.00  0.00    +0.000 A 
ATOM     58  C   UNL     1     107.270 129.626 141.542  0.00  0.00    +0.000 A 
ATOM     59  C   UNL     1     108.419 129.826 142.367  0.00  0.00    +0.000 A 
ATOM     60  C   UNL     1     107.003 130.382 141.729  0.00  0.00    +0.000 A 
ATOM     61  C   UNL     1     108.152 130.584 142.555  0.00  0.00    +0.000 A 
ATOM     62  C   UNL     1     107.443 130.862 142.236  0.00  0.00    +0.000 A 
BRANCH  62  63
ATOM     63  O   UNL     1     107.176 131.619 142.423  0.00  0.00    +0.000 OA
ATOM     64  C   UNL     1     106.524 131.716 142.921  0.00  0.00    +0.000 C 
ENDBRANCH  62  63
ENDBRANCH  55  57
ENDBRANCH  44  48
ENDBRANCH  40  44
ENDBRANCH   1  37
TORSDOF 13
ENDMDL
MODEL 7
REMARK VINA RESULT:     -10.1      2.607      6.641
REMARK  Name = 44257902
REMARK  13 active torsions:
REMARK  status: ('A' for Active; 'I' for Inactive)
REMARK    1  A    between atoms: O_1  and  C_25
REMARK    2  A    between atoms: O_1  and  C_27
REMARK    3  A    between atoms: O_4  and  C_29
REMARK    4  A    between atoms: O_4  and  C_35
REMARK    5  A    between atoms: O_5  and  C_26
REMARK    6  A    between atoms: O_5  and  C_37
REMARK    7  A    between atoms: O_13  and  C_39
REMARK    8  A    between atoms: O_13  and  C_49
REMARK    9  A    between atoms: O_24  and  C_63
REMARK   10  A    between atoms: C_33  and  C_45
REMARK   11  A    between atoms: C_34  and  C_46
REMARK   12  A    between atoms: C_41  and  C_47
REMARK   13  A    between atoms: C_56  and  C_58
REMARK                            x       y       z     vdW  Elec       q    Type
REMARK                         _______ _______ _______ _____ _____    ______ ____
ROOT
ATOM      1  O   UNL     1     112.589 129.139 139.663  0.00  0.00    +0.000 OA
ENDROOT
BRANCH   1   7
ATOM      2  O   UNL     1     112.110 130.224 138.865  0.00  0.00    +0.000 OA
ATOM      3  O   UNL     1     111.375 128.621 137.129  0.00  0.00    +0.000 OA
ATOM      4  O   UNL     1     111.140 130.239 136.910  0.00  0.00    +0.000 OA
ATOM      5  C   UNL     1     111.982 128.881 138.396  0.00  0.00    +0.000 C 
ATOM      6  C   UNL     1     111.620 129.155 137.708  0.00  0.00    +0.000 C 
ATOM      7  C   UNL     1     112.227 129.415 138.975  0.00  0.00    +0.000 C 
ATOM      8  C   UNL     1     111.502 129.965 137.598  0.00  0.00    +0.000 C 
ATOM      9  C   UNL     1     111.747 130.499 138.177  0.00  0.00    +0.000 C 
BRANCH   9  11
ATOM     10  O   UNL     1     111.124 131.723 138.568  0.00  0.00    +0.000 OA
ATOM     11  C   UNL     1     111.630 131.308 138.067  0.00  0.00    +0.000 C 
ENDBRANCH   9  11
BRANCH   5  12
ATOM     12  O   UNL     1     112.099 128.071 138.506  0.00  0.00    +0.000 OA
BRANCH  12  17
ATOM     13  O   UNL     1     110.745 127.906 138.930  0.00  0.00    +0.000 OA
ATOM     14  O   UNL     1     111.299 125.664 139.823  0.00  0.00    +0.000 OA
ATOM     15  O   UNL     1     109.760 126.245 139.950  0.00  0.00    +0.000 OA
ATOM     16  C   UNL     1     111.699 126.868 139.164  0.00  0.00    +0.000 C 
ATOM     17  C   UNL     1     111.514 127.614 138.867  0.00  0.00    +0.000 C 
ATOM     18  C   UNL     1     111.114 126.411 139.525  0.00  0.00    +0.000 C 
ATOM     19  C   UNL     1     110.345 126.701 139.589  0.00  0.00    +0.000 C 
ATOM     20  C   UNL     1     110.160 127.449 139.291  0.00  0.00    +0.000 C 
BRANCH  20  22
ATOM     21  O   UNL     1     109.231 128.380 139.852  0.00  0.00    +0.000 OA
ATOM     22  C   UNL     1     109.391 127.739 139.355  0.00  0.00    +0.000 C 
ENDBRANCH  20  22
BRANCH  16  23
ATOM     23  O   UNL     1     112.469 126.577 139.100  0.00  0.00    +0.000 OA
BRANCH  23  28
ATOM     24  O   UNL     1     112.092 125.823 137.947  0.00  0.00    +0.000 OA
ATOM     25  O   UNL     1     114.037 126.106 138.897  0.00  0.00    +0.000 OA
ATOM     26  O   UNL     1     114.445 125.116 137.641  0.00  0.00    +0.000 OA
ATOM     27  O   UNL     1     113.284 124.597 136.589  0.00  0.00    +0.000 OA
ATOM     28  C   UNL     1     112.673 126.082 138.473  0.00  0.00    +0.000 C 
ATOM     29  C   UNL     1     113.457 125.846 138.371  0.00  0.00    +0.000 C 
ATOM     30  C   UNL     1     113.661 125.352 137.743  0.00  0.00    +0.000 C 
ATOM     31  C   UNL     1     113.080 125.092 137.218  0.00  0.00    +0.000 C 
ATOM     32  C   UNL     1     112.296 125.327 137.319  0.00  0.00    +0.000 C 
ATOM     33  C   UNL     1     111.716 125.068 136.793  0.00  0.00    +0.000 C 
ENDBRANCH  23  28
ENDBRANCH  16  23
ENDBRANCH  12  17
ENDBRANCH   5  12
ENDBRANCH   1   7
BRANCH   1  37
ATOM     34  O   UNL     1     113.378 130.493 141.184  0.00  0.00    +0.000 OA
ATOM     35  O   UNL     1     114.130 129.359 139.116  0.00  0.00    +0.000 OA
ATOM     36  O   UNL     1     115.170 130.335 139.947  0.00  0.00    +0.000 OA
ATOM     37  C   UNL     1     113.109 129.627 140.079  0.00  0.00    +0.000 C 
ATOM     38  C   UNL     1     113.879 129.737 139.806  0.00  0.00    +0.000 C 
ATOM     39  C   UNL     1     114.399 130.225 140.221  0.00  0.00    +0.000 C 
ATOM     40  C   UNL     1     112.858 130.005 140.769  0.00  0.00    +0.000 C 
ATOM     41  C   UNL     1     114.148 130.602 140.910  0.00  0.00    +0.000 C 
BRANCH  41  43
ATOM     42  O   UNL     1     114.410 131.818 141.614  0.00  0.00    +0.000 OA
ATOM     43  C   UNL     1     114.668 131.090 141.325  0.00  0.00    +0.000 C 
ENDBRANCH  41  43
BRANCH  40  44
ATOM     44  O   UNL     1     112.088 129.895 141.042  0.00  0.00    +0.000 OA
BRANCH  44  48
ATOM     45  O   UNL     1     111.459 130.915 143.697  0.00  0.00    +0.000 OA
ATOM     46  O   UNL     1     111.871 128.081 143.320  0.00  0.00    +0.000 OA
ATOM     47  O   UNL     1     111.558 128.621 144.620  0.00  0.00    +0.000 OA
ATOM     48  C   UNL     1     111.950 129.764 141.846  0.00  0.00    +0.000 A 
ATOM     49  C   UNL     1     111.772 130.424 142.366  0.00  0.00    +0.000 A 
ATOM     50  C   UNL     1     111.985 128.968 142.165  0.00  0.00    +0.000 A 
ATOM     51  C   UNL     1     111.630 130.278 143.201  0.00  0.00    +0.000 A 
ATOM     52  C   UNL     1     111.840 128.841 143.004  0.00  0.00    +0.000 A 
ATOM     53  C   UNL     1     111.663 129.513 143.509  0.00  0.00    +0.000 A 
ATOM     54  C   UNL     1     111.525 129.386 144.313  0.00  0.00    +0.000 A 
ATOM     55  C   UNL     1     111.321 130.787 144.500  0.00  0.00    +0.000 A 
ATOM     56  C   UNL     1     111.354 130.023 144.808  0.00  0.00    +0.000 A 
BRANCH  55  57
ATOM     57  C   UNL     1     111.150 131.424 144.995  0.00  0.00    +0.000 A 
ATOM     58  C   UNL     1     110.370 131.669 145.100  0.00  0.00    +0.000 A 
ATOM     59  C   UNL     1     111.762 131.818 145.387  0.00  0.00    +0.000 A 
ATOM     60  C   UNL     1     110.199 132.305 145.595  0.00  0.00    +0.000 A 
ATOM     61  C   UNL     1     111.591 132.455 145.883  0.00  0.00    +0.000 A 
ATOM     62  C   UNL     1     110.809 132.698 145.987  0.00  0.00    +0.000 A 
BRANCH  62  63
ATOM     63  O   UNL     1     110.638 133.336 146.482  0.00  0.00    +0.000 OA
ATOM     64  C   UNL     1     110.028 133.277 147.035  0.00  0.00    +0.000 C 
ENDBRANCH  62  63
ENDBRANCH  55  57
ENDBRANCH  44  48
ENDBRANCH  40  44
ENDBRANCH   1  37
TORSDOF 13
ENDMDL
MODEL 8
REMARK VINA RESULT:     -10.1      1.821      3.586
REMARK  Name = 44257902
REMARK  13 active torsions:
REMARK  status: ('A' for Active; 'I' for Inactive)
REMARK    1  A    between atoms: O_1  and  C_25
REMARK    2  A    between atoms: O_1  and  C_27
REMARK    3  A    between atoms: O_4  and  C_29
REMARK    4  A    between atoms: O_4  and  C_35
REMARK    5  A    between atoms: O_5  and  C_26
REMARK    6  A    between atoms: O_5  and  C_37
REMARK    7  A    between atoms: O_13  and  C_39
REMARK    8  A    between atoms: O_13  and  C_49
REMARK    9  A    between atoms: O_24  and  C_63
REMARK   10  A    between atoms: C_33  and  C_45
REMARK   11  A    between atoms: C_34  and  C_46
REMARK   12  A    between atoms: C_41  and  C_47
REMARK   13  A    between atoms: C_56  and  C_58
REMARK                            x       y       z     vdW  Elec       q    Type
REMARK                         _______ _______ _______ _____ _____    ______ ____
ROOT
ATOM      1  O   UNL     1     111.811 129.120 140.902  0.00  0.00    +0.000 OA
ENDROOT
BRANCH   1   7
ATOM      2  O   UNL     1     112.493 130.143 141.630  0.00  0.00    +0.000 OA
ATOM      3  O   UNL     1     110.361 130.799 142.703  0.00  0.00    +0.000 OA
ATOM      4  O   UNL     1     111.753 131.604 143.074  0.00  0.00    +0.000 OA
ATOM      5  C   UNL     1     111.087 129.960 141.803  0.00  0.00    +0.000 C 
ATOM      6  C   UNL     1     111.071 130.580 142.345  0.00  0.00    +0.000 C 
ATOM      7  C   UNL     1     111.797 129.741 141.445  0.00  0.00    +0.000 C 
ATOM      8  C   UNL     1     111.768 130.983 142.531  0.00  0.00    +0.000 C 
ATOM      9  C   UNL     1     112.479 130.764 142.173  0.00  0.00    +0.000 C 
BRANCH   9  11
ATOM     10  O   UNL     1     113.644 131.477 141.757  0.00  0.00    +0.000 OA
ATOM     11  C   UNL     1     113.174 131.167 142.359  0.00  0.00    +0.000 C 
ENDBRANCH   9  11
BRANCH   5  12
ATOM     12  O   UNL     1     110.390 129.557 141.617  0.00  0.00    +0.000 OA
BRANCH  12  17
ATOM     13  O   UNL     1     110.075 130.504 140.595  0.00  0.00    +0.000 OA
ATOM     14  O   UNL     1     107.733 129.700 140.574  0.00  0.00    +0.000 OA
ATOM     15  O   UNL     1     108.197 130.914 139.559  0.00  0.00    +0.000 OA
ATOM     16  C   UNL     1     109.062 129.628 141.096  0.00  0.00    +0.000 C 
ATOM     17  C   UNL     1     109.842 129.896 141.102  0.00  0.00    +0.000 C 
ATOM     18  C   UNL     1     108.514 129.968 140.581  0.00  0.00    +0.000 C 
ATOM     19  C   UNL     1     108.745 130.575 140.073  0.00  0.00    +0.000 C 
ATOM     20  C   UNL     1     109.526 130.843 140.080  0.00  0.00    +0.000 C 
BRANCH  20  22
ATOM     21  O   UNL     1     110.240 131.283 138.923  0.00  0.00    +0.000 OA
ATOM     22  C   UNL     1     109.758 131.450 139.572  0.00  0.00    +0.000 C 
ENDBRANCH  20  22
BRANCH  16  23
ATOM     23  O   UNL     1     108.830 129.021 141.604  0.00  0.00    +0.000 OA
BRANCH  23  28
ATOM     24  O   UNL     1     109.080 128.063 140.574  0.00  0.00    +0.000 OA
ATOM     25  O   UNL     1     108.358 127.808 142.618  0.00  0.00    +0.000 OA
ATOM     26  O   UNL     1     108.373 126.243 142.095  0.00  0.00    +0.000 OA
ATOM     27  O   UNL     1     108.858 125.891 140.558  0.00  0.00    +0.000 OA
ATOM     28  C   UNL     1     108.837 128.239 141.343  0.00  0.00    +0.000 C 
ATOM     29  C   UNL     1     108.601 127.632 141.849  0.00  0.00    +0.000 C 
ATOM     30  C   UNL     1     108.608 126.850 141.588  0.00  0.00    +0.000 C 
ATOM     31  C   UNL     1     108.851 126.674 140.820  0.00  0.00    +0.000 C 
ATOM     32  C   UNL     1     109.087 127.280 140.312  0.00  0.00    +0.000 C 
ATOM     33  C   UNL     1     109.330 127.104 139.544  0.00  0.00    +0.000 C 
ENDBRANCH  23  28
ENDBRANCH  16  23
ENDBRANCH  12  17
ENDBRANCH   5  12
ENDBRANCH   1   7
BRANCH   1  37
ATOM     34  O   UNL     1     113.677 128.354 140.065  0.00  0.00    +0.000 OA
ATOM     35  O   UNL     1     112.195 127.957 142.008  0.00  0.00    +0.000 OA
ATOM     36  O   UNL     1     113.567 127.059 141.820  0.00  0.00    +0.000 OA
ATOM     37  C   UNL     1     112.497 128.671 140.808  0.00  0.00    +0.000 C 
ATOM     38  C   UNL     1     112.690 128.090 141.360  0.00  0.00    +0.000 C 
ATOM     39  C   UNL     1     113.375 127.640 141.266  0.00  0.00    +0.000 C 
ATOM     40  C   UNL     1     112.991 128.803 140.159  0.00  0.00    +0.000 C 
ATOM     41  C   UNL     1     113.868 127.773 140.619  0.00  0.00    +0.000 C 
BRANCH  41  43
ATOM     42  O   UNL     1     114.582 126.728 139.954  0.00  0.00    +0.000 OA
ATOM     43  C   UNL     1     114.554 127.323 140.524  0.00  0.00    +0.000 C 
ENDBRANCH  41  43
BRANCH  40  44
ATOM     44  O   UNL     1     112.799 129.384 139.607  0.00  0.00    +0.000 OA
BRANCH  44  48
ATOM     45  O   UNL     1     112.079 127.961 137.169  0.00  0.00    +0.000 OA
ATOM     46  O   UNL     1     114.202 129.919 137.102  0.00  0.00    +0.000 OA
ATOM     47  O   UNL     1     113.819 129.195 135.915  0.00  0.00    +0.000 OA
ATOM     48  C   UNL     1     112.911 129.240 138.801  0.00  0.00    +0.000 A 
ATOM     49  C   UNL     1     112.425 128.661 138.394  0.00  0.00    +0.000 A 
ATOM     50  C   UNL     1     113.515 129.669 138.367  0.00  0.00    +0.000 A 
ATOM     51  C   UNL     1     112.549 128.518 137.555  0.00  0.00    +0.000 A 
ATOM     52  C   UNL     1     113.625 129.513 137.528  0.00  0.00    +0.000 A 
ATOM     53  C   UNL     1     113.129 128.930 137.137  0.00  0.00    +0.000 A 
ATOM     54  C   UNL     1     113.239 128.784 136.332  0.00  0.00    +0.000 A 
ATOM     55  C   UNL     1     112.189 127.816 136.364  0.00  0.00    +0.000 A 
ATOM     56  C   UNL     1     112.769 128.227 135.946  0.00  0.00    +0.000 A 
BRANCH  55  57
ATOM     57  C   UNL     1     111.719 127.259 135.978  0.00  0.00    +0.000 A 
ATOM     58  C   UNL     1     111.842 126.454 136.107  0.00  0.00    +0.000 A 
ATOM     59  C   UNL     1     111.126 127.508 135.461  0.00  0.00    +0.000 A 
ATOM     60  C   UNL     1     111.372 125.897 135.721  0.00  0.00    +0.000 A 
ATOM     61  C   UNL     1     110.656 126.951 135.074  0.00  0.00    +0.000 A 
ATOM     62  C   UNL     1     110.779 126.145 135.204  0.00  0.00    +0.000 A 
BRANCH  62  63
ATOM     63  O   UNL     1     110.309 125.588 134.818  0.00  0.00    +0.000 OA
ATOM     64  C   UNL     1     109.501 125.726 134.718  0.00  0.00    +0.000 C 
ENDBRANCH  62  63
ENDBRANCH  55  57
ENDBRANCH  44  48
ENDBRANCH  40  44
ENDBRANCH   1  37
TORSDOF 13
ENDMDL
MODEL 9
REMARK VINA RESULT:     -10.1      1.624      5.340
REMARK  Name = 44257902
REMARK  13 active torsions:
REMARK  status: ('A' for Active; 'I' for Inactive)
REMARK    1  A    between atoms: O_1  and  C_25
REMARK    2  A    between atoms: O_1  and  C_27
REMARK    3  A    between atoms: O_4  and  C_29
REMARK    4  A    between atoms: O_4  and  C_35
REMARK    5  A    between atoms: O_5  and  C_26
REMARK    6  A    between atoms: O_5  and  C_37
REMARK    7  A    between atoms: O_13  and  C_39
REMARK    8  A    between atoms: O_13  and  C_49
REMARK    9  A    between atoms: O_24  and  C_63
REMARK   10  A    between atoms: C_33  and  C_45
REMARK   11  A    between atoms: C_34  and  C_46
REMARK   12  A    between atoms: C_41  and  C_47
REMARK   13  A    between atoms: C_56  and  C_58
REMARK                            x       y       z     vdW  Elec       q    Type
REMARK                         _______ _______ _______ _____ _____    ______ ____
ROOT
ATOM      1  O   UNL     1     112.070 128.905 137.025  0.00  0.00    +0.000 OA
ENDROOT
BRANCH   1   7
ATOM      2  O   UNL     1     113.024 129.285 136.030  0.00  0.00    +0.000 OA
ATOM      3  O   UNL     1     114.033 127.028 136.136  0.00  0.00    +0.000 OA
ATOM      4  O   UNL     1     114.650 128.160 135.106  0.00  0.00    +0.000 OA
ATOM      5  C   UNL     1     113.052 127.967 136.580  0.00  0.00    +0.000 C 
ATOM      6  C   UNL     1     113.697 127.780 136.101  0.00  0.00    +0.000 C 
ATOM      7  C   UNL     1     112.715 128.719 136.545  0.00  0.00    +0.000 C 
ATOM      8  C   UNL     1     114.005 128.347 135.586  0.00  0.00    +0.000 C 
ATOM      9  C   UNL     1     113.669 129.099 135.550  0.00  0.00    +0.000 C 
BRANCH   9  11
ATOM     10  O   UNL     1     114.406 130.303 135.333  0.00  0.00    +0.000 OA
ATOM     11  C   UNL     1     113.977 129.665 135.036  0.00  0.00    +0.000 C 
ENDBRANCH   9  11
BRANCH   5  12
ATOM     12  O   UNL     1     112.743 127.400 137.095  0.00  0.00    +0.000 OA
BRANCH  12  17
ATOM     13  O   UNL     1     111.920 126.853 136.063  0.00  0.00    +0.000 OA
ATOM     14  O   UNL     1     111.631 124.784 137.393  0.00  0.00    +0.000 OA
ATOM     15  O   UNL     1     110.905 124.926 135.918  0.00  0.00    +0.000 OA
ATOM     16  C   UNL     1     112.188 126.093 137.244  0.00  0.00    +0.000 C 
ATOM     17  C   UNL     1     112.284 126.782 136.801  0.00  0.00    +0.000 C 
ATOM     18  C   UNL     1     111.728 125.474 136.949  0.00  0.00    +0.000 C 
ATOM     19  C   UNL     1     111.364 125.544 136.212  0.00  0.00    +0.000 C 
ATOM     20  C   UNL     1     111.461 126.234 135.769  0.00  0.00    +0.000 C 
BRANCH  20  22
ATOM     21  O   UNL     1     110.477 126.840 134.928  0.00  0.00    +0.000 OA
ATOM     22  C   UNL     1     111.097 126.304 135.032  0.00  0.00    +0.000 C 
ENDBRANCH  20  22
BRANCH  16  23
ATOM     23  O   UNL     1     112.551 126.022 137.981  0.00  0.00    +0.000 OA
BRANCH  23  28
ATOM     24  O   UNL     1     111.324 126.366 138.626  0.00  0.00    +0.000 OA
ATOM     25  O   UNL     1     113.327 126.059 139.437  0.00  0.00    +0.000 OA
ATOM     26  O   UNL     1     112.487 126.423 140.810  0.00  0.00    +0.000 OA
ATOM     27  O   UNL     1     110.872 126.749 140.728  0.00  0.00    +0.000 OA
ATOM     28  C   UNL     1     112.131 126.203 138.667  0.00  0.00    +0.000 C 
ATOM     29  C   UNL     1     112.519 126.222 139.396  0.00  0.00    +0.000 C 
ATOM     30  C   UNL     1     112.100 126.404 140.082  0.00  0.00    +0.000 C 
ATOM     31  C   UNL     1     111.292 126.567 140.041  0.00  0.00    +0.000 C 
ATOM     32  C   UNL     1     110.903 126.548 139.313  0.00  0.00    +0.000 C 
ATOM     33  C   UNL     1     110.096 126.711 139.272  0.00  0.00    +0.000 C 
ENDBRANCH  23  28
ENDBRANCH  16  23
ENDBRANCH  12  17
ENDBRANCH   5  12
ENDBRANCH   1   7
BRANCH   1  37
ATOM     34  O   UNL     1     112.089 130.877 137.963  0.00  0.00    +0.000 OA
ATOM     35  O   UNL     1     110.949 129.697 136.109  0.00  0.00    +0.000 OA
ATOM     36  O   UNL     1     110.587 131.274 136.429  0.00  0.00    +0.000 OA
ATOM     37  C   UNL     1     111.890 129.694 137.185  0.00  0.00    +0.000 C 
ATOM     38  C   UNL     1     111.329 130.090 136.727  0.00  0.00    +0.000 C 
ATOM     39  C   UNL     1     111.148 130.879 136.887  0.00  0.00    +0.000 C 
ATOM     40  C   UNL     1     112.270 130.088 137.803  0.00  0.00    +0.000 C 
ATOM     41  C   UNL     1     111.528 131.272 137.504  0.00  0.00    +0.000 C 
BRANCH  41  43
ATOM     42  O   UNL     1     110.886 132.254 138.320  0.00  0.00    +0.000 OA
ATOM     43  C   UNL     1     111.347 132.061 137.664  0.00  0.00    +0.000 C 
ENDBRANCH  41  43
BRANCH  40  44
ATOM     44  O   UNL     1     112.830 129.692 138.261  0.00  0.00    +0.000 OA
BRANCH  44  48
ATOM     45  O   UNL     1     112.130 129.810 141.085  0.00  0.00    +0.000 OA
ATOM     46  O   UNL     1     114.514 131.147 140.151  0.00  0.00    +0.000 OA
ATOM     47  O   UNL     1     114.136 131.184 141.543  0.00  0.00    +0.000 OA
ATOM     48  C   UNL     1     112.991 129.949 139.029  0.00  0.00    +0.000 A 
ATOM     49  C   UNL     1     112.464 129.741 139.674  0.00  0.00    +0.000 A 
ATOM     50  C   UNL     1     113.688 130.426 139.187  0.00  0.00    +0.000 A 
ATOM     51  C   UNL     1     112.640 130.013 140.469  0.00  0.00    +0.000 A 
ATOM     52  C   UNL     1     113.848 130.689 139.990  0.00  0.00    +0.000 A 
ATOM     53  C   UNL     1     113.309 130.471 140.622  0.00  0.00    +0.000 A 
ATOM     54  C   UNL     1     113.467 130.726 141.391  0.00  0.00    +0.000 A 
ATOM     55  C   UNL     1     112.289 130.066 141.853  0.00  0.00    +0.000 A 
ATOM     56  C   UNL     1     112.957 130.523 142.007  0.00  0.00    +0.000 A 
BRANCH  55  57
ATOM     57  C   UNL     1     111.778 129.863 142.469  0.00  0.00    +0.000 A 
ATOM     58  C   UNL     1     111.104 130.315 142.613  0.00  0.00    +0.000 A 
ATOM     59  C   UNL     1     111.943 129.206 142.942  0.00  0.00    +0.000 A 
ATOM     60  C   UNL     1     110.595 130.113 143.229  0.00  0.00    +0.000 A 
ATOM     61  C   UNL     1     111.433 129.003 143.558  0.00  0.00    +0.000 A 
ATOM     62  C   UNL     1     110.759 129.457 143.701  0.00  0.00    +0.000 A 
BRANCH  62  63
ATOM     63  O   UNL     1     110.248 129.254 144.317  0.00  0.00    +0.000 OA
ATOM     64  C   UNL     1     110.226 129.713 145.003  0.00  0.00    +0.000 C 
ENDBRANCH  62  63
ENDBRANCH  55  57
ENDBRANCH  44  48
ENDBRANCH  40  44
ENDBRANCH   1  37
TORSDOF 13
ENDMDL
MODEL 10
REMARK VINA RESULT:     -10.1      3.009      6.467
REMARK  Name = 44257902
REMARK  13 active torsions:
REMARK  status: ('A' for Active; 'I' for Inactive)
REMARK    1  A    between atoms: O_1  and  C_25
REMARK    2  A    between atoms: O_1  and  C_27
REMARK    3  A    between atoms: O_4  and  C_29
REMARK    4  A    between atoms: O_4  and  C_35
REMARK    5  A    between atoms: O_5  and  C_26
REMARK    6  A    between atoms: O_5  and  C_37
REMARK    7  A    between atoms: O_13  and  C_39
REMARK    8  A    between atoms: O_13  and  C_49
REMARK    9  A    between atoms: O_24  and  C_63
REMARK   10  A    between atoms: C_33  and  C_45
REMARK   11  A    between atoms: C_34  and  C_46
REMARK   12  A    between atoms: C_41  and  C_47
REMARK   13  A    between atoms: C_56  and  C_58
REMARK                            x       y       z     vdW  Elec       q    Type
REMARK                         _______ _______ _______ _____ _____    ______ ____
ROOT
ATOM      1  O   UNL     1     110.429 129.728 140.187  0.00  0.00    +0.000 OA
ENDROOT
BRANCH   1   7
ATOM      2  O   UNL     1     110.305 130.920 139.408  0.00  0.00    +0.000 OA
ATOM      3  O   UNL     1     111.809 129.957 137.694  0.00  0.00    +0.000 OA
ATOM      4  O   UNL     1     111.184 131.470 137.487  0.00  0.00    +0.000 OA
ATOM      5  C   UNL     1     111.119 129.843 138.941  0.00  0.00    +0.000 C 
ATOM      6  C   UNL     1     111.308 130.278 138.266  0.00  0.00    +0.000 C 
ATOM      7  C   UNL     1     110.617 130.164 139.512  0.00  0.00    +0.000 C 
ATOM      8  C   UNL     1     110.995 131.035 138.162  0.00  0.00    +0.000 C 
ATOM      9  C   UNL     1     110.493 131.356 138.733  0.00  0.00    +0.000 C 
BRANCH   9  11
ATOM     10  O   UNL     1     110.384 132.717 139.150  0.00  0.00    +0.000 OA
ATOM     11  C   UNL     1     110.181 132.112 138.629  0.00  0.00    +0.000 C 
ENDBRANCH   9  11
BRANCH   5  12
ATOM     12  O   UNL     1     111.432 129.087 139.044  0.00  0.00    +0.000 OA
BRANCH  12  17
ATOM     13  O   UNL     1     112.690 129.630 139.450  0.00  0.00    +0.000 OA
ATOM     14  O   UNL     1     113.345 127.425 140.366  0.00  0.00    +0.000 OA
ATOM     15  O   UNL     1     114.385 128.702 140.467  0.00  0.00    +0.000 OA
ATOM     16  C   UNL     1     112.388 128.256 139.705  0.00  0.00    +0.000 C 
ATOM     17  C   UNL     1     112.170 128.991 139.400  0.00  0.00    +0.000 C 
ATOM     18  C   UNL     1     113.126 128.160 140.060  0.00  0.00    +0.000 C 
ATOM     19  C   UNL     1     113.647 128.798 140.111  0.00  0.00    +0.000 C 
ATOM     20  C   UNL     1     113.428 129.534 139.806  0.00  0.00    +0.000 C 
BRANCH  20  22
ATOM     21  O   UNL     1     113.800 130.783 140.391  0.00  0.00    +0.000 OA
ATOM     22  C   UNL     1     113.948 130.172 139.856  0.00  0.00    +0.000 C 
ENDBRANCH  20  22
BRANCH  16  23
ATOM     23  O   UNL     1     111.869 127.617 139.655  0.00  0.00    +0.000 OA
BRANCH  23  28
ATOM     24  O   UNL     1     112.501 127.179 138.451  0.00  0.00    +0.000 OA
ATOM     25  O   UNL     1     111.029 126.199 139.731  0.00  0.00    +0.000 OA
ATOM     26  O   UNL     1     111.242 125.051 138.565  0.00  0.00    +0.000 OA
ATOM     27  O   UNL     1     112.293 125.321 137.323  0.00  0.00    +0.000 OA
ATOM     28  C   UNL     1     111.975 127.043 139.072  0.00  0.00    +0.000 C 
ATOM     29  C   UNL     1     111.555 126.334 139.110  0.00  0.00    +0.000 C 
ATOM     30  C   UNL     1     111.661 125.760 138.527  0.00  0.00    +0.000 C 
ATOM     31  C   UNL     1     112.187 125.896 137.906  0.00  0.00    +0.000 C 
ATOM     32  C   UNL     1     112.607 126.604 137.868  0.00  0.00    +0.000 C 
ATOM     33  C   UNL     1     113.133 126.740 137.247  0.00  0.00    +0.000 C 
ENDBRANCH  23  28
ENDBRANCH  16  23
ENDBRANCH  12  17
ENDBRANCH   5  12
ENDBRANCH   1   7
BRANCH   1  37
ATOM     34  O   UNL     1     109.193 130.527 141.800  0.00  0.00    +0.000 OA
ATOM     35  O   UNL     1     108.921 129.332 139.648  0.00  0.00    +0.000 OA
ATOM     36  O   UNL     1     107.594 129.731 140.544  0.00  0.00    +0.000 OA
ATOM     37  C   UNL     1     109.766 129.928 140.634  0.00  0.00    +0.000 C 
ATOM     38  C   UNL     1     109.011 129.730 140.366  0.00  0.00    +0.000 C 
ATOM     39  C   UNL     1     108.348 129.930 140.813  0.00  0.00    +0.000 C 
ATOM     40  C   UNL     1     109.856 130.327 141.352  0.00  0.00    +0.000 C 
ATOM     41  C   UNL     1     108.439 130.328 141.530  0.00  0.00    +0.000 C 
BRANCH  41  43
ATOM     42  O   UNL     1     107.606 131.320 142.134  0.00  0.00    +0.000 OA
ATOM     43  C   UNL     1     107.775 130.528 141.977  0.00  0.00    +0.000 C 
ENDBRANCH  41  43
BRANCH  40  44
ATOM     44  O   UNL     1     110.611 130.525 141.620  0.00  0.00    +0.000 OA
BRANCH  44  48
ATOM     45  O   UNL     1     111.042 131.435 144.353  0.00  0.00    +0.000 OA
ATOM     46  O   UNL     1     111.487 128.659 143.689  0.00  0.00    +0.000 OA
ATOM     47  O   UNL     1     111.691 129.145 145.032  0.00  0.00    +0.000 OA
ATOM     48  C   UNL     1     110.824 130.368 142.402  0.00  0.00    +0.000 A 
ATOM     49  C   UNL     1     110.822 130.999 142.986  0.00  0.00    +0.000 A 
ATOM     50  C   UNL     1     111.049 129.573 142.637  0.00  0.00    +0.000 A 
ATOM     51  C   UNL     1     111.046 130.826 143.797  0.00  0.00    +0.000 A 
ATOM     52  C   UNL     1     111.270 129.419 143.454  0.00  0.00    +0.000 A 
ATOM     53  C   UNL     1     111.262 130.062 144.023  0.00  0.00    +0.000 A 
ATOM     54  C   UNL     1     111.475 129.909 144.806  0.00  0.00    +0.000 A 
ATOM     55  C   UNL     1     111.255 131.281 145.135  0.00  0.00    +0.000 A 
ATOM     56  C   UNL     1     111.471 130.518 145.362  0.00  0.00    +0.000 A 
BRANCH  55  57
ATOM     57  C   UNL     1     111.252 131.890 145.691  0.00  0.00    +0.000 A 
ATOM     58  C   UNL     1     110.538 132.223 145.935  0.00  0.00    +0.000 A 
ATOM     59  C   UNL     1     111.964 132.168 146.004  0.00  0.00    +0.000 A 
ATOM     60  C   UNL     1     110.535 132.832 146.491  0.00  0.00    +0.000 A 
ATOM     61  C   UNL     1     111.961 132.777 146.560  0.00  0.00    +0.000 A 
ATOM     62  C   UNL     1     111.246 133.109 146.803  0.00  0.00    +0.000 A 
BRANCH  62  63
ATOM     63  O   UNL     1     111.243 133.719 147.360  0.00  0.00    +0.000 OA
ATOM     64  C   UNL     1     111.142 133.547 148.161  0.00  0.00    +0.000 C 
ENDBRANCH  62  63
ENDBRANCH  55  57
ENDBRANCH  44  48
ENDBRANCH  40  44
ENDBRANCH   1  37
TORSDOF 13
ENDMDL
