MODEL 1
REMARK VINA RESULT:      -9.6      0.000      0.000
REMARK  Name = 44256694
REMARK  3 active torsions:
REMARK  status: ('A' for Active; 'I' for Inactive)
REMARK    1  A    between atoms: O_2  and  C_13
REMARK    2  A    between atoms: O_2  and  C_15
REMARK    3  A    between atoms: C_16  and  C_20
REMARK                            x       y       z     vdW  Elec       q    Type
REMARK                         _______ _______ _______ _____ _____    ______ ____
ROOT
ATOM      1  O   UNL     1     105.527 124.442 147.763  0.00  0.00    +0.000 OA
ATOM      2  O   UNL     1     108.066 125.532 146.922  0.00  0.00    +0.000 OA
ATOM      3  O   UNL     1     107.777 124.433 149.612  0.00  0.00    +0.000 OA
ATOM      4  C   UNL     1     105.673 124.981 146.448  0.00  0.00    +0.000 A 
ATOM      5  C   UNL     1     105.205 124.622 147.025  0.00  0.00    +0.000 A 
ATOM      6  C   UNL     1     106.463 125.161 146.610  0.00  0.00    +0.000 A 
ATOM      7  C   UNL     1     106.783 124.981 147.349  0.00  0.00    +0.000 A 
ATOM      8  C   UNL     1     106.315 124.622 147.925  0.00  0.00    +0.000 A 
ATOM      9  C   UNL     1     107.606 125.173 147.505  0.00  0.00    +0.000 A 
ATOM     10  C   UNL     1     106.638 124.429 148.698  0.00  0.00    +0.000 A 
ATOM     11  C   UNL     1     107.946 124.988 148.272  0.00  0.00    +0.000 A 
ATOM     12  C   UNL     1     107.459 124.614 148.873  0.00  0.00    +0.000 A 
ENDROOT
BRANCH   5  14
ATOM     13  O   UNL     1     102.050 123.904 146.377  0.00  0.00    +0.000 OA
ATOM     14  C   UNL     1     104.417 124.443 146.863  0.00  0.00    +0.000 A 
ATOM     15  C   UNL     1     103.816 124.934 147.141  0.00  0.00    +0.000 A 
ATOM     16  C   UNL     1     104.229 123.771 146.423  0.00  0.00    +0.000 A 
ATOM     17  C   UNL     1     103.027 124.755 146.980  0.00  0.00    +0.000 A 
ATOM     18  C   UNL     1     103.440 123.591 146.260  0.00  0.00    +0.000 A 
ATOM     19  C   UNL     1     102.840 124.084 146.539  0.00  0.00    +0.000 A 
ENDBRANCH   5  14
BRANCH   4  20
ATOM     20  O   UNL     1     105.353 125.161 145.710  0.00  0.00    +0.000 OA
BRANCH  20  28
ATOM     21  O   UNL     1     105.602 126.564 145.597  0.00  0.00    +0.000 OA
ATOM     22  O   UNL     1     106.591 126.206 143.355  0.00  0.00    +0.000 OA
ATOM     23  O   UNL     1     106.011 124.923 144.216  0.00  0.00    +0.000 OA
ATOM     24  O   UNL     1     106.511 127.727 143.988  0.00  0.00    +0.000 OA
ATOM     25  C   UNL     1     106.261 126.325 144.103  0.00  0.00    +0.000 C 
ATOM     26  C   UNL     1     105.971 125.683 144.533  0.00  0.00    +0.000 C 
ATOM     27  C   UNL     1     106.221 127.086 144.418  0.00  0.00    +0.000 C 
ATOM     28  C   UNL     1     105.642 125.803 145.279  0.00  0.00    +0.000 C 
ATOM     29  C   UNL     1     105.892 127.205 145.166  0.00  0.00    +0.000 C 
ENDBRANCH  20  28
ENDBRANCH   4  20
TORSDOF 3
ENDMDL
MODEL 2
REMARK VINA RESULT:      -9.5     11.938     12.986
REMARK  Name = 44256694
REMARK  3 active torsions:
REMARK  status: ('A' for Active; 'I' for Inactive)
REMARK    1  A    between atoms: O_2  and  C_13
REMARK    2  A    between atoms: O_2  and  C_15
REMARK    3  A    between atoms: C_16  and  C_20
REMARK                            x       y       z     vdW  Elec       q    Type
REMARK                         _______ _______ _______ _____ _____    ______ ____
ROOT
ATOM      1  O   UNL     1     111.988 125.704 136.030  0.00  0.00    +0.000 OA
ATOM      2  O   UNL     1     110.590 128.154 135.405  0.00  0.00    +0.000 OA
ATOM      3  O   UNL     1     109.446 125.586 134.614  0.00  0.00    +0.000 OA
ATOM      4  C   UNL     1     112.544 126.963 136.415  0.00  0.00    +0.000 A 
ATOM      5  C   UNL     1     112.589 126.140 136.390  0.00  0.00    +0.000 A 
ATOM      6  C   UNL     1     111.896 127.351 136.080  0.00  0.00    +0.000 A 
ATOM      7  C   UNL     1     111.296 126.915 135.720  0.00  0.00    +0.000 A 
ATOM      8  C   UNL     1     111.342 126.092 135.695  0.00  0.00    +0.000 A 
ATOM      9  C   UNL     1     110.627 127.330 135.375  0.00  0.00    +0.000 A 
ATOM     10  C   UNL     1     110.722 125.626 135.323  0.00  0.00    +0.000 A 
ATOM     11  C   UNL     1     109.998 126.882 134.999  0.00  0.00    +0.000 A 
ATOM     12  C   UNL     1     110.046 126.024 134.973  0.00  0.00    +0.000 A 
ENDROOT
BRANCH   5  14
ATOM     13  O   UNL     1     115.177 124.590 137.729  0.00  0.00    +0.000 OA
ATOM     14  C   UNL     1     113.236 125.753 136.725  0.00  0.00    +0.000 A 
ATOM     15  C   UNL     1     113.250 125.595 137.535  0.00  0.00    +0.000 A 
ATOM     16  C   UNL     1     113.870 125.522 136.250  0.00  0.00    +0.000 A 
ATOM     17  C   UNL     1     113.896 125.208 137.869  0.00  0.00    +0.000 A 
ATOM     18  C   UNL     1     114.517 125.134 136.584  0.00  0.00    +0.000 A 
ATOM     19  C   UNL     1     114.530 124.978 137.394  0.00  0.00    +0.000 A 
ENDBRANCH   5  14
BRANCH   4  20
ATOM     20  O   UNL     1     113.144 127.399 136.775  0.00  0.00    +0.000 OA
BRANCH  20  28
ATOM     21  O   UNL     1     113.545 128.218 135.675  0.00  0.00    +0.000 OA
ATOM     22  O   UNL     1     113.611 130.191 137.168  0.00  0.00    +0.000 OA
ATOM     23  O   UNL     1     113.188 128.715 137.770  0.00  0.00    +0.000 OA
ATOM     24  O   UNL     1     113.990 130.353 135.570  0.00  0.00    +0.000 OA
ATOM     25  C   UNL     1     113.589 129.533 136.670  0.00  0.00    +0.000 C 
ATOM     26  C   UNL     1     113.378 128.795 136.971  0.00  0.00    +0.000 C 
ATOM     27  C   UNL     1     113.778 129.615 135.871  0.00  0.00    +0.000 C 
ATOM     28  C   UNL     1     113.356 128.138 136.474  0.00  0.00    +0.000 C 
ATOM     29  C   UNL     1     113.756 128.956 135.373  0.00  0.00    +0.000 C 
ENDBRANCH  20  28
ENDBRANCH   4  20
TORSDOF 3
ENDMDL
MODEL 3
REMARK VINA RESULT:      -9.3     11.051     13.035
REMARK  Name = 44256694
REMARK  3 active torsions:
REMARK  status: ('A' for Active; 'I' for Inactive)
REMARK    1  A    between atoms: O_2  and  C_13
REMARK    2  A    between atoms: O_2  and  C_15
REMARK    3  A    between atoms: C_16  and  C_20
REMARK                            x       y       z     vdW  Elec       q    Type
REMARK                         _______ _______ _______ _____ _____    ______ ____
ROOT
ATOM      1  O   UNL     1     114.087 127.547 136.179  0.00  0.00    +0.000 OA
ATOM      2  O   UNL     1     111.808 129.169 135.460  0.00  0.00    +0.000 OA
ATOM      3  O   UNL     1     114.510 130.177 135.004  0.00  0.00    +0.000 OA
ATOM      4  C   UNL     1     112.763 127.057 136.400  0.00  0.00    +0.000 A 
ATOM      5  C   UNL     1     113.580 126.952 136.445  0.00  0.00    +0.000 A 
ATOM      6  C   UNL     1     112.453 127.756 136.089  0.00  0.00    +0.000 A 
ATOM      7  C   UNL     1     112.961 128.349 135.823  0.00  0.00    +0.000 A 
ATOM      8  C   UNL     1     113.778 128.245 135.868  0.00  0.00    +0.000 A 
ATOM      9  C   UNL     1     112.626 129.073 135.501  0.00  0.00    +0.000 A 
ATOM     10  C   UNL     1     114.317 128.856 135.594  0.00  0.00    +0.000 A 
ATOM     11  C   UNL     1     113.149 129.694 135.222  0.00  0.00    +0.000 A 
ATOM     12  C   UNL     1     114.000 129.585 135.269  0.00  0.00    +0.000 A 
ENDROOT
BRANCH   5  14
ATOM     13  O   UNL     1     114.818 124.158 137.690  0.00  0.00    +0.000 OA
ATOM     14  C   UNL     1     113.889 126.255 136.756  0.00  0.00    +0.000 A 
ATOM     15  C   UNL     1     113.941 126.153 137.574  0.00  0.00    +0.000 A 
ATOM     16  C   UNL     1     114.148 125.656 136.250  0.00  0.00    +0.000 A 
ATOM     17  C   UNL     1     114.250 125.455 137.885  0.00  0.00    +0.000 A 
ATOM     18  C   UNL     1     114.458 124.957 136.562  0.00  0.00    +0.000 A 
ATOM     19  C   UNL     1     114.508 124.857 137.379  0.00  0.00    +0.000 A 
ENDBRANCH   5  14
BRANCH   4  20
ATOM     20  O   UNL     1     112.255 126.464 136.666  0.00  0.00    +0.000 OA
BRANCH  20  28
ATOM     21  O   UNL     1     111.517 126.187 135.475  0.00  0.00    +0.000 OA
ATOM     22  O   UNL     1     109.407 126.253 136.768  0.00  0.00    +0.000 OA
ATOM     23  O   UNL     1     110.849 126.508 137.528  0.00  0.00    +0.000 OA
ATOM     24  O   UNL     1     109.371 125.954 135.146  0.00  0.00    +0.000 OA
ATOM     25  C   UNL     1     110.111 126.231 136.337  0.00  0.00    +0.000 C 
ATOM     26  C   UNL     1     110.832 126.359 136.717  0.00  0.00    +0.000 C 
ATOM     27  C   UNL     1     110.092 126.082 135.526  0.00  0.00    +0.000 C 
ATOM     28  C   UNL     1     111.534 126.337 136.286  0.00  0.00    +0.000 C 
ATOM     29  C   UNL     1     110.796 126.060 135.095  0.00  0.00    +0.000 C 
ENDBRANCH  20  28
ENDBRANCH   4  20
TORSDOF 3
ENDMDL
MODEL 4
REMARK VINA RESULT:      -9.0      1.031      3.494
REMARK  Name = 44256694
REMARK  3 active torsions:
REMARK  status: ('A' for Active; 'I' for Inactive)
REMARK    1  A    between atoms: O_2  and  C_13
REMARK    2  A    between atoms: O_2  and  C_15
REMARK    3  A    between atoms: C_16  and  C_20
REMARK                            x       y       z     vdW  Elec       q    Type
REMARK                         _______ _______ _______ _____ _____    ______ ____
ROOT
ATOM      1  O   UNL     1     104.216 124.459 148.367  0.00  0.00    +0.000 OA
ATOM      2  O   UNL     1     102.793 124.241 145.863  0.00  0.00    +0.000 OA
ATOM      3  O   UNL     1     101.358 123.900 148.383  0.00  0.00    +0.000 OA
ATOM      4  C   UNL     1     104.914 124.625 147.131  0.00  0.00    +0.000 A 
ATOM      5  C   UNL     1     104.917 124.606 147.956  0.00  0.00    +0.000 A 
ATOM      6  C   UNL     1     104.211 124.498 146.717  0.00  0.00    +0.000 A 
ATOM      7  C   UNL     1     103.511 124.351 147.129  0.00  0.00    +0.000 A 
ATOM      8  C   UNL     1     103.514 124.332 147.954  0.00  0.00    +0.000 A 
ATOM      9  C   UNL     1     102.786 124.220 146.687  0.00  0.00    +0.000 A 
ATOM     10  C   UNL     1     102.791 124.180 148.394  0.00  0.00    +0.000 A 
ATOM     11  C   UNL     1     102.054 124.067 147.110  0.00  0.00    +0.000 A 
ATOM     12  C   UNL     1     102.057 124.046 147.969  0.00  0.00    +0.000 A 
ENDROOT
BRANCH   5  14
ATOM     13  O   UNL     1     107.727 125.116 149.609  0.00  0.00    +0.000 OA
ATOM     14  C   UNL     1     105.619 124.733 148.369  0.00  0.00    +0.000 A 
ATOM     15  C   UNL     1     106.152 124.113 148.478  0.00  0.00    +0.000 A 
ATOM     16  C   UNL     1     105.788 125.481 148.673  0.00  0.00    +0.000 A 
ATOM     17  C   UNL     1     106.854 124.240 148.890  0.00  0.00    +0.000 A 
ATOM     18  C   UNL     1     106.491 125.608 149.087  0.00  0.00    +0.000 A 
ATOM     19  C   UNL     1     107.024 124.988 149.195  0.00  0.00    +0.000 A 
ENDBRANCH   5  14
BRANCH   4  20
ATOM     20  O   UNL     1     105.613 124.772 146.719  0.00  0.00    +0.000 OA
BRANCH  20  28
ATOM     21  O   UNL     1     105.228 125.976 146.053  0.00  0.00    +0.000 OA
ATOM     22  O   UNL     1     106.318 125.176 143.979  0.00  0.00    +0.000 OA
ATOM     23  O   UNL     1     106.340 124.239 145.337  0.00  0.00    +0.000 OA
ATOM     24  O   UNL     1     105.569 126.646 144.003  0.00  0.00    +0.000 OA
ATOM     25  C   UNL     1     105.954 125.443 144.671  0.00  0.00    +0.000 C 
ATOM     26  C   UNL     1     105.965 124.974 145.350  0.00  0.00    +0.000 C 
ATOM     27  C   UNL     1     105.580 126.178 144.682  0.00  0.00    +0.000 C 
ATOM     28  C   UNL     1     105.602 125.241 146.040  0.00  0.00    +0.000 C 
ATOM     29  C   UNL     1     105.217 126.444 145.374  0.00  0.00    +0.000 C 
ENDBRANCH  20  28
ENDBRANCH   4  20
TORSDOF 3
ENDMDL
MODEL 5
REMARK VINA RESULT:      -9.0     11.386     12.593
REMARK  Name = 44256694
REMARK  3 active torsions:
REMARK  status: ('A' for Active; 'I' for Inactive)
REMARK    1  A    between atoms: O_2  and  C_13
REMARK    2  A    between atoms: O_2  and  C_15
REMARK    3  A    between atoms: C_16  and  C_20
REMARK                            x       y       z     vdW  Elec       q    Type
REMARK                         _______ _______ _______ _____ _____    ______ ____
ROOT
ATOM      1  O   UNL     1     113.729 126.761 136.785  0.00  0.00    +0.000 OA
ATOM      2  O   UNL     1     112.160 124.337 136.850  0.00  0.00    +0.000 OA
ATOM      3  O   UNL     1     115.022 124.231 137.418  0.00  0.00    +0.000 OA
ATOM      4  C   UNL     1     112.328 126.808 136.508  0.00  0.00    +0.000 A 
ATOM      5  C   UNL     1     113.053 127.193 136.589  0.00  0.00    +0.000 A 
ATOM      6  C   UNL     1     112.278 125.992 136.622  0.00  0.00    +0.000 A 
ATOM      7  C   UNL     1     112.954 125.562 136.817  0.00  0.00    +0.000 A 
ATOM      8  C   UNL     1     113.679 125.947 136.899  0.00  0.00    +0.000 A 
ATOM      9  C   UNL     1     112.890 124.712 136.934  0.00  0.00    +0.000 A 
ATOM     10  C   UNL     1     114.390 125.508 137.103  0.00  0.00    +0.000 A 
ATOM     11  C   UNL     1     113.590 124.259 137.138  0.00  0.00    +0.000 A 
ATOM     12  C   UNL     1     114.345 124.659 137.223  0.00  0.00    +0.000 A 
ENDROOT
BRANCH   5  14
ATOM     13  O   UNL     1     113.250 130.456 136.134  0.00  0.00    +0.000 OA
ATOM     14  C   UNL     1     113.102 128.008 136.475  0.00  0.00    +0.000 A 
ATOM     15  C   UNL     1     113.317 128.310 135.738  0.00  0.00    +0.000 A 
ATOM     16  C   UNL     1     112.937 128.522 137.099  0.00  0.00    +0.000 A 
ATOM     17  C   UNL     1     113.366 129.125 135.624  0.00  0.00    +0.000 A 
ATOM     18  C   UNL     1     112.987 129.339 136.985  0.00  0.00    +0.000 A 
ATOM     19  C   UNL     1     113.201 129.639 136.247  0.00  0.00    +0.000 A 
ENDBRANCH   5  14
BRANCH   4  20
ATOM     20  O   UNL     1     111.652 127.239 136.312  0.00  0.00    +0.000 OA
BRANCH  20  28
ATOM     21  O   UNL     1     111.205 126.506 135.169  0.00  0.00    +0.000 OA
ATOM     22  O   UNL     1     108.890 126.552 136.047  0.00  0.00    +0.000 OA
ATOM     23  O   UNL     1     110.109 127.269 136.897  0.00  0.00    +0.000 OA
ATOM     24  O   UNL     1     109.214 125.804 134.612  0.00  0.00    +0.000 OA
ATOM     25  C   UNL     1     109.663 126.537 135.754  0.00  0.00    +0.000 C 
ATOM     26  C   UNL     1     110.272 126.895 136.179  0.00  0.00    +0.000 C 
ATOM     27  C   UNL     1     109.824 126.163 135.037  0.00  0.00    +0.000 C 
ATOM     28  C   UNL     1     111.043 126.880 135.887  0.00  0.00    +0.000 C 
ATOM     29  C   UNL     1     110.596 126.147 134.745  0.00  0.00    +0.000 C 
ENDBRANCH  20  28
ENDBRANCH   4  20
TORSDOF 3
ENDMDL
MODEL 6
REMARK VINA RESULT:      -8.9      9.390     11.728
REMARK  Name = 44256694
REMARK  3 active torsions:
REMARK  status: ('A' for Active; 'I' for Inactive)
REMARK    1  A    between atoms: O_2  and  C_13
REMARK    2  A    between atoms: O_2  and  C_15
REMARK    3  A    between atoms: C_16  and  C_20
REMARK                            x       y       z     vdW  Elec       q    Type
REMARK                         _______ _______ _______ _____ _____    ______ ____
ROOT
ATOM      1  O   UNL     1     111.797 125.541 136.156  0.00  0.00    +0.000 OA
ATOM      2  O   UNL     1     109.482 126.810 137.328  0.00  0.00    +0.000 OA
ATOM      3  O   UNL     1     109.336 125.748 134.612  0.00  0.00    +0.000 OA
ATOM      4  C   UNL     1     111.863 126.062 137.485  0.00  0.00    +0.000 A 
ATOM      5  C   UNL     1     112.223 125.679 136.849  0.00  0.00    +0.000 A 
ATOM      6  C   UNL     1     111.077 126.307 137.428  0.00  0.00    +0.000 A 
ATOM      7  C   UNL     1     110.651 126.168 136.735  0.00  0.00    +0.000 A 
ATOM      8  C   UNL     1     111.011 125.785 136.099  0.00  0.00    +0.000 A 
ATOM      9  C   UNL     1     109.833 126.428 136.687  0.00  0.00    +0.000 A 
ATOM     10  C   UNL     1     110.578 125.635 135.371  0.00  0.00    +0.000 A 
ATOM     11  C   UNL     1     109.385 126.287 135.968  0.00  0.00    +0.000 A 
ATOM     12  C   UNL     1     109.760 125.888 135.306  0.00  0.00    +0.000 A 
ENDROOT
BRANCH   5  14
ATOM     13  O   UNL     1     115.367 124.701 137.078  0.00  0.00    +0.000 OA
ATOM     14  C   UNL     1     113.008 125.434 136.906  0.00  0.00    +0.000 A 
ATOM     15  C   UNL     1     113.190 124.701 137.238  0.00  0.00    +0.000 A 
ATOM     16  C   UNL     1     113.613 125.923 136.631  0.00  0.00    +0.000 A 
ATOM     17  C   UNL     1     113.975 124.457 137.295  0.00  0.00    +0.000 A 
ATOM     18  C   UNL     1     114.400 125.679 136.688  0.00  0.00    +0.000 A 
ATOM     19  C   UNL     1     114.580 124.945 137.020  0.00  0.00    +0.000 A 
ENDBRANCH   5  14
BRANCH   4  20
ATOM     20  O   UNL     1     112.288 126.201 138.178  0.00  0.00    +0.000 OA
BRANCH  20  28
ATOM     21  O   UNL     1     112.168 127.622 138.257  0.00  0.00    +0.000 OA
ATOM     22  O   UNL     1     111.673 127.444 140.676  0.00  0.00    +0.000 OA
ATOM     23  O   UNL     1     111.958 126.082 139.790  0.00  0.00    +0.000 OA
ATOM     24  O   UNL     1     111.717 128.925 139.949  0.00  0.00    +0.000 OA
ATOM     25  C   UNL     1     111.838 127.504 139.869  0.00  0.00    +0.000 C 
ATOM     26  C   UNL     1     111.981 126.822 139.426  0.00  0.00    +0.000 C 
ATOM     27  C   UNL     1     111.860 128.244 139.507  0.00  0.00    +0.000 C 
ATOM     28  C   UNL     1     112.146 126.882 138.621  0.00  0.00    +0.000 C 
ATOM     29  C   UNL     1     112.025 128.303 138.700  0.00  0.00    +0.000 C 
ENDBRANCH  20  28
ENDBRANCH   4  20
TORSDOF 3
ENDMDL
MODEL 7
REMARK VINA RESULT:      -8.9      8.839     10.885
REMARK  Name = 44256694
REMARK  3 active torsions:
REMARK  status: ('A' for Active; 'I' for Inactive)
REMARK    1  A    between atoms: O_2  and  C_13
REMARK    2  A    between atoms: O_2  and  C_15
REMARK    3  A    between atoms: C_16  and  C_20
REMARK                            x       y       z     vdW  Elec       q    Type
REMARK                         _______ _______ _______ _____ _____    ______ ____
ROOT
ATOM      1  O   UNL     1     113.843 126.239 138.655  0.00  0.00    +0.000 OA
ATOM      2  O   UNL     1     112.232 124.506 136.998  0.00  0.00    +0.000 OA
ATOM      3  O   UNL     1     115.132 124.549 136.665  0.00  0.00    +0.000 OA
ATOM      4  C   UNL     1     112.423 126.215 138.814  0.00  0.00    +0.000 A 
ATOM      5  C   UNL     1     113.162 126.509 139.035  0.00  0.00    +0.000 A 
ATOM      6  C   UNL     1     112.366 125.651 138.214  0.00  0.00    +0.000 A 
ATOM      7  C   UNL     1     113.047 125.382 137.835  0.00  0.00    +0.000 A 
ATOM      8  C   UNL     1     113.786 125.676 138.056  0.00  0.00    +0.000 A 
ATOM      9  C   UNL     1     112.975 124.794 137.212  0.00  0.00    +0.000 A 
ATOM     10  C   UNL     1     114.503 125.403 137.668  0.00  0.00    +0.000 A 
ATOM     11  C   UNL     1     113.681 124.510 136.813  0.00  0.00    +0.000 A 
ATOM     12  C   UNL     1     114.450 124.816 137.043  0.00  0.00    +0.000 A 
ENDROOT
BRANCH   5  14
ATOM     13  O   UNL     1     113.390 128.764 141.434  0.00  0.00    +0.000 OA
ATOM     14  C   UNL     1     113.219 127.072 139.634  0.00  0.00    +0.000 A 
ATOM     15  C   UNL     1     113.236 126.835 140.424  0.00  0.00    +0.000 A 
ATOM     16  C   UNL     1     113.259 127.874 139.444  0.00  0.00    +0.000 A 
ATOM     17  C   UNL     1     113.293 127.398 141.024  0.00  0.00    +0.000 A 
ATOM     18  C   UNL     1     113.316 128.438 140.044  0.00  0.00    +0.000 A 
ATOM     19  C   UNL     1     113.333 128.199 140.833  0.00  0.00    +0.000 A 
ENDBRANCH   5  14
BRANCH   4  20
ATOM     20  O   UNL     1     111.742 126.484 139.193  0.00  0.00    +0.000 OA
BRANCH  20  28
ATOM     21  O   UNL     1     111.035 126.984 138.057  0.00  0.00    +0.000 OA
ATOM     22  O   UNL     1     108.941 125.986 138.921  0.00  0.00    +0.000 OA
ATOM     23  O   UNL     1     110.346 125.818 139.769  0.00  0.00    +0.000 OA
ATOM     24  O   UNL     1     108.931 126.819 137.497  0.00  0.00    +0.000 OA
ATOM     25  C   UNL     1     109.639 126.319 138.633  0.00  0.00    +0.000 C 
ATOM     26  C   UNL     1     110.342 126.235 139.057  0.00  0.00    +0.000 C 
ATOM     27  C   UNL     1     109.634 126.735 137.921  0.00  0.00    +0.000 C 
ATOM     28  C   UNL     1     111.039 126.567 138.769  0.00  0.00    +0.000 C 
ATOM     29  C   UNL     1     110.332 127.068 137.633  0.00  0.00    +0.000 C 
ENDBRANCH  20  28
ENDBRANCH   4  20
TORSDOF 3
ENDMDL
MODEL 8
REMARK VINA RESULT:      -8.9      9.224     11.867
REMARK  Name = 44256694
REMARK  3 active torsions:
REMARK  status: ('A' for Active; 'I' for Inactive)
REMARK    1  A    between atoms: O_2  and  C_13
REMARK    2  A    between atoms: O_2  and  C_15
REMARK    3  A    between atoms: C_16  and  C_20
REMARK                            x       y       z     vdW  Elec       q    Type
REMARK                         _______ _______ _______ _____ _____    ______ ____
ROOT
ATOM      1  O   UNL     1     113.014 126.805 136.379  0.00  0.00    +0.000 OA
ATOM      2  O   UNL     1     113.123 129.159 138.049  0.00  0.00    +0.000 OA
ATOM      3  O   UNL     1     113.723 129.371 135.200  0.00  0.00    +0.000 OA
ATOM      4  C   UNL     1     112.721 126.706 137.774  0.00  0.00    +0.000 A 
ATOM      5  C   UNL     1     112.800 126.350 137.034  0.00  0.00    +0.000 A 
ATOM      6  C   UNL     1     112.855 127.516 137.859  0.00  0.00    +0.000 A 
ATOM      7  C   UNL     1     113.068 127.970 137.204  0.00  0.00    +0.000 A 
ATOM      8  C   UNL     1     113.147 127.614 136.464  0.00  0.00    +0.000 A 
ATOM      9  C   UNL     1     113.205 128.812 137.305  0.00  0.00    +0.000 A 
ATOM     10  C   UNL     1     113.369 128.076 135.774  0.00  0.00    +0.000 A 
ATOM     11  C   UNL     1     113.427 129.290 136.627  0.00  0.00    +0.000 A 
ATOM     12  C   UNL     1     113.510 128.920 135.856  0.00  0.00    +0.000 A 
ENDROOT
BRANCH   5  14
ATOM     13  O   UNL     1     112.264 123.112 136.694  0.00  0.00    +0.000 OA
ATOM     14  C   UNL     1     112.666 125.541 136.949  0.00  0.00    +0.000 A 
ATOM     15  C   UNL     1     113.298 125.012 136.986  0.00  0.00    +0.000 A 
ATOM     16  C   UNL     1     111.900 125.261 136.827  0.00  0.00    +0.000 A 
ATOM     17  C   UNL     1     113.164 124.203 136.901  0.00  0.00    +0.000 A 
ATOM     18  C   UNL     1     111.766 124.450 136.742  0.00  0.00    +0.000 A 
ATOM     19  C   UNL     1     112.398 123.922 136.779  0.00  0.00    +0.000 A 
ENDBRANCH   5  14
BRANCH   4  20
ATOM     20  O   UNL     1     112.507 126.253 138.429  0.00  0.00    +0.000 OA
BRANCH  20  28
ATOM     21  O   UNL     1     113.588 126.606 139.294  0.00  0.00    +0.000 OA
ATOM     22  O   UNL     1     112.014 126.757 141.199  0.00  0.00    +0.000 OA
ATOM     23  O   UNL     1     111.458 126.354 139.699  0.00  0.00    +0.000 OA
ATOM     24  O   UNL     1     113.620 127.060 141.430  0.00  0.00    +0.000 OA
ATOM     25  C   UNL     1     112.539 126.707 140.563  0.00  0.00    +0.000 C 
ATOM     26  C   UNL     1     112.261 126.505 139.813  0.00  0.00    +0.000 C 
ATOM     27  C   UNL     1     113.341 126.858 140.679  0.00  0.00    +0.000 C 
ATOM     28  C   UNL     1     112.785 126.455 139.179  0.00  0.00    +0.000 C 
ATOM     29  C   UNL     1     113.867 126.808 140.044  0.00  0.00    +0.000 C 
ENDBRANCH  20  28
ENDBRANCH   4  20
TORSDOF 3
ENDMDL
MODEL 9
REMARK VINA RESULT:      -8.9     11.268     12.566
REMARK  Name = 44256694
REMARK  3 active torsions:
REMARK  status: ('A' for Active; 'I' for Inactive)
REMARK    1  A    between atoms: O_2  and  C_13
REMARK    2  A    between atoms: O_2  and  C_15
REMARK    3  A    between atoms: C_16  and  C_20
REMARK                            x       y       z     vdW  Elec       q    Type
REMARK                         _______ _______ _______ _____ _____    ______ ____
ROOT
ATOM      1  O   UNL     1     112.817 126.739 136.596  0.00  0.00    +0.000 OA
ATOM      2  O   UNL     1     110.457 125.467 135.519  0.00  0.00    +0.000 OA
ATOM      3  O   UNL     1     112.605 123.835 136.637  0.00  0.00    +0.000 OA
ATOM      4  C   UNL     1     111.763 127.534 136.048  0.00  0.00    +0.000 A 
ATOM      5  C   UNL     1     112.503 127.479 136.408  0.00  0.00    +0.000 A 
ATOM      6  C   UNL     1     111.336 126.848 135.876  0.00  0.00    +0.000 A 
ATOM      7  C   UNL     1     111.651 126.109 136.064  0.00  0.00    +0.000 A 
ATOM      8  C   UNL     1     112.391 126.055 136.424  0.00  0.00    +0.000 A 
ATOM      9  C   UNL     1     111.197 125.403 135.880  0.00  0.00    +0.000 A 
ATOM     10  C   UNL     1     112.728 125.290 136.625  0.00  0.00    +0.000 A 
ATOM     11  C   UNL     1     111.518 124.630 136.073  0.00  0.00    +0.000 A 
ATOM     12  C   UNL     1     112.289 124.573 136.448  0.00  0.00    +0.000 A 
ENDROOT
BRANCH   5  14
ATOM     13  O   UNL     1     114.209 130.219 137.096  0.00  0.00    +0.000 OA
ATOM     14  C   UNL     1     112.929 128.164 136.580  0.00  0.00    +0.000 A 
ATOM     15  C   UNL     1     112.881 128.503 137.331  0.00  0.00    +0.000 A 
ATOM     16  C   UNL     1     113.404 128.510 136.002  0.00  0.00    +0.000 A 
ATOM     17  C   UNL     1     113.307 129.187 137.503  0.00  0.00    +0.000 A 
ATOM     18  C   UNL     1     113.831 129.196 136.174  0.00  0.00    +0.000 A 
ATOM     19  C   UNL     1     113.782 129.534 136.924  0.00  0.00    +0.000 A 
ENDBRANCH   5  14
BRANCH   4  20
ATOM     20  O   UNL     1     111.449 128.273 135.860  0.00  0.00    +0.000 OA
BRANCH  20  28
ATOM     21  O   UNL     1     110.204 128.139 136.548  0.00  0.00    +0.000 OA
ATOM     22  O   UNL     1     109.048 129.274 134.676  0.00  0.00    +0.000 OA
ATOM     23  O   UNL     1     110.679 129.029 134.612  0.00  0.00    +0.000 OA
ATOM     24  O   UNL     1     108.188 128.762 135.988  0.00  0.00    +0.000 OA
ATOM     25  C   UNL     1     109.434 128.895 135.300  0.00  0.00    +0.000 C 
ATOM     26  C   UNL     1     110.249 128.773 135.269  0.00  0.00    +0.000 C 
ATOM     27  C   UNL     1     109.003 128.640 135.956  0.00  0.00    +0.000 C 
ATOM     28  C   UNL     1     110.634 128.395 135.892  0.00  0.00    +0.000 C 
ATOM     29  C   UNL     1     109.389 128.262 136.580  0.00  0.00    +0.000 C 
ENDBRANCH  20  28
ENDBRANCH   4  20
TORSDOF 3
ENDMDL
MODEL 10
REMARK VINA RESULT:      -8.8      9.013     11.566
REMARK  Name = 44256694
REMARK  3 active torsions:
REMARK  status: ('A' for Active; 'I' for Inactive)
REMARK    1  A    between atoms: O_2  and  C_13
REMARK    2  A    between atoms: O_2  and  C_15
REMARK    3  A    between atoms: C_16  and  C_20
REMARK                            x       y       z     vdW  Elec       q    Type
REMARK                         _______ _______ _______ _____ _____    ______ ____
ROOT
ATOM      1  O   UNL     1     112.885 126.045 138.537  0.00  0.00    +0.000 OA
ATOM      2  O   UNL     1     110.026 126.405 138.727  0.00  0.00    +0.000 OA
ATOM      3  O   UNL     1     111.714 126.935 141.050  0.00  0.00    +0.000 OA
ATOM      4  C   UNL     1     112.055 125.786 137.403  0.00  0.00    +0.000 A 
ATOM      5  C   UNL     1     112.804 125.813 137.749  0.00  0.00    +0.000 A 
ATOM      6  C   UNL     1     111.388 125.992 137.845  0.00  0.00    +0.000 A 
ATOM      7  C   UNL     1     111.471 126.223 138.632  0.00  0.00    +0.000 A 
ATOM      8  C   UNL     1     112.220 126.250 138.978  0.00  0.00    +0.000 A 
ATOM      9  C   UNL     1     110.770 126.434 139.082  0.00  0.00    +0.000 A 
ATOM     10  C   UNL     1     112.319 126.489 139.798  0.00  0.00    +0.000 A 
ATOM     11  C   UNL     1     110.849 126.676 139.902  0.00  0.00    +0.000 A 
ATOM     12  C   UNL     1     111.629 126.704 140.263  0.00  0.00    +0.000 A 
ENDROOT
BRANCH   5  14
ATOM     13  O   UNL     1     115.468 124.992 135.983  0.00  0.00    +0.000 OA
ATOM     14  C   UNL     1     113.469 125.608 137.308  0.00  0.00    +0.000 A 
ATOM     15  C   UNL     1     113.911 126.194 136.930  0.00  0.00    +0.000 A 
ATOM     16  C   UNL     1     113.694 124.817 137.244  0.00  0.00    +0.000 A 
ATOM     17  C   UNL     1     114.576 125.989 136.488  0.00  0.00    +0.000 A 
ATOM     18  C   UNL     1     114.361 124.611 136.802  0.00  0.00    +0.000 A 
ATOM     19  C   UNL     1     114.801 125.198 136.425  0.00  0.00    +0.000 A 
ENDBRANCH   5  14
BRANCH   4  20
ATOM     20  O   UNL     1     111.972 125.555 136.616  0.00  0.00    +0.000 OA
BRANCH  20  28
ATOM     21  O   UNL     1     111.375 126.742 136.092  0.00  0.00    +0.000 OA
ATOM     22  O   UNL     1     109.788 125.364 134.783  0.00  0.00    +0.000 OA
ATOM     23  O   UNL     1     110.915 124.637 135.744  0.00  0.00    +0.000 OA
ATOM     24  O   UNL     1     109.719 127.011 134.694  0.00  0.00    +0.000 OA
ATOM     25  C   UNL     1     110.317 125.824 135.219  0.00  0.00    +0.000 C 
ATOM     26  C   UNL     1     110.881 125.460 135.700  0.00  0.00    +0.000 C 
ATOM     27  C   UNL     1     110.282 126.647 135.175  0.00  0.00    +0.000 C 
ATOM     28  C   UNL     1     111.409 125.919 136.136  0.00  0.00    +0.000 C 
ATOM     29  C   UNL     1     110.811 127.106 135.611  0.00  0.00    +0.000 C 
ENDBRANCH  20  28
ENDBRANCH   4  20
TORSDOF 3
ENDMDL
