MODEL 1
REMARK VINA RESULT:     -10.1      0.000      0.000
REMARK  Name = 44258273
REMARK  8 active torsions:
REMARK  status: ('A' for Active; 'I' for Inactive)
REMARK    1  A    between atoms: O_3  and  C_22
REMARK    2  A    between atoms: O_3  and  C_27
REMARK    3  A    between atoms: O_6  and  C_25
REMARK    4  A    between atoms: O_6  and  C_29
REMARK    5  A    between atoms: O_14  and  C_41
REMARK    6  A    between atoms: O_15  and  C_42
REMARK    7  A    between atoms: C_17  and  C_27
REMARK    8  A    between atoms: C_36  and  C_38
REMARK                            x       y       z     vdW  Elec       q    Type
REMARK                         _______ _______ _______ _____ _____    ______ ____
ROOT
ATOM      1  O   UNL     1     112.954 127.524 137.393  0.00  0.00    +0.000 OA
ATOM      2  O   UNL     1     113.591 130.026 136.096  0.00  0.00    +0.000 OA
ATOM      3  O   UNL     1     113.593 128.785 135.362  0.00  0.00    +0.000 OA
ATOM      4  C   UNL     1     113.042 129.596 138.225  0.00  0.00    +0.000 A 
ATOM      5  C   UNL     1     112.937 128.744 138.180  0.00  0.00    +0.000 A 
ATOM      6  C   UNL     1     113.263 130.034 137.520  0.00  0.00    +0.000 A 
ATOM      7  C   UNL     1     113.056 128.342 137.430  0.00  0.00    +0.000 A 
ATOM      8  C   UNL     1     113.378 129.614 136.779  0.00  0.00    +0.000 A 
ATOM      9  C   UNL     1     113.269 128.762 136.753  0.00  0.00    +0.000 A 
ATOM     10  C   UNL     1     113.380 128.365 136.039  0.00  0.00    +0.000 A 
ATOM     11  C   UNL     1     113.066 127.127 136.678  0.00  0.00    +0.000 A 
ATOM     12  C   UNL     1     113.279 127.547 136.001  0.00  0.00    +0.000 A 
ENDROOT
BRANCH  11  14
ATOM     13  O   UNL     1     112.660 123.855 136.529  0.00  0.00    +0.000 OA
ATOM     14  C   UNL     1     112.964 126.309 136.641  0.00  0.00    +0.000 A 
ATOM     15  C   UNL     1     113.603 125.807 136.782  0.00  0.00    +0.000 A 
ATOM     16  C   UNL     1     112.223 125.993 136.462  0.00  0.00    +0.000 A 
ATOM     17  C   UNL     1     112.122 125.174 136.425  0.00  0.00    +0.000 A 
ATOM     18  C   UNL     1     113.503 124.989 136.745  0.00  0.00    +0.000 A 
ATOM     19  C   UNL     1     112.762 124.673 136.567  0.00  0.00    +0.000 A 
BRANCH  17  20
ATOM     20  O   UNL     1     111.382 124.858 136.247  0.00  0.00    +0.000 OA
ATOM     21  C   UNL     1     110.877 125.257 135.730  0.00  0.00    +0.000 C 
ENDBRANCH  17  20
BRANCH  18  22
ATOM     22  O   UNL     1     114.142 124.487 136.886  0.00  0.00    +0.000 OA
ATOM     23  C   UNL     1     114.735 124.714 137.412  0.00  0.00    +0.000 C 
ENDBRANCH  18  22
ENDBRANCH  11  14
BRANCH   4  24
ATOM     24  O   UNL     1     112.930 129.991 138.941  0.00  0.00    +0.000 OA
BRANCH  24  33
ATOM     25  O   UNL     1     111.542 130.234 138.705  0.00  0.00    +0.000 OA
ATOM     26  O   UNL     1     109.877 130.481 140.096  0.00  0.00    +0.000 OA
ATOM     27  O   UNL     1     111.127 130.239 141.146  0.00  0.00    +0.000 OA
ATOM     28  O   UNL     1     112.654 129.994 140.568  0.00  0.00    +0.000 OA
ATOM     29  C   UNL     1     110.779 130.357 138.993  0.00  0.00    +0.000 C 
ATOM     30  C   UNL     1     110.640 130.358 139.807  0.00  0.00    +0.000 C 
ATOM     31  C   UNL     1     111.266 130.237 140.332  0.00  0.00    +0.000 C 
ATOM     32  C   UNL     1     112.029 130.115 140.043  0.00  0.00    +0.000 C 
ATOM     33  C   UNL     1     112.167 130.113 139.230  0.00  0.00    +0.000 C 
BRANCH  29  34
ATOM     34  C   UNL     1     110.153 130.478 138.469  0.00  0.00    +0.000 C 
BRANCH  34  35
ATOM     35  O   UNL     1     109.999 129.926 137.876  0.00  0.00    +0.000 OA
BRANCH  35  41
ATOM     36  O   UNL     1     109.125 130.855 137.232  0.00  0.00    +0.000 OA
ATOM     37  O   UNL     1     109.551 128.759 136.800  0.00  0.00    +0.000 OA
ATOM     38  O   UNL     1     108.452 129.104 135.618  0.00  0.00    +0.000 OA
ATOM     39  O   UNL     1     107.802 130.617 135.512  0.00  0.00    +0.000 OA
ATOM     40  C   UNL     1     109.225 129.516 136.747  0.00  0.00    +0.000 C 
ATOM     41  C   UNL     1     109.449 130.100 137.285  0.00  0.00    +0.000 C 
ATOM     42  C   UNL     1     108.676 129.688 136.156  0.00  0.00    +0.000 C 
ATOM     43  C   UNL     1     108.351 130.444 136.104  0.00  0.00    +0.000 C 
ATOM     44  C   UNL     1     108.576 131.028 136.642  0.00  0.00    +0.000 C 
ATOM     45  C   UNL     1     108.250 131.784 136.588  0.00  0.00    +0.000 C 
ENDBRANCH  35  41
ENDBRANCH  34  35
ENDBRANCH  29  34
ENDBRANCH  24  33
ENDBRANCH   4  24
TORSDOF 8
ENDMDL
MODEL 2
REMARK VINA RESULT:     -10.1      1.486      5.064
REMARK  Name = 44258273
REMARK  8 active torsions:
REMARK  status: ('A' for Active; 'I' for Inactive)
REMARK    1  A    between atoms: O_3  and  C_22
REMARK    2  A    between atoms: O_3  and  C_27
REMARK    3  A    between atoms: O_6  and  C_25
REMARK    4  A    between atoms: O_6  and  C_29
REMARK    5  A    between atoms: O_14  and  C_41
REMARK    6  A    between atoms: O_15  and  C_42
REMARK    7  A    between atoms: C_17  and  C_27
REMARK    8  A    between atoms: C_36  and  C_38
REMARK                            x       y       z     vdW  Elec       q    Type
REMARK                         _______ _______ _______ _____ _____    ______ ____
ROOT
ATOM      1  O   UNL     1     110.982 129.683 137.403  0.00  0.00    +0.000 OA
ATOM      2  O   UNL     1     113.746 129.474 136.586  0.00  0.00    +0.000 OA
ATOM      3  O   UNL     1     112.698 129.691 135.619  0.00  0.00    +0.000 OA
ATOM      4  C   UNL     1     112.824 129.353 138.624  0.00  0.00    +0.000 A 
ATOM      5  C   UNL     1     111.998 129.465 138.418  0.00  0.00    +0.000 A 
ATOM      6  C   UNL     1     113.420 129.356 138.005  0.00  0.00    +0.000 A 
ATOM      7  C   UNL     1     111.778 129.577 137.595  0.00  0.00    +0.000 A 
ATOM      8  C   UNL     1     113.181 129.470 137.187  0.00  0.00    +0.000 A 
ATOM      9  C   UNL     1     112.350 129.580 137.001  0.00  0.00    +0.000 A 
ATOM     10  C   UNL     1     112.127 129.688 136.214  0.00  0.00    +0.000 A 
ATOM     11  C   UNL     1     110.759 129.792 136.616  0.00  0.00    +0.000 A 
ATOM     12  C   UNL     1     111.332 129.795 136.021  0.00  0.00    +0.000 A 
ENDROOT
BRANCH  11  14
ATOM     13  O   UNL     1     107.578 130.216 135.847  0.00  0.00    +0.000 OA
ATOM     14  C   UNL     1     109.964 129.899 136.424  0.00  0.00    +0.000 A 
ATOM     15  C   UNL     1     109.500 129.249 136.215  0.00  0.00    +0.000 A 
ATOM     16  C   UNL     1     109.633 130.654 136.440  0.00  0.00    +0.000 A 
ATOM     17  C   UNL     1     108.837 130.759 136.248  0.00  0.00    +0.000 A 
ATOM     18  C   UNL     1     108.705 129.355 136.022  0.00  0.00    +0.000 A 
ATOM     19  C   UNL     1     108.374 130.110 136.039  0.00  0.00    +0.000 A 
BRANCH  17  20
ATOM     20  O   UNL     1     108.506 131.515 136.264  0.00  0.00    +0.000 OA
ATOM     21  C   UNL     1     108.695 132.035 136.877  0.00  0.00    +0.000 C 
ENDBRANCH  17  20
BRANCH  18  22
ATOM     22  O   UNL     1     108.240 128.705 135.813  0.00  0.00    +0.000 OA
ATOM     23  C   UNL     1     108.577 127.953 135.779  0.00  0.00    +0.000 C 
ENDBRANCH  18  22
ENDBRANCH  11  14
BRANCH   4  24
ATOM     24  O   UNL     1     113.045 129.245 139.412  0.00  0.00    +0.000 OA
BRANCH  24  33
ATOM     25  O   UNL     1     113.005 127.818 139.358  0.00  0.00    +0.000 OA
ATOM     26  O   UNL     1     112.510 126.343 140.891  0.00  0.00    +0.000 OA
ATOM     27  O   UNL     1     112.322 127.747 141.737  0.00  0.00    +0.000 OA
ATOM     28  O   UNL     1     112.590 129.198 140.998  0.00  0.00    +0.000 OA
ATOM     29  C   UNL     1     112.871 127.092 139.728  0.00  0.00    +0.000 C 
ATOM     30  C   UNL     1     112.643 127.069 140.521  0.00  0.00    +0.000 C 
ATOM     31  C   UNL     1     112.550 127.771 140.944  0.00  0.00    +0.000 C 
ATOM     32  C   UNL     1     112.684 128.496 140.574  0.00  0.00    +0.000 C 
ATOM     33  C   UNL     1     112.911 128.519 139.782  0.00  0.00    +0.000 C 
BRANCH  29  34
ATOM     34  C   UNL     1     112.964 126.390 139.305  0.00  0.00    +0.000 C 
BRANCH  34  35
ATOM     35  O   UNL     1     112.497 126.241 138.642  0.00  0.00    +0.000 OA
BRANCH  35  41
ATOM     36  O   UNL     1     113.534 125.533 137.960  0.00  0.00    +0.000 OA
ATOM     37  O   UNL     1     111.361 125.391 137.799  0.00  0.00    +0.000 OA
ATOM     38  O   UNL     1     111.831 124.258 136.696  0.00  0.00    +0.000 OA
ATOM     39  O   UNL     1     113.435 123.974 136.435  0.00  0.00    +0.000 OA
ATOM     40  C   UNL     1     112.164 125.250 137.669  0.00  0.00    +0.000 C 
ATOM     41  C   UNL     1     112.732 125.675 138.090  0.00  0.00    +0.000 C 
ATOM     42  C   UNL     1     112.398 124.683 137.117  0.00  0.00    +0.000 C 
ATOM     43  C   UNL     1     113.201 124.542 136.988  0.00  0.00    +0.000 C 
ATOM     44  C   UNL     1     113.768 124.967 137.409  0.00  0.00    +0.000 C 
ATOM     45  C   UNL     1     114.571 124.825 137.278  0.00  0.00    +0.000 C 
ENDBRANCH  35  41
ENDBRANCH  34  35
ENDBRANCH  29  34
ENDBRANCH  24  33
ENDBRANCH   4  24
TORSDOF 8
ENDMDL
MODEL 3
REMARK VINA RESULT:     -10.0      1.893      4.447
REMARK  Name = 44258273
REMARK  8 active torsions:
REMARK  status: ('A' for Active; 'I' for Inactive)
REMARK    1  A    between atoms: O_3  and  C_22
REMARK    2  A    between atoms: O_3  and  C_27
REMARK    3  A    between atoms: O_6  and  C_25
REMARK    4  A    between atoms: O_6  and  C_29
REMARK    5  A    between atoms: O_14  and  C_41
REMARK    6  A    between atoms: O_15  and  C_42
REMARK    7  A    between atoms: C_17  and  C_27
REMARK    8  A    between atoms: C_36  and  C_38
REMARK                            x       y       z     vdW  Elec       q    Type
REMARK                         _______ _______ _______ _____ _____    ______ ____
ROOT
ATOM      1  O   UNL     1     111.324 129.919 136.913  0.00  0.00    +0.000 OA
ATOM      2  O   UNL     1     114.037 129.912 135.919  0.00  0.00    +0.000 OA
ATOM      3  O   UNL     1     112.938 129.486 135.088  0.00  0.00    +0.000 OA
ATOM      4  C   UNL     1     113.228 130.507 137.922  0.00  0.00    +0.000 A 
ATOM      5  C   UNL     1     112.392 130.358 137.793  0.00  0.00    +0.000 A 
ATOM      6  C   UNL     1     113.789 130.357 137.288  0.00  0.00    +0.000 A 
ATOM      7  C   UNL     1     112.128 130.060 137.031  0.00  0.00    +0.000 A 
ATOM      8  C   UNL     1     113.506 130.059 136.533  0.00  0.00    +0.000 A 
ATOM      9  C   UNL     1     112.666 129.916 136.423  0.00  0.00    +0.000 A 
ATOM     10  C   UNL     1     112.401 129.630 135.696  0.00  0.00    +0.000 A 
ATOM     11  C   UNL     1     111.058 129.633 136.186  0.00  0.00    +0.000 A 
ATOM     12  C   UNL     1     111.597 129.489 135.578  0.00  0.00    +0.000 A 
ENDROOT
BRANCH  11  14
ATOM     13  O   UNL     1     107.842 129.066 135.712  0.00  0.00    +0.000 OA
ATOM     14  C   UNL     1     110.254 129.491 136.067  0.00  0.00    +0.000 A 
ATOM     15  C   UNL     1     109.919 128.780 136.318  0.00  0.00    +0.000 A 
ATOM     16  C   UNL     1     109.785 130.061 135.698  0.00  0.00    +0.000 A 
ATOM     17  C   UNL     1     108.980 129.918 135.580  0.00  0.00    +0.000 A 
ATOM     18  C   UNL     1     109.115 128.638 136.200  0.00  0.00    +0.000 A 
ATOM     19  C   UNL     1     108.646 129.207 135.831  0.00  0.00    +0.000 A 
BRANCH  17  20
ATOM     20  O   UNL     1     108.511 130.488 135.211  0.00  0.00    +0.000 OA
ATOM     21  C   UNL     1     108.666 131.290 135.329  0.00  0.00    +0.000 C 
ENDBRANCH  17  20
BRANCH  18  22
ATOM     22  O   UNL     1     108.780 127.927 136.450  0.00  0.00    +0.000 OA
ATOM     23  C   UNL     1     109.203 127.223 136.373  0.00  0.00    +0.000 C 
ENDBRANCH  18  22
ENDBRANCH  11  14
BRANCH   4  24
ATOM     24  O   UNL     1     113.492 130.793 138.650  0.00  0.00    +0.000 OA
BRANCH  24  33
ATOM     25  O   UNL     1     113.446 129.501 139.258  0.00  0.00    +0.000 OA
ATOM     26  O   UNL     1     114.526 128.690 140.973  0.00  0.00    +0.000 OA
ATOM     27  O   UNL     1     115.135 130.223 140.918  0.00  0.00    +0.000 OA
ATOM     28  O   UNL     1     114.617 131.274 139.757  0.00  0.00    +0.000 OA
ATOM     29  C   UNL     1     113.704 128.975 139.839  0.00  0.00    +0.000 C 
ATOM     30  C   UNL     1     114.268 129.216 140.393  0.00  0.00    +0.000 C 
ATOM     31  C   UNL     1     114.571 129.982 140.364  0.00  0.00    +0.000 C 
ATOM     32  C   UNL     1     114.313 130.508 139.784  0.00  0.00    +0.000 C 
ATOM     33  C   UNL     1     113.750 130.267 139.231  0.00  0.00    +0.000 C 
BRANCH  29  34
ATOM     34  C   UNL     1     113.401 128.209 139.867  0.00  0.00    +0.000 C 
BRANCH  34  35
ATOM     35  O   UNL     1     112.587 128.089 139.937  0.00  0.00    +0.000 OA
BRANCH  35  41
ATOM     36  O   UNL     1     112.483 127.101 138.910  0.00  0.00    +0.000 OA
ATOM     37  O   UNL     1     111.426 127.305 140.809  0.00  0.00    +0.000 OA
ATOM     38  O   UNL     1     110.741 125.926 140.217  0.00  0.00    +0.000 OA
ATOM     39  O   UNL     1     111.218 125.330 138.754  0.00  0.00    +0.000 OA
ATOM     40  C   UNL     1     111.665 127.007 140.077  0.00  0.00    +0.000 C 
ATOM     41  C   UNL     1     112.245 127.399 139.641  0.00  0.00    +0.000 C 
ATOM     42  C   UNL     1     111.322 126.318 139.781  0.00  0.00    +0.000 C 
ATOM     43  C   UNL     1     111.560 126.020 139.050  0.00  0.00    +0.000 C 
ATOM     44  C   UNL     1     112.141 126.412 138.614  0.00  0.00    +0.000 C 
ATOM     45  C   UNL     1     112.379 126.114 137.883  0.00  0.00    +0.000 C 
ENDBRANCH  35  41
ENDBRANCH  34  35
ENDBRANCH  29  34
ENDBRANCH  24  33
ENDBRANCH   4  24
TORSDOF 8
ENDMDL
MODEL 4
REMARK VINA RESULT:     -10.0      2.166      6.240
REMARK  Name = 44258273
REMARK  8 active torsions:
REMARK  status: ('A' for Active; 'I' for Inactive)
REMARK    1  A    between atoms: O_3  and  C_22
REMARK    2  A    between atoms: O_3  and  C_27
REMARK    3  A    between atoms: O_6  and  C_25
REMARK    4  A    between atoms: O_6  and  C_29
REMARK    5  A    between atoms: O_14  and  C_41
REMARK    6  A    between atoms: O_15  and  C_42
REMARK    7  A    between atoms: C_17  and  C_27
REMARK    8  A    between atoms: C_36  and  C_38
REMARK                            x       y       z     vdW  Elec       q    Type
REMARK                         _______ _______ _______ _____ _____    ______ ____
ROOT
ATOM      1  O   UNL     1     110.142 129.983 136.895  0.00  0.00    +0.000 OA
ATOM      2  O   UNL     1     108.190 128.289 135.601  0.00  0.00    +0.000 OA
ATOM      3  O   UNL     1     107.813 129.560 136.170  0.00  0.00    +0.000 OA
ATOM      4  C   UNL     1     110.386 127.985 135.925  0.00  0.00    +0.000 A 
ATOM      5  C   UNL     1     110.576 128.713 136.339  0.00  0.00    +0.000 A 
ATOM      6  C   UNL     1     109.578 127.838 135.673  0.00  0.00    +0.000 A 
ATOM      7  C   UNL     1     109.954 129.285 136.497  0.00  0.00    +0.000 A 
ATOM      8  C   UNL     1     108.969 128.421 135.839  0.00  0.00    +0.000 A 
ATOM      9  C   UNL     1     109.178 129.144 136.255  0.00  0.00    +0.000 A 
ATOM     10  C   UNL     1     108.589 129.700 136.412  0.00  0.00    +0.000 A 
ATOM     11  C   UNL     1     109.553 130.539 137.052  0.00  0.00    +0.000 A 
ATOM     12  C   UNL     1     108.777 130.398 136.810  0.00  0.00    +0.000 A 
ENDROOT
BRANCH  11  14
ATOM     13  O   UNL     1     110.303 133.330 138.645  0.00  0.00    +0.000 OA
ATOM     14  C   UNL     1     109.741 131.237 137.450  0.00  0.00    +0.000 A 
ATOM     15  C   UNL     1     109.884 131.929 137.025  0.00  0.00    +0.000 A 
ATOM     16  C   UNL     1     109.784 131.242 138.274  0.00  0.00    +0.000 A 
ATOM     17  C   UNL     1     109.972 131.941 138.672  0.00  0.00    +0.000 A 
ATOM     18  C   UNL     1     110.072 132.627 137.423  0.00  0.00    +0.000 A 
ATOM     19  C   UNL     1     110.116 132.632 138.246  0.00  0.00    +0.000 A 
BRANCH  17  20
ATOM     20  O   UNL     1     110.016 131.946 139.496  0.00  0.00    +0.000 OA
ATOM     21  C   UNL     1     110.225 131.260 139.903  0.00  0.00    +0.000 C 
ENDBRANCH  17  20
BRANCH  18  22
ATOM     22  O   UNL     1     110.216 133.319 136.997  0.00  0.00    +0.000 OA
ATOM     23  C   UNL     1     110.750 133.312 136.369  0.00  0.00    +0.000 C 
ENDBRANCH  18  22
ENDBRANCH  11  14
BRANCH   4  24
ATOM     24  O   UNL     1     110.977 127.430 135.769  0.00  0.00    +0.000 OA
BRANCH  24  33
ATOM     25  O   UNL     1     110.977 126.745 137.024  0.00  0.00    +0.000 OA
ATOM     26  O   UNL     1     111.091 124.615 137.489  0.00  0.00    +0.000 OA
ATOM     27  O   UNL     1     111.148 124.578 135.840  0.00  0.00    +0.000 OA
ATOM     28  O   UNL     1     111.091 125.985 134.980  0.00  0.00    +0.000 OA
ATOM     29  C   UNL     1     111.005 126.042 137.453  0.00  0.00    +0.000 C 
ATOM     30  C   UNL     1     111.063 125.319 137.059  0.00  0.00    +0.000 C 
ATOM     31  C   UNL     1     111.091 125.301 136.235  0.00  0.00    +0.000 C 
ATOM     32  C   UNL     1     111.062 126.004 135.805  0.00  0.00    +0.000 C 
ATOM     33  C   UNL     1     111.006 126.726 136.199  0.00  0.00    +0.000 C 
BRANCH  29  34
ATOM     34  C   UNL     1     110.977 126.060 138.278  0.00  0.00    +0.000 C 
BRANCH  34  35
ATOM     35  O   UNL     1     111.502 126.537 138.699  0.00  0.00    +0.000 OA
BRANCH  35  41
ATOM     36  O   UNL     1     110.677 126.585 139.864  0.00  0.00    +0.000 OA
ATOM     37  O   UNL     1     112.842 126.749 139.639  0.00  0.00    +0.000 OA
ATOM     38  O   UNL     1     112.686 126.904 141.274  0.00  0.00    +0.000 OA
ATOM     39  O   UNL     1     111.191 126.846 141.970  0.00  0.00    +0.000 OA
ATOM     40  C   UNL     1     112.093 126.720 139.987  0.00  0.00    +0.000 C 
ATOM     41  C   UNL     1     111.424 126.614 139.517  0.00  0.00    +0.000 C 
ATOM     42  C   UNL     1     112.016 126.797 140.804  0.00  0.00    +0.000 C 
ATOM     43  C   UNL     1     111.268 126.768 141.151  0.00  0.00    +0.000 C 
ATOM     44  C   UNL     1     110.599 126.662 140.681  0.00  0.00    +0.000 C 
ATOM     45  C   UNL     1     109.851 126.633 141.030  0.00  0.00    +0.000 C 
ENDBRANCH  35  41
ENDBRANCH  34  35
ENDBRANCH  29  34
ENDBRANCH  24  33
ENDBRANCH   4  24
TORSDOF 8
ENDMDL
MODEL 5
REMARK VINA RESULT:     -10.0      2.058      5.907
REMARK  Name = 44258273
REMARK  8 active torsions:
REMARK  status: ('A' for Active; 'I' for Inactive)
REMARK    1  A    between atoms: O_3  and  C_22
REMARK    2  A    between atoms: O_3  and  C_27
REMARK    3  A    between atoms: O_6  and  C_25
REMARK    4  A    between atoms: O_6  and  C_29
REMARK    5  A    between atoms: O_14  and  C_41
REMARK    6  A    between atoms: O_15  and  C_42
REMARK    7  A    between atoms: C_17  and  C_27
REMARK    8  A    between atoms: C_36  and  C_38
REMARK                            x       y       z     vdW  Elec       q    Type
REMARK                         _______ _______ _______ _____ _____    ______ ____
ROOT
ATOM      1  O   UNL     1     111.117 129.798 136.829  0.00  0.00    +0.000 OA
ATOM      2  O   UNL     1     113.474 128.643 135.622  0.00  0.00    +0.000 OA
ATOM      3  O   UNL     1     113.492 129.981 136.160  0.00  0.00    +0.000 OA
ATOM      4  C   UNL     1     111.426 127.783 135.914  0.00  0.00    +0.000 A 
ATOM      5  C   UNL     1     111.043 128.446 136.303  0.00  0.00    +0.000 A 
ATOM      6  C   UNL     1     112.251 127.846 135.682  0.00  0.00    +0.000 A 
ATOM      7  C   UNL     1     111.490 129.164 136.455  0.00  0.00    +0.000 A 
ATOM      8  C   UNL     1     112.682 128.572 135.842  0.00  0.00    +0.000 A 
ATOM      9  C   UNL     1     112.282 129.225 136.232  0.00  0.00    +0.000 A 
ATOM     10  C   UNL     1     112.701 129.919 136.383  0.00  0.00    +0.000 A 
ATOM     11  C   UNL     1     111.536 130.492 136.980  0.00  0.00    +0.000 A 
ATOM     12  C   UNL     1     112.328 130.553 136.757  0.00  0.00    +0.000 A 
ENDROOT
BRANCH  11  14
ATOM     13  O   UNL     1     110.044 133.027 138.477  0.00  0.00    +0.000 OA
ATOM     14  C   UNL     1     111.163 131.126 137.354  0.00  0.00    +0.000 A 
ATOM     15  C   UNL     1     111.075 131.128 138.174  0.00  0.00    +0.000 A 
ATOM     16  C   UNL     1     110.877 131.758 136.907  0.00  0.00    +0.000 A 
ATOM     17  C   UNL     1     110.504 132.392 137.283  0.00  0.00    +0.000 A 
ATOM     18  C   UNL     1     110.702 131.761 138.549  0.00  0.00    +0.000 A 
ATOM     19  C   UNL     1     110.417 132.393 138.103  0.00  0.00    +0.000 A 
BRANCH  17  20
ATOM     20  O   UNL     1     110.218 133.024 136.836  0.00  0.00    +0.000 OA
ATOM     21  C   UNL     1     109.795 132.882 136.142  0.00  0.00    +0.000 C 
ENDBRANCH  17  20
BRANCH  18  22
ATOM     22  O   UNL     1     110.615 131.762 139.369  0.00  0.00    +0.000 OA
ATOM     23  C   UNL     1     110.357 131.082 139.757  0.00  0.00    +0.000 C 
ENDBRANCH  18  22
ENDBRANCH  11  14
BRANCH   4  24
ATOM     24  O   UNL     1     111.004 127.089 135.764  0.00  0.00    +0.000 OA
BRANCH  24  33
ATOM     25  O   UNL     1     111.464 126.431 136.946  0.00  0.00    +0.000 OA
ATOM     26  O   UNL     1     111.770 124.312 137.374  0.00  0.00    +0.000 OA
ATOM     27  O   UNL     1     111.232 124.241 135.816  0.00  0.00    +0.000 OA
ATOM     28  O   UNL     1     110.850 125.629 135.011  0.00  0.00    +0.000 OA
ATOM     29  C   UNL     1     111.656 125.737 137.348  0.00  0.00    +0.000 C 
ATOM     30  C   UNL     1     111.578 125.006 136.972  0.00  0.00    +0.000 C 
ATOM     31  C   UNL     1     111.310 124.971 136.193  0.00  0.00    +0.000 C 
ATOM     32  C   UNL     1     111.118 125.666 135.790  0.00  0.00    +0.000 C 
ATOM     33  C   UNL     1     111.196 126.395 136.166  0.00  0.00    +0.000 C 
BRANCH  29  34
ATOM     34  C   UNL     1     111.924 125.772 138.128  0.00  0.00    +0.000 C 
BRANCH  34  35
ATOM     35  O   UNL     1     111.497 126.194 138.693  0.00  0.00    +0.000 OA
BRANCH  35  41
ATOM     36  O   UNL     1     112.624 126.702 139.411  0.00  0.00    +0.000 OA
ATOM     37  O   UNL     1     110.671 126.022 140.111  0.00  0.00    +0.000 OA
ATOM     38  O   UNL     1     111.384 126.444 141.538  0.00  0.00    +0.000 OA
ATOM     39  O   UNL     1     112.924 127.038 141.547  0.00  0.00    +0.000 OA
ATOM     40  C   UNL     1     111.441 126.319 140.115  0.00  0.00    +0.000 C 
ATOM     41  C   UNL     1     111.855 126.405 139.406  0.00  0.00    +0.000 C 
ATOM     42  C   UNL     1     111.798 126.530 140.829  0.00  0.00    +0.000 C 
ATOM     43  C   UNL     1     112.567 126.827 140.833  0.00  0.00    +0.000 C 
ATOM     44  C   UNL     1     112.980 126.913 140.124  0.00  0.00    +0.000 C 
ATOM     45  C   UNL     1     113.750 127.210 140.129  0.00  0.00    +0.000 C 
ENDBRANCH  35  41
ENDBRANCH  34  35
ENDBRANCH  29  34
ENDBRANCH  24  33
ENDBRANCH   4  24
TORSDOF 8
ENDMDL
MODEL 6
REMARK VINA RESULT:     -10.0      2.015      4.030
REMARK  Name = 44258273
REMARK  8 active torsions:
REMARK  status: ('A' for Active; 'I' for Inactive)
REMARK    1  A    between atoms: O_3  and  C_22
REMARK    2  A    between atoms: O_3  and  C_27
REMARK    3  A    between atoms: O_6  and  C_25
REMARK    4  A    between atoms: O_6  and  C_29
REMARK    5  A    between atoms: O_14  and  C_41
REMARK    6  A    between atoms: O_15  and  C_42
REMARK    7  A    between atoms: C_17  and  C_27
REMARK    8  A    between atoms: C_36  and  C_38
REMARK                            x       y       z     vdW  Elec       q    Type
REMARK                         _______ _______ _______ _____ _____    ______ ____
ROOT
ATOM      1  O   UNL     1     111.110 126.215 136.650  0.00  0.00    +0.000 OA
ATOM      2  O   UNL     1     108.959 126.577 134.755  0.00  0.00    +0.000 OA
ATOM      3  O   UNL     1     109.904 125.496 134.612  0.00  0.00    +0.000 OA
ATOM      4  C   UNL     1     109.499 127.761 136.579  0.00  0.00    +0.000 A 
ATOM      5  C   UNL     1     110.188 127.320 136.841  0.00  0.00    +0.000 A 
ATOM      6  C   UNL     1     109.080 127.511 135.871  0.00  0.00    +0.000 A 
ATOM      7  C   UNL     1     110.448 126.635 136.393  0.00  0.00    +0.000 A 
ATOM      8  C   UNL     1     109.355 126.824 135.436  0.00  0.00    +0.000 A 
ATOM      9  C   UNL     1     110.046 126.395 135.714  0.00  0.00    +0.000 A 
ATOM     10  C   UNL     1     110.305 125.736 135.291  0.00  0.00    +0.000 A 
ATOM     11  C   UNL     1     111.370 125.555 136.227  0.00  0.00    +0.000 A 
ATOM     12  C   UNL     1     110.967 125.316 135.548  0.00  0.00    +0.000 A 
ENDROOT
BRANCH  11  14
ATOM     13  O   UNL     1     114.018 123.875 137.254  0.00  0.00    +0.000 OA
ATOM     14  C   UNL     1     112.032 125.136 136.484  0.00  0.00    +0.000 A 
ATOM     15  C   UNL     1     111.966 124.334 136.669  0.00  0.00    +0.000 A 
ATOM     16  C   UNL     1     112.760 125.517 136.555  0.00  0.00    +0.000 A 
ATOM     17  C   UNL     1     113.423 125.096 136.812  0.00  0.00    +0.000 A 
ATOM     18  C   UNL     1     112.628 123.914 136.926  0.00  0.00    +0.000 A 
ATOM     19  C   UNL     1     113.356 124.295 136.998  0.00  0.00    +0.000 A 
BRANCH  17  20
ATOM     20  O   UNL     1     114.151 125.477 136.884  0.00  0.00    +0.000 OA
ATOM     21  C   UNL     1     114.380 126.037 136.323  0.00  0.00    +0.000 C 
ENDBRANCH  17  20
BRANCH  18  22
ATOM     22  O   UNL     1     112.562 123.112 137.112  0.00  0.00    +0.000 OA
ATOM     23  C   UNL     1     111.872 122.827 137.463  0.00  0.00    +0.000 C 
ENDBRANCH  18  22
ENDBRANCH  11  14
BRANCH   4  24
ATOM     24  O   UNL     1     109.241 128.420 137.004  0.00  0.00    +0.000 OA
BRANCH  24  33
ATOM     25  O   UNL     1     110.287 129.328 136.652  0.00  0.00    +0.000 OA
ATOM     26  O   UNL     1     110.221 131.443 136.113  0.00  0.00    +0.000 OA
ATOM     27  O   UNL     1     108.621 131.138 136.373  0.00  0.00    +0.000 OA
ATOM     28  O   UNL     1     108.130 129.626 136.818  0.00  0.00    +0.000 OA
ATOM     29  C   UNL     1     110.532 130.084 136.429  0.00  0.00    +0.000 C 
ATOM     30  C   UNL     1     109.976 130.687 136.336  0.00  0.00    +0.000 C 
ATOM     31  C   UNL     1     109.176 130.534 136.466  0.00  0.00    +0.000 C 
ATOM     32  C   UNL     1     108.931 129.778 136.688  0.00  0.00    +0.000 C 
ATOM     33  C   UNL     1     109.486 129.176 136.781  0.00  0.00    +0.000 C 
BRANCH  29  34
ATOM     34  C   UNL     1     111.332 130.237 136.299  0.00  0.00    +0.000 C 
BRANCH  34  35
ATOM     35  O   UNL     1     111.816 129.655 135.972  0.00  0.00    +0.000 OA
BRANCH  35  41
ATOM     36  O   UNL     1     113.010 130.262 136.469  0.00  0.00    +0.000 OA
ATOM     37  O   UNL     1     112.686 128.927 134.773  0.00  0.00    +0.000 OA
ATOM     38  O   UNL     1     114.314 129.171 134.671  0.00  0.00    +0.000 OA
ATOM     39  O   UNL     1     115.074 130.141 135.768  0.00  0.00    +0.000 OA
ATOM     40  C   UNL     1     113.065 129.413 135.322  0.00  0.00    +0.000 C 
ATOM     41  C   UNL     1     112.631 129.777 135.921  0.00  0.00    +0.000 C 
ATOM     42  C   UNL     1     113.880 129.534 135.270  0.00  0.00    +0.000 C 
ATOM     43  C   UNL     1     114.259 130.020 135.819  0.00  0.00    +0.000 C 
ATOM     44  C   UNL     1     113.824 130.383 136.419  0.00  0.00    +0.000 C 
ATOM     45  C   UNL     1     114.204 130.868 136.967  0.00  0.00    +0.000 C 
ENDBRANCH  35  41
ENDBRANCH  34  35
ENDBRANCH  29  34
ENDBRANCH  24  33
ENDBRANCH   4  24
TORSDOF 8
ENDMDL
MODEL 7
REMARK VINA RESULT:      -9.8      1.361      2.296
REMARK  Name = 44258273
REMARK  8 active torsions:
REMARK  status: ('A' for Active; 'I' for Inactive)
REMARK    1  A    between atoms: O_3  and  C_22
REMARK    2  A    between atoms: O_3  and  C_27
REMARK    3  A    between atoms: O_6  and  C_25
REMARK    4  A    between atoms: O_6  and  C_29
REMARK    5  A    between atoms: O_14  and  C_41
REMARK    6  A    between atoms: O_15  and  C_42
REMARK    7  A    between atoms: C_17  and  C_27
REMARK    8  A    between atoms: C_36  and  C_38
REMARK                            x       y       z     vdW  Elec       q    Type
REMARK                         _______ _______ _______ _____ _____    ______ ____
ROOT
ATOM      1  O   UNL     1     112.428 126.934 138.201  0.00  0.00    +0.000 OA
ATOM      2  O   UNL     1     110.887 127.841 140.471  0.00  0.00    +0.000 OA
ATOM      3  O   UNL     1     110.743 126.500 139.960  0.00  0.00    +0.000 OA
ATOM      4  C   UNL     1     112.410 128.918 139.230  0.00  0.00    +0.000 A 
ATOM      5  C   UNL     1     112.613 128.295 138.675  0.00  0.00    +0.000 A 
ATOM      6  C   UNL     1     111.824 128.767 139.841  0.00  0.00    +0.000 A 
ATOM      7  C   UNL     1     112.229 127.529 138.737  0.00  0.00    +0.000 A 
ATOM      8  C   UNL     1     111.450 127.995 139.888  0.00  0.00    +0.000 A 
ATOM      9  C   UNL     1     111.667 127.384 139.324  0.00  0.00    +0.000 A 
ATOM     10  C   UNL     1     111.305 126.645 139.374  0.00  0.00    +0.000 A 
ATOM     11  C   UNL     1     112.066 126.195 138.252  0.00  0.00    +0.000 A 
ATOM     12  C   UNL     1     111.504 126.050 138.838  0.00  0.00    +0.000 A 
ENDROOT
BRANCH  11  14
ATOM     13  O   UNL     1     112.865 123.816 136.108  0.00  0.00    +0.000 OA
ATOM     14  C   UNL     1     112.265 125.600 137.716  0.00  0.00    +0.000 A 
ATOM     15  C   UNL     1     112.998 125.225 137.770  0.00  0.00    +0.000 A 
ATOM     16  C   UNL     1     111.732 125.381 137.126  0.00  0.00    +0.000 A 
ATOM     17  C   UNL     1     111.933 124.786 136.590  0.00  0.00    +0.000 A 
ATOM     18  C   UNL     1     113.199 124.630 137.234  0.00  0.00    +0.000 A 
ATOM     19  C   UNL     1     112.665 124.411 136.644  0.00  0.00    +0.000 A 
BRANCH  17  20
ATOM     20  O   UNL     1     111.399 124.566 136.000  0.00  0.00    +0.000 OA
ATOM     21  C   UNL     1     110.914 125.135 135.651  0.00  0.00    +0.000 C 
ENDBRANCH  17  20
BRANCH  18  22
ATOM     22  O   UNL     1     113.931 124.255 137.288  0.00  0.00    +0.000 OA
ATOM     23  C   UNL     1     114.616 124.703 137.395  0.00  0.00    +0.000 C 
ENDBRANCH  18  22
ENDBRANCH  11  14
BRANCH   4  24
ATOM     24  O   UNL     1     112.774 129.657 139.177  0.00  0.00    +0.000 OA
BRANCH  24  33
ATOM     25  O   UNL     1     111.870 130.226 138.228  0.00  0.00    +0.000 OA
ATOM     26  O   UNL     1     112.223 131.585 136.556  0.00  0.00    +0.000 OA
ATOM     27  O   UNL     1     113.755 131.411 137.145  0.00  0.00    +0.000 OA
ATOM     28  O   UNL     1     114.030 130.447 138.455  0.00  0.00    +0.000 OA
ATOM     29  C   UNL     1     111.732 130.708 137.573  0.00  0.00    +0.000 C 
ATOM     30  C   UNL     1     112.361 131.103 137.212  0.00  0.00    +0.000 C 
ATOM     31  C   UNL     1     113.126 131.016 137.506  0.00  0.00    +0.000 C 
ATOM     32  C   UNL     1     113.264 130.534 138.161  0.00  0.00    +0.000 C 
ATOM     33  C   UNL     1     112.636 130.139 138.522  0.00  0.00    +0.000 C 
BRANCH  29  34
ATOM     34  C   UNL     1     110.967 130.795 137.278  0.00  0.00    +0.000 C 
BRANCH  34  35
ATOM     35  O   UNL     1     110.488 130.133 137.168  0.00  0.00    +0.000 OA
BRANCH  35  41
ATOM     36  O   UNL     1     109.382 130.959 136.801  0.00  0.00    +0.000 OA
ATOM     37  O   UNL     1     109.704 128.813 136.562  0.00  0.00    +0.000 OA
ATOM     38  O   UNL     1     108.205 128.980 135.893  0.00  0.00    +0.000 OA
ATOM     39  O   UNL     1     107.491 130.466 135.829  0.00  0.00    +0.000 OA
ATOM     40  C   UNL     1     109.347 129.557 136.530  0.00  0.00    +0.000 C 
ATOM     41  C   UNL     1     109.739 130.217 136.833  0.00  0.00    +0.000 C 
ATOM     42  C   UNL     1     108.597 129.640 136.196  0.00  0.00    +0.000 C 
ATOM     43  C   UNL     1     108.241 130.383 136.164  0.00  0.00    +0.000 C 
ATOM     44  C   UNL     1     108.633 131.042 136.467  0.00  0.00    +0.000 C 
ATOM     45  C   UNL     1     108.275 131.785 136.435  0.00  0.00    +0.000 C 
ENDBRANCH  35  41
ENDBRANCH  34  35
ENDBRANCH  29  34
ENDBRANCH  24  33
ENDBRANCH   4  24
TORSDOF 8
ENDMDL
