MODEL 1
REMARK VINA RESULT:     -10.0      0.000      0.000
REMARK  Name = 131836733
REMARK  9 active torsions:
REMARK  status: ('A' for Active; 'I' for Inactive)
REMARK    1  A    between atoms: O_7  and  C_28
REMARK    2  A    between atoms: O_7  and  C_37
REMARK    3  A    between atoms: C_20  and  C_22
REMARK    4  A    between atoms: C_21  and  C_23
REMARK    5  A    between atoms: C_27  and  C_34
REMARK    6  A    between atoms: C_31  and  C_35
REMARK    7  A    between atoms: C_35  and  C_36
REMARK    8  A    between atoms: C_36  and  C_38
REMARK    9  A    between atoms: C_38  and  C_39
REMARK                            x       y       z     vdW  Elec       q    Type
REMARK                         _______ _______ _______ _____ _____    ______ ____
ROOT
ATOM      1  O   UNL     1     108.067 128.332 135.802  0.00  0.00    +0.000 OA
ATOM      2  C   UNL     1     108.871 128.490 135.897  0.00  0.00    +0.000 C 
ENDROOT
BRANCH   2   9
ATOM      3  O   UNL     1     108.975 129.078 137.435  0.00  0.00    +0.000 OA
ATOM      4  O   UNL     1     109.898 131.583 136.415  0.00  0.00    +0.000 OA
ATOM      5  O   UNL     1     109.280 129.448 134.618  0.00  0.00    +0.000 OA
ATOM      6  C   UNL     1     109.436 130.330 136.925  0.00  0.00    +0.000 A 
ATOM      7  C   UNL     1     109.180 129.557 136.795  0.00  0.00    +0.000 A 
ATOM      8  C   UNL     1     109.641 130.809 136.286  0.00  0.00    +0.000 A 
ATOM      9  C   UNL     1     109.128 129.263 136.027  0.00  0.00    +0.000 A 
ATOM     10  C   UNL     1     109.589 130.515 135.516  0.00  0.00    +0.000 A 
ATOM     11  C   UNL     1     109.332 129.742 135.387  0.00  0.00    +0.000 A 
BRANCH   6  19
ATOM     12  O   UNL     1     110.187 130.533 138.125  0.00  0.00    +0.000 OA
ATOM     13  O   UNL     1     108.248 131.689 139.140  0.00  0.00    +0.000 OA
ATOM     14  O   UNL     1     108.144 131.101 137.602  0.00  0.00    +0.000 OA
ATOM     15  O   UNL     1     109.645 131.507 140.001  0.00  0.00    +0.000 OA
ATOM     16  C   UNL     1     108.895 131.304 138.802  0.00  0.00    +0.000 C 
ATOM     17  C   UNL     1     108.842 131.009 138.033  0.00  0.00    +0.000 C 
ATOM     18  C   UNL     1     109.593 131.213 139.232  0.00  0.00    +0.000 C 
ATOM     19  C   UNL     1     109.489 130.624 137.694  0.00  0.00    +0.000 C 
ATOM     20  C   UNL     1     110.239 130.827 138.893  0.00  0.00    +0.000 C 
BRANCH  20  22
ATOM     21  O   UNL     1     111.656 130.979 138.999  0.00  0.00    +0.000 OA
ATOM     22  C   UNL     1     110.937 130.736 139.323  0.00  0.00    +0.000 C 
ENDBRANCH  20  22
ENDBRANCH   6  19
ENDBRANCH   2   9
BRANCH   2  23
ATOM     23  C   UNL     1     109.418 127.873 135.863  0.00  0.00    +0.000 C 
BRANCH  23  24
ATOM     24  C   UNL     1     109.158 127.093 135.796  0.00  0.00    +0.000 C 
BRANCH  24  26
ATOM     25  C   UNL     1     110.582 125.512 136.284  0.00  0.00    +0.000 A 
ATOM     26  C   UNL     1     109.704 126.482 135.707  0.00  0.00    +0.000 A 
ATOM     27  C   UNL     1     110.034 126.124 136.372  0.00  0.00    +0.000 A 
ATOM     28  C   UNL     1     110.798 125.260 135.529  0.00  0.00    +0.000 A 
ATOM     29  C   UNL     1     109.922 126.229 134.952  0.00  0.00    +0.000 A 
ATOM     30  C   UNL     1     110.468 125.618 134.863  0.00  0.00    +0.000 A 
BRANCH  25  31
ATOM     31  O   UNL     1     110.912 125.154 136.949  0.00  0.00    +0.000 OA
BRANCH  31  40
ATOM     32  O   UNL     1     112.167 125.835 136.904  0.00  0.00    +0.000 OA
ATOM     33  O   UNL     1     112.201 125.937 139.377  0.00  0.00    +0.000 OA
ATOM     34  O   UNL     1     113.444 126.584 138.507  0.00  0.00    +0.000 OA
ATOM     35  O   UNL     1     110.935 125.222 138.598  0.00  0.00    +0.000 OA
ATOM     36  C   UNL     1     112.190 125.903 138.553  0.00  0.00    +0.000 C 
ATOM     37  C   UNL     1     112.811 126.227 138.117  0.00  0.00    +0.000 C 
ATOM     38  C   UNL     1     111.556 125.545 138.163  0.00  0.00    +0.000 C 
ATOM     39  C   UNL     1     112.800 126.193 137.293  0.00  0.00    +0.000 C 
ATOM     40  C   UNL     1     111.545 125.511 137.338  0.00  0.00    +0.000 C 
BRANCH  39  43
ATOM     41  O   UNL     1     114.060 126.043 136.635  0.00  0.00    +0.000 OA
ATOM     42  O   UNL     1     113.406 127.314 136.648  0.00  0.00    +0.000 OA
ATOM     43  C   UNL     1     113.422 126.516 136.859  0.00  0.00    +0.000 C 
ENDBRANCH  39  43
ENDBRANCH  31  40
ENDBRANCH  25  31
ENDBRANCH  24  26
ENDBRANCH  23  24
ENDBRANCH   2  23
TORSDOF 9
ENDMDL
MODEL 2
REMARK VINA RESULT:      -9.7      8.701     10.425
REMARK  Name = 131836733
REMARK  9 active torsions:
REMARK  status: ('A' for Active; 'I' for Inactive)
REMARK    1  A    between atoms: O_7  and  C_28
REMARK    2  A    between atoms: O_7  and  C_37
REMARK    3  A    between atoms: C_20  and  C_22
REMARK    4  A    between atoms: C_21  and  C_23
REMARK    5  A    between atoms: C_27  and  C_34
REMARK    6  A    between atoms: C_31  and  C_35
REMARK    7  A    between atoms: C_35  and  C_36
REMARK    8  A    between atoms: C_36  and  C_38
REMARK    9  A    between atoms: C_38  and  C_39
REMARK                            x       y       z     vdW  Elec       q    Type
REMARK                         _______ _______ _______ _____ _____    ______ ____
ROOT
ATOM      1  O   UNL     1     105.414 127.023 143.288  0.00  0.00    +0.000 OA
ATOM      2  C   UNL     1     105.997 126.440 143.295  0.00  0.00    +0.000 C 
ENDROOT
BRANCH   2   9
ATOM      3  O   UNL     1     105.300 125.354 142.268  0.00  0.00    +0.000 OA
ATOM      4  O   UNL     1     107.527 125.600 140.494  0.00  0.00    +0.000 OA
ATOM      5  O   UNL     1     107.460 127.107 142.922  0.00  0.00    +0.000 OA
ATOM      6  C   UNL     1     106.413 125.477 141.382  0.00  0.00    +0.000 A 
ATOM      7  C   UNL     1     106.031 125.687 142.082  0.00  0.00    +0.000 A 
ATOM      8  C   UNL     1     107.145 125.810 141.194  0.00  0.00    +0.000 A 
ATOM      9  C   UNL     1     106.380 126.230 142.595  0.00  0.00    +0.000 A 
ATOM     10  C   UNL     1     107.494 126.354 141.709  0.00  0.00    +0.000 A 
ATOM     11  C   UNL     1     107.111 126.564 142.409  0.00  0.00    +0.000 A 
BRANCH   6  19
ATOM     12  O   UNL     1     105.529 125.191 140.296  0.00  0.00    +0.000 OA
ATOM     13  O   UNL     1     106.090 122.787 140.471  0.00  0.00    +0.000 OA
ATOM     14  O   UNL     1     106.787 123.874 141.498  0.00  0.00    +0.000 OA
ATOM     15  O   UNL     1     105.019 123.303 139.327  0.00  0.00    +0.000 OA
ATOM     16  C   UNL     1     105.903 123.588 140.412  0.00  0.00    +0.000 C 
ATOM     17  C   UNL     1     106.252 124.132 140.926  0.00  0.00    +0.000 C 
ATOM     18  C   UNL     1     105.367 123.846 139.840  0.00  0.00    +0.000 C 
ATOM     19  C   UNL     1     106.064 124.933 140.868  0.00  0.00    +0.000 C 
ATOM     20  C   UNL     1     105.180 124.648 139.782  0.00  0.00    +0.000 C 
BRANCH  20  22
ATOM     21  O   UNL     1     104.371 125.685 139.222  0.00  0.00    +0.000 OA
ATOM     22  C   UNL     1     104.645 124.906 139.211  0.00  0.00    +0.000 C 
ENDBRANCH  20  22
ENDBRANCH   6  19
ENDBRANCH   2   9
BRANCH   2  23
ATOM     23  C   UNL     1     106.199 126.067 144.004  0.00  0.00    +0.000 C 
BRANCH  23  24
ATOM     24  C   UNL     1     105.794 126.254 144.698  0.00  0.00    +0.000 C 
BRANCH  24  26
ATOM     25  C   UNL     1     105.686 124.721 146.248  0.00  0.00    +0.000 A 
ATOM     26  C   UNL     1     105.949 125.835 145.390  0.00  0.00    +0.000 A 
ATOM     27  C   UNL     1     105.532 125.142 145.554  0.00  0.00    +0.000 A 
ATOM     28  C   UNL     1     106.258 124.994 146.777  0.00  0.00    +0.000 A 
ATOM     29  C   UNL     1     106.520 126.107 145.920  0.00  0.00    +0.000 A 
ATOM     30  C   UNL     1     106.674 125.687 146.613  0.00  0.00    +0.000 A 
BRANCH  25  31
ATOM     31  O   UNL     1     105.269 124.028 146.412  0.00  0.00    +0.000 OA
BRANCH  31  40
ATOM     32  O   UNL     1     104.278 124.597 147.270  0.00  0.00    +0.000 OA
ATOM     33  O   UNL     1     102.559 123.136 146.253  0.00  0.00    +0.000 OA
ATOM     34  O   UNL     1     102.142 124.192 147.449  0.00  0.00    +0.000 OA
ATOM     35  O   UNL     1     104.123 123.054 145.734  0.00  0.00    +0.000 OA
ATOM     36  C   UNL     1     103.132 123.623 146.592  0.00  0.00    +0.000 C 
ATOM     37  C   UNL     1     102.924 124.151 147.190  0.00  0.00    +0.000 C 
ATOM     38  C   UNL     1     103.915 123.582 146.332  0.00  0.00    +0.000 C 
ATOM     39  C   UNL     1     103.497 124.638 147.529  0.00  0.00    +0.000 C 
ATOM     40  C   UNL     1     104.488 124.069 146.671  0.00  0.00    +0.000 C 
BRANCH  39  43
ATOM     41  O   UNL     1     103.362 124.944 148.918  0.00  0.00    +0.000 OA
ATOM     42  O   UNL     1     103.003 125.916 147.934  0.00  0.00    +0.000 OA
ATOM     43  C   UNL     1     103.288 125.166 148.127  0.00  0.00    +0.000 C 
ENDBRANCH  39  43
ENDBRANCH  31  40
ENDBRANCH  25  31
ENDBRANCH  24  26
ENDBRANCH  23  24
ENDBRANCH   2  23
TORSDOF 9
ENDMDL
MODEL 3
REMARK VINA RESULT:      -9.6      1.352      5.821
REMARK  Name = 131836733
REMARK  9 active torsions:
REMARK  status: ('A' for Active; 'I' for Inactive)
REMARK    1  A    between atoms: O_7  and  C_28
REMARK    2  A    between atoms: O_7  and  C_37
REMARK    3  A    between atoms: C_20  and  C_22
REMARK    4  A    between atoms: C_21  and  C_23
REMARK    5  A    between atoms: C_27  and  C_34
REMARK    6  A    between atoms: C_31  and  C_35
REMARK    7  A    between atoms: C_35  and  C_36
REMARK    8  A    between atoms: C_36  and  C_38
REMARK    9  A    between atoms: C_38  and  C_39
REMARK                            x       y       z     vdW  Elec       q    Type
REMARK                         _______ _______ _______ _____ _____    ______ ____
ROOT
ATOM      1  O   UNL     1     108.807 126.656 136.670  0.00  0.00    +0.000 OA
ATOM      2  C   UNL     1     109.506 127.063 136.835  0.00  0.00    +0.000 C 
ENDROOT
BRANCH   2   9
ATOM      3  O   UNL     1     110.788 126.176 136.296  0.00  0.00    +0.000 OA
ATOM      4  O   UNL     1     111.674 125.822 138.990  0.00  0.00    +0.000 OA
ATOM      5  O   UNL     1     109.307 127.330 138.451  0.00  0.00    +0.000 OA
ATOM      6  C   UNL     1     111.231 125.999 137.643  0.00  0.00    +0.000 A 
ATOM      7  C   UNL     1     110.688 126.309 137.104  0.00  0.00    +0.000 A 
ATOM      8  C   UNL     1     111.132 126.132 138.451  0.00  0.00    +0.000 A 
ATOM      9  C   UNL     1     110.048 126.753 137.374  0.00  0.00    +0.000 A 
ATOM     10  C   UNL     1     110.490 126.576 138.721  0.00  0.00    +0.000 A 
ATOM     11  C   UNL     1     109.948 126.886 138.182  0.00  0.00    +0.000 A 
BRANCH   6  19
ATOM     12  O   UNL     1     112.580 125.931 137.175  0.00  0.00    +0.000 OA
ATOM     13  O   UNL     1     112.382 123.473 136.965  0.00  0.00    +0.000 OA
ATOM     14  O   UNL     1     111.099 124.360 137.503  0.00  0.00    +0.000 OA
ATOM     15  O   UNL     1     113.796 124.224 136.567  0.00  0.00    +0.000 OA
ATOM     16  C   UNL     1     112.448 124.292 137.035  0.00  0.00    +0.000 C 
ATOM     17  C   UNL     1     111.806 124.736 137.304  0.00  0.00    +0.000 C 
ATOM     18  C   UNL     1     113.155 124.667 136.836  0.00  0.00    +0.000 C 
ATOM     19  C   UNL     1     111.873 125.555 137.374  0.00  0.00    +0.000 C 
ATOM     20  C   UNL     1     113.220 125.487 136.906  0.00  0.00    +0.000 C 
BRANCH  20  22
ATOM     21  O   UNL     1     113.916 126.631 136.406  0.00  0.00    +0.000 OA
ATOM     22  C   UNL     1     113.928 125.863 136.707  0.00  0.00    +0.000 C 
ENDBRANCH  20  22
ENDBRANCH   6  19
ENDBRANCH   2   9
BRANCH   2  23
ATOM     23  C   UNL     1     109.662 127.782 136.459  0.00  0.00    +0.000 C 
BRANCH  23  24
ATOM     24  C   UNL     1     109.095 128.120 135.964  0.00  0.00    +0.000 C 
BRANCH  24  26
ATOM     25  C   UNL     1     109.001 130.238 135.443  0.00  0.00    +0.000 A 
ATOM     26  C   UNL     1     109.251 128.838 135.590  0.00  0.00    +0.000 A 
ATOM     27  C   UNL     1     108.845 129.519 135.818  0.00  0.00    +0.000 A 
ATOM     28  C   UNL     1     109.563 130.274 134.840  0.00  0.00    +0.000 A 
ATOM     29  C   UNL     1     109.813 128.876 134.987  0.00  0.00    +0.000 A 
ATOM     30  C   UNL     1     109.969 129.593 134.612  0.00  0.00    +0.000 A 
BRANCH  25  31
ATOM     31  O   UNL     1     108.595 130.919 135.671  0.00  0.00    +0.000 OA
BRANCH  31  40
ATOM     32  O   UNL     1     109.632 131.517 136.452  0.00  0.00    +0.000 OA
ATOM     33  O   UNL     1     107.957 132.229 138.129  0.00  0.00    +0.000 OA
ATOM     34  O   UNL     1     109.551 132.590 138.350  0.00  0.00    +0.000 OA
ATOM     35  O   UNL     1     107.479 131.393 136.789  0.00  0.00    +0.000 OA
ATOM     36  C   UNL     1     108.515 131.991 137.570  0.00  0.00    +0.000 C 
ATOM     37  C   UNL     1     109.312 132.172 137.680  0.00  0.00    +0.000 C 
ATOM     38  C   UNL     1     108.276 131.573 136.899  0.00  0.00    +0.000 C 
ATOM     39  C   UNL     1     109.871 131.935 137.121  0.00  0.00    +0.000 C 
ATOM     40  C   UNL     1     108.834 131.336 136.340  0.00  0.00    +0.000 C 
BRANCH  39  43
ATOM     41  O   UNL     1     111.140 131.628 137.700  0.00  0.00    +0.000 OA
ATOM     42  O   UNL     1     110.992 132.784 136.874  0.00  0.00    +0.000 OA
ATOM     43  C   UNL     1     110.667 132.115 137.232  0.00  0.00    +0.000 C 
ENDBRANCH  39  43
ENDBRANCH  31  40
ENDBRANCH  25  31
ENDBRANCH  24  26
ENDBRANCH  23  24
ENDBRANCH   2  23
TORSDOF 9
ENDMDL
MODEL 4
REMARK VINA RESULT:      -9.6      1.975      4.425
REMARK  Name = 131836733
REMARK  9 active torsions:
REMARK  status: ('A' for Active; 'I' for Inactive)
REMARK    1  A    between atoms: O_7  and  C_28
REMARK    2  A    between atoms: O_7  and  C_37
REMARK    3  A    between atoms: C_20  and  C_22
REMARK    4  A    between atoms: C_21  and  C_23
REMARK    5  A    between atoms: C_27  and  C_34
REMARK    6  A    between atoms: C_31  and  C_35
REMARK    7  A    between atoms: C_35  and  C_36
REMARK    8  A    between atoms: C_36  and  C_38
REMARK    9  A    between atoms: C_38  and  C_39
REMARK                            x       y       z     vdW  Elec       q    Type
REMARK                         _______ _______ _______ _____ _____    ______ ____
ROOT
ATOM      1  O   UNL     1     110.560 125.377 138.187  0.00  0.00    +0.000 OA
ATOM      2  C   UNL     1     111.028 125.797 137.653  0.00  0.00    +0.000 C 
ENDROOT
BRANCH   2   9
ATOM      3  O   UNL     1     110.388 127.276 137.299  0.00  0.00    +0.000 OA
ATOM      4  O   UNL     1     109.912 126.427 134.612  0.00  0.00    +0.000 OA
ATOM      5  O   UNL     1     111.111 124.633 136.487  0.00  0.00    +0.000 OA
ATOM      6  C   UNL     1     110.151 126.851 135.956  0.00  0.00    +0.000 A 
ATOM      7  C   UNL     1     110.430 126.694 136.716  0.00  0.00    +0.000 A 
ATOM      8  C   UNL     1     110.191 126.270 135.373  0.00  0.00    +0.000 A 
ATOM      9  C   UNL     1     110.749 125.955 136.893  0.00  0.00    +0.000 A 
ATOM     10  C   UNL     1     110.512 125.530 135.550  0.00  0.00    +0.000 A 
ATOM     11  C   UNL     1     110.791 125.372 136.310  0.00  0.00    +0.000 A 
BRANCH   6  19
ATOM     12  O   UNL     1     110.315 128.193 135.490  0.00  0.00    +0.000 OA
ATOM     13  O   UNL     1     107.899 128.606 135.826  0.00  0.00    +0.000 OA
ATOM     14  O   UNL     1     108.539 127.127 136.180  0.00  0.00    +0.000 OA
ATOM     15  O   UNL     1     108.869 129.809 135.248  0.00  0.00    +0.000 OA
ATOM     16  C   UNL     1     108.704 128.469 135.714  0.00  0.00    +0.000 C 
ATOM     17  C   UNL     1     109.025 127.729 135.891  0.00  0.00    +0.000 C 
ATOM     18  C   UNL     1     109.189 129.070 135.425  0.00  0.00    +0.000 C 
ATOM     19  C   UNL     1     109.830 127.591 135.779  0.00  0.00    +0.000 C 
ATOM     20  C   UNL     1     109.995 128.931 135.313  0.00  0.00    +0.000 C 
BRANCH  20  22
ATOM     21  O   UNL     1     111.287 129.394 134.910  0.00  0.00    +0.000 OA
ATOM     22  C   UNL     1     110.481 129.533 135.024  0.00  0.00    +0.000 C 
ENDBRANCH  20  22
ENDBRANCH   6  19
ENDBRANCH   2   9
BRANCH   2  23
ATOM     23  C   UNL     1     111.777 126.060 137.881  0.00  0.00    +0.000 C 
BRANCH  23  24
ATOM     24  C   UNL     1     112.067 125.881 138.633  0.00  0.00    +0.000 C 
BRANCH  24  26
ATOM     25  C   UNL     1     113.450 127.207 139.678  0.00  0.00    +0.000 A 
ATOM     26  C   UNL     1     112.769 126.223 138.896  0.00  0.00    +0.000 A 
ATOM     27  C   UNL     1     112.746 126.864 139.414  0.00  0.00    +0.000 A 
ATOM     28  C   UNL     1     114.175 126.907 139.423  0.00  0.00    +0.000 A 
ATOM     29  C   UNL     1     113.495 125.924 138.642  0.00  0.00    +0.000 A 
ATOM     30  C   UNL     1     114.197 126.266 138.905  0.00  0.00    +0.000 A 
BRANCH  25  31
ATOM     31  O   UNL     1     113.427 127.849 140.196  0.00  0.00    +0.000 OA
BRANCH  31  40
ATOM     32  O   UNL     1     113.166 128.853 139.214  0.00  0.00    +0.000 OA
ATOM     33  O   UNL     1     114.620 130.434 140.443  0.00  0.00    +0.000 OA
ATOM     34  O   UNL     1     113.874 130.910 139.052  0.00  0.00    +0.000 OA
ATOM     35  O   UNL     1     114.397 128.902 141.015  0.00  0.00    +0.000 OA
ATOM     36  C   UNL     1     114.135 129.907 140.033  0.00  0.00    +0.000 C 
ATOM     37  C   UNL     1     113.762 130.145 139.337  0.00  0.00    +0.000 C 
ATOM     38  C   UNL     1     114.024 129.140 140.320  0.00  0.00    +0.000 C 
ATOM     39  C   UNL     1     113.277 129.618 138.928  0.00  0.00    +0.000 C 
ATOM     40  C   UNL     1     113.539 128.614 139.910  0.00  0.00    +0.000 C 
BRANCH  39  43
ATOM     41  O   UNL     1     112.135 130.154 138.257  0.00  0.00    +0.000 OA
ATOM     42  O   UNL     1     113.300 129.798 137.511  0.00  0.00    +0.000 OA
ATOM     43  C   UNL     1     112.904 129.856 138.233  0.00  0.00    +0.000 C 
ENDBRANCH  39  43
ENDBRANCH  31  40
ENDBRANCH  25  31
ENDBRANCH  24  26
ENDBRANCH  23  24
ENDBRANCH   2  23
TORSDOF 9
ENDMDL
MODEL 5
REMARK VINA RESULT:      -9.5      1.671      5.228
REMARK  Name = 131836733
REMARK  9 active torsions:
REMARK  status: ('A' for Active; 'I' for Inactive)
REMARK    1  A    between atoms: O_7  and  C_28
REMARK    2  A    between atoms: O_7  and  C_37
REMARK    3  A    between atoms: C_20  and  C_22
REMARK    4  A    between atoms: C_21  and  C_23
REMARK    5  A    between atoms: C_27  and  C_34
REMARK    6  A    between atoms: C_31  and  C_35
REMARK    7  A    between atoms: C_35  and  C_36
REMARK    8  A    between atoms: C_36  and  C_38
REMARK    9  A    between atoms: C_38  and  C_39
REMARK                            x       y       z     vdW  Elec       q    Type
REMARK                         _______ _______ _______ _____ _____    ______ ____
ROOT
ATOM      1  O   UNL     1     108.431 126.720 136.501  0.00  0.00    +0.000 OA
ATOM      2  C   UNL     1     109.201 126.988 136.626  0.00  0.00    +0.000 C 
ENDROOT
BRANCH   2   9
ATOM      3  O   UNL     1     109.215 127.211 138.261  0.00  0.00    +0.000 OA
ATOM      4  O   UNL     1     111.270 125.240 138.511  0.00  0.00    +0.000 OA
ATOM      5  O   UNL     1     110.221 125.892 135.934  0.00  0.00    +0.000 OA
ATOM      6  C   UNL     1     110.243 126.225 138.385  0.00  0.00    +0.000 A 
ATOM      7  C   UNL     1     109.725 126.662 137.914  0.00  0.00    +0.000 A 
ATOM      8  C   UNL     1     110.753 125.677 138.040  0.00  0.00    +0.000 A 
ATOM      9  C   UNL     1     109.718 126.551 137.097  0.00  0.00    +0.000 A 
ATOM     10  C   UNL     1     110.745 125.566 137.222  0.00  0.00    +0.000 A 
ATOM     11  C   UNL     1     110.228 126.003 136.750  0.00  0.00    +0.000 A 
BRANCH   6  19
ATOM     12  O   UNL     1     109.715 125.928 139.680  0.00  0.00    +0.000 OA
ATOM     13  O   UNL     1     111.343 127.488 140.701  0.00  0.00    +0.000 OA
ATOM     14  O   UNL     1     111.328 127.265 139.067  0.00  0.00    +0.000 OA
ATOM     15  O   UNL     1     110.273 126.670 141.655  0.00  0.00    +0.000 OA
ATOM     16  C   UNL     1     110.800 126.968 140.362  0.00  0.00    +0.000 C 
ATOM     17  C   UNL     1     110.793 126.856 139.543  0.00  0.00    +0.000 C 
ATOM     18  C   UNL     1     110.265 126.559 140.838  0.00  0.00    +0.000 C 
ATOM     19  C   UNL     1     110.250 126.337 139.204  0.00  0.00    +0.000 C 
ATOM     20  C   UNL     1     109.723 126.039 140.497  0.00  0.00    +0.000 C 
BRANCH  20  22
ATOM     21  O   UNL     1     109.189 124.805 140.983  0.00  0.00    +0.000 OA
ATOM     22  C   UNL     1     109.188 125.631 140.974  0.00  0.00    +0.000 C 
ENDBRANCH  20  22
ENDBRANCH   6  19
ENDBRANCH   2   9
BRANCH   2  23
ATOM     23  C   UNL     1     109.453 127.694 136.280  0.00  0.00    +0.000 C 
BRANCH  23  24
ATOM     24  C   UNL     1     108.931 128.139 135.823  0.00  0.00    +0.000 C 
BRANCH  24  26
ATOM     25  C   UNL     1     109.035 130.283 135.424  0.00  0.00    +0.000 A 
ATOM     26  C   UNL     1     109.172 128.862 135.509  0.00  0.00    +0.000 A 
ATOM     27  C   UNL     1     108.794 129.559 135.739  0.00  0.00    +0.000 A 
ATOM     28  C   UNL     1     109.654 130.310 134.880  0.00  0.00    +0.000 A 
ATOM     29  C   UNL     1     109.791 128.890 134.964  0.00  0.00    +0.000 A 
ATOM     30  C   UNL     1     110.032 129.613 134.650  0.00  0.00    +0.000 A 
BRANCH  25  31
ATOM     31  O   UNL     1     108.657 130.979 135.654  0.00  0.00    +0.000 OA
BRANCH  31  40
ATOM     32  O   UNL     1     109.675 131.496 136.514  0.00  0.00    +0.000 OA
ATOM     33  O   UNL     1     107.945 132.209 138.134  0.00  0.00    +0.000 OA
ATOM     34  O   UNL     1     109.539 132.487 138.453  0.00  0.00    +0.000 OA
ATOM     35  O   UNL     1     107.504 131.455 136.734  0.00  0.00    +0.000 OA
ATOM     36  C   UNL     1     108.522 131.971 137.594  0.00  0.00    +0.000 C 
ATOM     37  C   UNL     1     109.319 132.110 137.753  0.00  0.00    +0.000 C 
ATOM     38  C   UNL     1     108.301 131.594 136.894  0.00  0.00    +0.000 C 
ATOM     39  C   UNL     1     109.896 131.873 137.213  0.00  0.00    +0.000 C 
ATOM     40  C   UNL     1     108.878 131.356 136.354  0.00  0.00    +0.000 C 
BRANCH  39  43
ATOM     41  O   UNL     1     111.123 131.473 137.826  0.00  0.00    +0.000 OA
ATOM     42  O   UNL     1     111.059 132.690 137.081  0.00  0.00    +0.000 OA
ATOM     43  C   UNL     1     110.692 132.012 137.373  0.00  0.00    +0.000 C 
ENDBRANCH  39  43
ENDBRANCH  31  40
ENDBRANCH  25  31
ENDBRANCH  24  26
ENDBRANCH  23  24
ENDBRANCH   2  23
TORSDOF 9
ENDMDL
MODEL 6
REMARK VINA RESULT:      -9.5      1.519      2.205
REMARK  Name = 131836733
REMARK  9 active torsions:
REMARK  status: ('A' for Active; 'I' for Inactive)
REMARK    1  A    between atoms: O_7  and  C_28
REMARK    2  A    between atoms: O_7  and  C_37
REMARK    3  A    between atoms: C_20  and  C_22
REMARK    4  A    between atoms: C_21  and  C_23
REMARK    5  A    between atoms: C_27  and  C_34
REMARK    6  A    between atoms: C_31  and  C_35
REMARK    7  A    between atoms: C_35  and  C_36
REMARK    8  A    between atoms: C_36  and  C_38
REMARK    9  A    between atoms: C_38  and  C_39
REMARK                            x       y       z     vdW  Elec       q    Type
REMARK                         _______ _______ _______ _____ _____    ______ ____
ROOT
ATOM      1  O   UNL     1     108.974 128.581 137.228  0.00  0.00    +0.000 OA
ATOM      2  C   UNL     1     109.569 128.732 136.677  0.00  0.00    +0.000 C 
ENDROOT
BRANCH   2   9
ATOM      3  O   UNL     1     111.030 128.959 137.411  0.00  0.00    +0.000 OA
ATOM      4  O   UNL     1     111.019 131.695 136.583  0.00  0.00    +0.000 OA
ATOM      5  O   UNL     1     108.834 129.986 135.897  0.00  0.00    +0.000 OA
ATOM      6  C   UNL     1     111.024 130.327 136.997  0.00  0.00    +0.000 A 
ATOM      7  C   UNL     1     110.662 129.586 137.020  0.00  0.00    +0.000 A 
ATOM      8  C   UNL     1     110.657 130.954 136.607  0.00  0.00    +0.000 A 
ATOM      9  C   UNL     1     109.932 129.472 136.654  0.00  0.00    +0.000 A 
ATOM     10  C   UNL     1     109.926 130.840 136.240  0.00  0.00    +0.000 A 
ATOM     11  C   UNL     1     109.564 130.099 136.263  0.00  0.00    +0.000 A 
BRANCH   6  19
ATOM     12  O   UNL     1     112.451 130.372 136.926  0.00  0.00    +0.000 OA
ATOM     13  O   UNL     1     112.552 130.919 139.338  0.00  0.00    +0.000 OA
ATOM     14  O   UNL     1     111.092 130.692 138.604  0.00  0.00    +0.000 OA
ATOM     15  O   UNL     1     113.945 130.783 138.464  0.00  0.00    +0.000 OA
ATOM     16  C   UNL     1     112.519 130.737 138.534  0.00  0.00    +0.000 C 
ATOM     17  C   UNL     1     111.788 130.623 138.167  0.00  0.00    +0.000 C 
ATOM     18  C   UNL     1     113.215 130.669 138.097  0.00  0.00    +0.000 C 
ATOM     19  C   UNL     1     111.755 130.441 137.364  0.00  0.00    +0.000 C 
ATOM     20  C   UNL     1     113.181 130.486 137.293  0.00  0.00    +0.000 C 
BRANCH  20  22
ATOM     21  O   UNL     1     113.858 130.096 136.096  0.00  0.00    +0.000 OA
ATOM     22  C   UNL     1     113.877 130.418 136.856  0.00  0.00    +0.000 C 
ENDBRANCH  20  22
ENDBRANCH   6  19
ENDBRANCH   2   9
BRANCH   2  23
ATOM     23  C   UNL     1     109.803 128.141 136.150  0.00  0.00    +0.000 C 
BRANCH  23  24
ATOM     24  C   UNL     1     109.423 127.408 136.157  0.00  0.00    +0.000 C 
BRANCH  24  26
ATOM     25  C   UNL     1     110.523 125.538 135.922  0.00  0.00    +0.000 A 
ATOM     26  C   UNL     1     109.782 126.755 135.805  0.00  0.00    +0.000 A 
ATOM     27  C   UNL     1     110.163 126.192 136.273  0.00  0.00    +0.000 A 
ATOM     28  C   UNL     1     110.501 125.447 135.102  0.00  0.00    +0.000 A 
ATOM     29  C   UNL     1     109.761 126.663 134.985  0.00  0.00    +0.000 A 
ATOM     30  C   UNL     1     110.121 126.009 134.634  0.00  0.00    +0.000 A 
BRANCH  25  31
ATOM     31  O   UNL     1     110.904 124.975 136.390  0.00  0.00    +0.000 OA
BRANCH  31  40
ATOM     32  O   UNL     1     112.080 125.749 136.633  0.00  0.00    +0.000 OA
ATOM     33  O   UNL     1     113.446 123.686 136.593  0.00  0.00    +0.000 OA
ATOM     34  O   UNL     1     114.166 125.147 136.850  0.00  0.00    +0.000 OA
ATOM     35  O   UNL     1     111.815 123.600 136.363  0.00  0.00    +0.000 OA
ATOM     36  C   UNL     1     112.991 124.374 136.607  0.00  0.00    +0.000 C 
ATOM     37  C   UNL     1     113.351 125.105 136.735  0.00  0.00    +0.000 C 
ATOM     38  C   UNL     1     112.174 124.331 136.492  0.00  0.00    +0.000 C 
ATOM     39  C   UNL     1     112.895 125.792 136.748  0.00  0.00    +0.000 C 
ATOM     40  C   UNL     1     111.719 125.018 136.505  0.00  0.00    +0.000 C 
BRANCH  39  43
ATOM     41  O   UNL     1     113.327 126.819 137.644  0.00  0.00    +0.000 OA
ATOM     42  O   UNL     1     113.545 126.958 136.238  0.00  0.00    +0.000 OA
ATOM     43  C   UNL     1     113.256 126.523 136.877  0.00  0.00    +0.000 C 
ENDBRANCH  39  43
ENDBRANCH  31  40
ENDBRANCH  25  31
ENDBRANCH  24  26
ENDBRANCH  23  24
ENDBRANCH   2  23
TORSDOF 9
ENDMDL
MODEL 7
REMARK VINA RESULT:      -9.5      0.956      1.803
REMARK  Name = 131836733
REMARK  9 active torsions:
REMARK  status: ('A' for Active; 'I' for Inactive)
REMARK    1  A    between atoms: O_7  and  C_28
REMARK    2  A    between atoms: O_7  and  C_37
REMARK    3  A    between atoms: C_20  and  C_22
REMARK    4  A    between atoms: C_21  and  C_23
REMARK    5  A    between atoms: C_27  and  C_34
REMARK    6  A    between atoms: C_31  and  C_35
REMARK    7  A    between atoms: C_35  and  C_36
REMARK    8  A    between atoms: C_36  and  C_38
REMARK    9  A    between atoms: C_38  and  C_39
REMARK                            x       y       z     vdW  Elec       q    Type
REMARK                         _______ _______ _______ _____ _____    ______ ____
ROOT
ATOM      1  O   UNL     1     110.849 129.786 134.998  0.00  0.00    +0.000 OA
ATOM      2  C   UNL     1     110.225 129.456 135.424  0.00  0.00    +0.000 C 
ENDROOT
BRANCH   2   9
ATOM      3  O   UNL     1     110.471 129.921 136.988  0.00  0.00    +0.000 OA
ATOM      4  O   UNL     1     108.035 131.413 136.928  0.00  0.00    +0.000 OA
ATOM      5  O   UNL     1     108.883 129.970 134.612  0.00  0.00    +0.000 OA
ATOM      6  C   UNL     1     109.253 130.667 136.957  0.00  0.00    +0.000 A 
ATOM      7  C   UNL     1     109.801 130.177 136.581  0.00  0.00    +0.000 A 
ATOM      8  C   UNL     1     108.582 130.924 136.552  0.00  0.00    +0.000 A 
ATOM      9  C   UNL     1     109.677 129.945 135.800  0.00  0.00    +0.000 A 
ATOM     10  C   UNL     1     108.459 130.691 135.769  0.00  0.00    +0.000 A 
ATOM     11  C   UNL     1     109.006 130.202 135.393  0.00  0.00    +0.000 A 
BRANCH   6  19
ATOM     12  O   UNL     1     109.119 130.418 138.359  0.00  0.00    +0.000 OA
ATOM     13  O   UNL     1     110.260 132.560 138.847  0.00  0.00    +0.000 OA
ATOM     14  O   UNL     1     110.013 132.095 137.283  0.00  0.00    +0.000 OA
ATOM     15  O   UNL     1     109.746 131.598 140.085  0.00  0.00    +0.000 OA
ATOM     16  C   UNL     1     109.880 131.846 138.685  0.00  0.00    +0.000 C 
ATOM     17  C   UNL     1     109.756 131.613 137.902  0.00  0.00    +0.000 C 
ATOM     18  C   UNL     1     109.623 131.365 139.304  0.00  0.00    +0.000 C 
ATOM     19  C   UNL     1     109.376 130.900 137.740  0.00  0.00    +0.000 C 
ATOM     20  C   UNL     1     109.242 130.651 139.140  0.00  0.00    +0.000 C 
BRANCH  20  22
ATOM     21  O   UNL     1     108.204 129.905 139.779  0.00  0.00    +0.000 OA
ATOM     22  C   UNL     1     108.986 130.170 139.759  0.00  0.00    +0.000 C 
ENDBRANCH  20  22
ENDBRANCH   6  19
ENDBRANCH   2   9
BRANCH   2  23
ATOM     23  C   UNL     1     110.148 128.635 135.474  0.00  0.00    +0.000 C 
BRANCH  23  24
ATOM     24  C   UNL     1     110.646 128.147 135.033  0.00  0.00    +0.000 C 
BRANCH  24  26
ATOM     25  C   UNL     1     111.274 126.139 135.617  0.00  0.00    +0.000 A 
ATOM     26  C   UNL     1     110.635 127.331 135.154  0.00  0.00    +0.000 A 
ATOM     27  C   UNL     1     111.284 126.956 135.497  0.00  0.00    +0.000 A 
ATOM     28  C   UNL     1     110.613 125.699 135.395  0.00  0.00    +0.000 A 
ATOM     29  C   UNL     1     109.974 126.890 134.931  0.00  0.00    +0.000 A 
ATOM     30  C   UNL     1     109.963 126.074 135.051  0.00  0.00    +0.000 A 
BRANCH  25  31
ATOM     31  O   UNL     1     111.923 125.764 135.960  0.00  0.00    +0.000 OA
BRANCH  31  40
ATOM     32  O   UNL     1     111.420 125.752 137.298  0.00  0.00    +0.000 OA
ATOM     33  O   UNL     1     113.705 126.148 138.161  0.00  0.00    +0.000 OA
ATOM     34  O   UNL     1     112.441 126.004 139.210  0.00  0.00    +0.000 OA
ATOM     35  O   UNL     1     113.447 126.028 136.536  0.00  0.00    +0.000 OA
ATOM     36  C   UNL     1     112.944 126.016 137.873  0.00  0.00    +0.000 C 
ATOM     37  C   UNL     1     112.311 125.944 138.398  0.00  0.00    +0.000 C 
ATOM     38  C   UNL     1     112.814 125.956 137.060  0.00  0.00    +0.000 C 
ATOM     39  C   UNL     1     111.549 125.812 138.110  0.00  0.00    +0.000 C 
ATOM     40  C   UNL     1     112.052 125.824 136.772  0.00  0.00    +0.000 C 
BRANCH  39  43
ATOM     41  O   UNL     1     110.714 125.000 138.938  0.00  0.00    +0.000 OA
ATOM     42  O   UNL     1     110.487 126.409 138.856  0.00  0.00    +0.000 OA
ATOM     43  C   UNL     1     110.917 125.740 138.634  0.00  0.00    +0.000 C 
ENDBRANCH  39  43
ENDBRANCH  31  40
ENDBRANCH  25  31
ENDBRANCH  24  26
ENDBRANCH  23  24
ENDBRANCH   2  23
TORSDOF 9
ENDMDL
MODEL 8
REMARK VINA RESULT:      -9.4      1.756      2.769
REMARK  Name = 131836733
REMARK  9 active torsions:
REMARK  status: ('A' for Active; 'I' for Inactive)
REMARK    1  A    between atoms: O_7  and  C_28
REMARK    2  A    between atoms: O_7  and  C_37
REMARK    3  A    between atoms: C_20  and  C_22
REMARK    4  A    between atoms: C_21  and  C_23
REMARK    5  A    between atoms: C_27  and  C_34
REMARK    6  A    between atoms: C_31  and  C_35
REMARK    7  A    between atoms: C_35  and  C_36
REMARK    8  A    between atoms: C_36  and  C_38
REMARK    9  A    between atoms: C_38  and  C_39
REMARK                            x       y       z     vdW  Elec       q    Type
REMARK                         _______ _______ _______ _____ _____    ______ ____
ROOT
ATOM      1  O   UNL     1     111.855 129.103 134.612  0.00  0.00    +0.000 OA
ATOM      2  C   UNL     1     111.407 128.960 135.290  0.00  0.00    +0.000 C 
ENDROOT
BRANCH   2   9
ATOM      3  O   UNL     1     112.477 128.937 136.546  0.00  0.00    +0.000 OA
ATOM      4  O   UNL     1     111.220 131.251 137.658  0.00  0.00    +0.000 OA
ATOM      5  O   UNL     1     110.244 130.128 135.218  0.00  0.00    +0.000 OA
ATOM      6  C   UNL     1     111.848 130.094 137.102  0.00  0.00    +0.000 A 
ATOM      7  C   UNL     1     111.895 129.521 136.510  0.00  0.00    +0.000 A 
ATOM      8  C   UNL     1     111.267 130.678 137.066  0.00  0.00    +0.000 A 
ATOM      9  C   UNL     1     111.361 129.533 135.882  0.00  0.00    +0.000 A 
ATOM     10  C   UNL     1     110.732 130.690 136.437  0.00  0.00    +0.000 A 
ATOM     11  C   UNL     1     110.779 130.117 135.845  0.00  0.00    +0.000 A 
BRANCH   6  19
ATOM     12  O   UNL     1     112.234 129.612 138.391  0.00  0.00    +0.000 OA
ATOM     13  O   UNL     1     114.286 130.992 138.293  0.00  0.00    +0.000 OA
ATOM     14  O   UNL     1     113.216 131.014 137.037  0.00  0.00    +0.000 OA
ATOM     15  O   UNL     1     113.987 130.050 139.614  0.00  0.00    +0.000 OA
ATOM     16  C   UNL     1     113.602 130.532 138.326  0.00  0.00    +0.000 C 
ATOM     17  C   UNL     1     113.067 130.543 137.697  0.00  0.00    +0.000 C 
ATOM     18  C   UNL     1     113.453 130.061 138.987  0.00  0.00    +0.000 C 
ATOM     19  C   UNL     1     112.383 130.083 137.730  0.00  0.00    +0.000 C 
ATOM     20  C   UNL     1     112.769 129.601 139.018  0.00  0.00    +0.000 C 
BRANCH  20  22
ATOM     21  O   UNL     1     111.893 129.182 140.068  0.00  0.00    +0.000 OA
ATOM     22  C   UNL     1     112.619 129.130 139.679  0.00  0.00    +0.000 C 
ENDBRANCH  20  22
ENDBRANCH   6  19
ENDBRANCH   2   9
BRANCH   2  23
ATOM     23  C   UNL     1     111.006 128.243 135.376  0.00  0.00    +0.000 C 
BRANCH  23  24
ATOM     24  C   UNL     1     111.082 127.657 134.802  0.00  0.00    +0.000 C 
BRANCH  24  26
ATOM     25  C   UNL     1     111.043 125.601 135.536  0.00  0.00    +0.000 A 
ATOM     26  C   UNL     1     110.822 126.890 134.958  0.00  0.00    +0.000 A 
ATOM     27  C   UNL     1     111.304 126.369 135.379  0.00  0.00    +0.000 A 
ATOM     28  C   UNL     1     110.301 125.356 135.273  0.00  0.00    +0.000 A 
ATOM     29  C   UNL     1     110.079 126.644 134.696  0.00  0.00    +0.000 A 
ATOM     30  C   UNL     1     109.819 125.878 134.852  0.00  0.00    +0.000 A 
BRANCH  25  31
ATOM     31  O   UNL     1     111.525 125.080 135.956  0.00  0.00    +0.000 OA
BRANCH  31  40
ATOM     32  O   UNL     1     111.145 125.444 137.285  0.00  0.00    +0.000 OA
ATOM     33  O   UNL     1     113.516 125.353 137.989  0.00  0.00    +0.000 OA
ATOM     34  O   UNL     1     112.345 125.747 139.081  0.00  0.00    +0.000 OA
ATOM     35  O   UNL     1     113.106 125.020 136.425  0.00  0.00    +0.000 OA
ATOM     36  C   UNL     1     112.726 125.383 137.754  0.00  0.00    +0.000 C 
ATOM     37  C   UNL     1     112.140 125.580 138.300  0.00  0.00    +0.000 C 
ATOM     38  C   UNL     1     112.520 125.216 136.972  0.00  0.00    +0.000 C 
ATOM     39  C   UNL     1     111.349 125.610 138.066  0.00  0.00    +0.000 C 
ATOM     40  C   UNL     1     111.730 125.247 136.737  0.00  0.00    +0.000 C 
BRANCH  39  43
ATOM     41  O   UNL     1     110.484 126.582 138.656  0.00  0.00    +0.000 OA
ATOM     42  O   UNL     1     110.459 125.229 139.116  0.00  0.00    +0.000 OA
ATOM     43  C   UNL     1     110.765 125.807 138.612  0.00  0.00    +0.000 C 
ENDBRANCH  39  43
ENDBRANCH  31  40
ENDBRANCH  25  31
ENDBRANCH  24  26
ENDBRANCH  23  24
ENDBRANCH   2  23
TORSDOF 9
ENDMDL
MODEL 9
REMARK VINA RESULT:      -9.3      1.363      5.365
REMARK  Name = 131836733
REMARK  9 active torsions:
REMARK  status: ('A' for Active; 'I' for Inactive)
REMARK    1  A    between atoms: O_7  and  C_28
REMARK    2  A    between atoms: O_7  and  C_37
REMARK    3  A    between atoms: C_20  and  C_22
REMARK    4  A    between atoms: C_21  and  C_23
REMARK    5  A    between atoms: C_27  and  C_34
REMARK    6  A    between atoms: C_31  and  C_35
REMARK    7  A    between atoms: C_35  and  C_36
REMARK    8  A    between atoms: C_36  and  C_38
REMARK    9  A    between atoms: C_38  and  C_39
REMARK                            x       y       z     vdW  Elec       q    Type
REMARK                         _______ _______ _______ _____ _____    ______ ____
ROOT
ATOM      1  O   UNL     1     111.264 127.045 134.612  0.00  0.00    +0.000 OA
ATOM      2  C   UNL     1     110.921 126.979 135.359  0.00  0.00    +0.000 C 
ENDROOT
BRANCH   2   9
ATOM      3  O   UNL     1     112.087 127.149 136.514  0.00  0.00    +0.000 OA
ATOM      4  O   UNL     1     111.692 124.434 137.313  0.00  0.00    +0.000 OA
ATOM      5  O   UNL     1     110.140 125.536 135.182  0.00  0.00    +0.000 OA
ATOM      6  C   UNL     1     111.889 125.792 136.913  0.00  0.00    +0.000 A 
ATOM      7  C   UNL     1     111.696 126.428 136.424  0.00  0.00    +0.000 A 
ATOM      8  C   UNL     1     111.499 125.070 136.825  0.00  0.00    +0.000 A 
ATOM      9  C   UNL     1     111.113 126.342 135.848  0.00  0.00    +0.000 A 
ATOM     10  C   UNL     1     110.916 124.985 136.247  0.00  0.00    +0.000 A 
ATOM     11  C   UNL     1     110.723 125.621 135.758  0.00  0.00    +0.000 A 
BRANCH   6  19
ATOM     12  O   UNL     1     112.273 126.157 138.241  0.00  0.00    +0.000 OA
ATOM     13  O   UNL     1     114.621 125.571 137.723  0.00  0.00    +0.000 OA
ATOM     14  O   UNL     1     113.455 125.401 136.568  0.00  0.00    +0.000 OA
ATOM     15  O   UNL     1     114.222 126.132 139.222  0.00  0.00    +0.000 OA
ATOM     16  C   UNL     1     113.839 125.766 137.896  0.00  0.00    +0.000 C 
ATOM     17  C   UNL     1     113.255 125.681 137.318  0.00  0.00    +0.000 C 
ATOM     18  C   UNL     1     113.639 126.047 138.645  0.00  0.00    +0.000 C 
ATOM     19  C   UNL     1     112.473 125.877 137.491  0.00  0.00    +0.000 C 
ATOM     20  C   UNL     1     112.856 126.242 138.817  0.00  0.00    +0.000 C 
BRANCH  20  22
ATOM     21  O   UNL     1     111.989 126.228 139.954  0.00  0.00    +0.000 OA
ATOM     22  C   UNL     1     112.657 126.523 139.567  0.00  0.00    +0.000 C 
ENDBRANCH  20  22
ENDBRANCH   6  19
ENDBRANCH   2   9
BRANCH   2  23
ATOM     23  C   UNL     1     110.383 127.550 135.617  0.00  0.00    +0.000 C 
BRANCH  23  24
ATOM     24  C   UNL     1     110.184 128.181 135.125  0.00  0.00    +0.000 C 
BRANCH  24  26
ATOM     25  C   UNL     1     109.808 130.183 135.910  0.00  0.00    +0.000 A 
ATOM     26  C   UNL     1     109.788 128.835 135.434  0.00  0.00    +0.000 A 
ATOM     27  C   UNL     1     110.204 129.528 135.601  0.00  0.00    +0.000 A 
ATOM     28  C   UNL     1     108.996 130.144 136.052  0.00  0.00    +0.000 A 
ATOM     29  C   UNL     1     108.976 128.797 135.577  0.00  0.00    +0.000 A 
ATOM     30  C   UNL     1     108.580 129.451 135.886  0.00  0.00    +0.000 A 
BRANCH  25  31
ATOM     31  O   UNL     1     110.223 130.876 136.076  0.00  0.00    +0.000 OA
BRANCH  31  40
ATOM     32  O   UNL     1     110.802 130.466 137.317  0.00  0.00    +0.000 OA
ATOM     33  O   UNL     1     110.403 132.724 138.249  0.00  0.00    +0.000 OA
ATOM     34  O   UNL     1     111.113 131.561 139.179  0.00  0.00    +0.000 OA
ATOM     35  O   UNL     1     109.957 132.381 136.698  0.00  0.00    +0.000 OA
ATOM     36  C   UNL     1     110.536 131.971 137.939  0.00  0.00    +0.000 C 
ATOM     37  C   UNL     1     110.891 131.389 138.403  0.00  0.00    +0.000 C 
ATOM     38  C   UNL     1     110.313 131.800 137.162  0.00  0.00    +0.000 C 
ATOM     39  C   UNL     1     111.024 130.637 138.092  0.00  0.00    +0.000 C 
ATOM     40  C   UNL     1     110.446 131.047 136.852  0.00  0.00    +0.000 C 
BRANCH  39  43
ATOM     41  O   UNL     1     110.925 129.613 139.084  0.00  0.00    +0.000 OA
ATOM     42  O   UNL     1     112.190 129.918 138.495  0.00  0.00    +0.000 OA
ATOM     43  C   UNL     1     111.379 130.056 138.557  0.00  0.00    +0.000 C 
ENDBRANCH  39  43
ENDBRANCH  31  40
ENDBRANCH  25  31
ENDBRANCH  24  26
ENDBRANCH  23  24
ENDBRANCH   2  23
TORSDOF 9
ENDMDL
MODEL 10
REMARK VINA RESULT:      -9.3      1.576      6.118
REMARK  Name = 131836733
REMARK  9 active torsions:
REMARK  status: ('A' for Active; 'I' for Inactive)
REMARK    1  A    between atoms: O_7  and  C_28
REMARK    2  A    between atoms: O_7  and  C_37
REMARK    3  A    between atoms: C_20  and  C_22
REMARK    4  A    between atoms: C_21  and  C_23
REMARK    5  A    between atoms: C_27  and  C_34
REMARK    6  A    between atoms: C_31  and  C_35
REMARK    7  A    between atoms: C_35  and  C_36
REMARK    8  A    between atoms: C_36  and  C_38
REMARK    9  A    between atoms: C_38  and  C_39
REMARK                            x       y       z     vdW  Elec       q    Type
REMARK                         _______ _______ _______ _____ _____    ______ ____
ROOT
ATOM      1  O   UNL     1     112.391 128.780 135.152  0.00  0.00    +0.000 OA
ATOM      2  C   UNL     1     112.007 128.600 135.860  0.00  0.00    +0.000 C 
ENDROOT
BRANCH   2   9
ATOM      3  O   UNL     1     112.039 126.952 135.790  0.00  0.00    +0.000 OA
ATOM      4  O   UNL     1     113.575 126.880 138.200  0.00  0.00    +0.000 OA
ATOM      5  O   UNL     1     112.759 129.389 137.099  0.00  0.00    +0.000 OA
ATOM      6  C   UNL     1     112.807 126.917 136.995  0.00  0.00    +0.000 A 
ATOM      7  C   UNL     1     112.415 127.347 136.410  0.00  0.00    +0.000 A 
ATOM      8  C   UNL     1     113.183 127.310 137.615  0.00  0.00    +0.000 A 
ATOM      9  C   UNL     1     112.399 128.170 136.445  0.00  0.00    +0.000 A 
ATOM     10  C   UNL     1     113.167 128.135 137.649  0.00  0.00    +0.000 A 
ATOM     11  C   UNL     1     112.775 128.565 137.064  0.00  0.00    +0.000 A 
BRANCH   6  19
ATOM     12  O   UNL     1     112.197 125.654 137.271  0.00  0.00    +0.000 OA
ATOM     13  O   UNL     1     114.123 124.497 136.234  0.00  0.00    +0.000 OA
ATOM     14  O   UNL     1     114.091 126.145 136.303  0.00  0.00    +0.000 OA
ATOM     15  O   UNL     1     112.871 123.620 136.856  0.00  0.00    +0.000 OA
ATOM     16  C   UNL     1     113.481 124.882 136.580  0.00  0.00    +0.000 C 
ATOM     17  C   UNL     1     113.465 125.707 136.614  0.00  0.00    +0.000 C 
ATOM     18  C   UNL     1     112.855 124.444 136.891  0.00  0.00    +0.000 C 
ATOM     19  C   UNL     1     112.823 126.092 136.960  0.00  0.00    +0.000 C 
ATOM     20  C   UNL     1     112.213 124.830 137.236  0.00  0.00    +0.000 C 
BRANCH  20  22
ATOM     21  O   UNL     1     111.201 124.650 138.230  0.00  0.00    +0.000 OA
ATOM     22  C   UNL     1     111.587 124.392 137.548  0.00  0.00    +0.000 C 
ENDBRANCH  20  22
ENDBRANCH   6  19
ENDBRANCH   2   9
BRANCH   2  23
ATOM     23  C   UNL     1     111.230 128.851 135.982  0.00  0.00    +0.000 C 
BRANCH  23  24
ATOM     24  C   UNL     1     110.819 129.232 135.377  0.00  0.00    +0.000 C 
BRANCH  24  26
ATOM     25  C   UNL     1     109.242 130.685 135.786  0.00  0.00    +0.000 A 
ATOM     26  C   UNL     1     110.073 129.552 135.523  0.00  0.00    +0.000 A 
ATOM     27  C   UNL     1     109.989 130.364 135.640  0.00  0.00    +0.000 A 
ATOM     28  C   UNL     1     108.581 130.192 135.815  0.00  0.00    +0.000 A 
ATOM     29  C   UNL     1     109.411 129.060 135.552  0.00  0.00    +0.000 A 
ATOM     30  C   UNL     1     108.665 129.380 135.697  0.00  0.00    +0.000 A 
BRANCH  25  31
ATOM     31  O   UNL     1     109.158 131.497 135.904  0.00  0.00    +0.000 OA
BRANCH  31  40
ATOM     32  O   UNL     1     109.177 131.464 137.332  0.00  0.00    +0.000 OA
ATOM     33  O   UNL     1     110.444 133.590 137.364  0.00  0.00    +0.000 OA
ATOM     34  O   UNL     1     110.042 132.848 138.781  0.00  0.00    +0.000 OA
ATOM     35  O   UNL     1     110.002 132.914 135.925  0.00  0.00    +0.000 OA
ATOM     36  C   UNL     1     110.022 132.881 137.353  0.00  0.00    +0.000 C 
ATOM     37  C   UNL     1     109.820 132.510 138.062  0.00  0.00    +0.000 C 
ATOM     38  C   UNL     1     109.801 132.543 136.633  0.00  0.00    +0.000 C 
ATOM     39  C   UNL     1     109.398 131.802 138.051  0.00  0.00    +0.000 C 
ATOM     40  C   UNL     1     109.378 131.834 136.623  0.00  0.00    +0.000 C 
BRANCH  39  43
ATOM     41  O   UNL     1     109.746 130.951 139.145  0.00  0.00    +0.000 OA
ATOM     42  O   UNL     1     108.446 131.541 139.084  0.00  0.00    +0.000 OA
ATOM     43  C   UNL     1     109.197 131.431 138.760  0.00  0.00    +0.000 C 
ENDBRANCH  39  43
ENDBRANCH  31  40
ENDBRANCH  25  31
ENDBRANCH  24  26
ENDBRANCH  23  24
ENDBRANCH   2  23
TORSDOF 9
ENDMDL
