MODEL 1
REMARK VINA RESULT:     -11.0      0.000      0.000
REMARK  Name = 131833341
REMARK  8 active torsions:
REMARK  status: ('A' for Active; 'I' for Inactive)
REMARK    1  A    between atoms: O_3  and  C_34
REMARK    2  A    between atoms: O_3  and  C_37
REMARK    3  A    between atoms: C_22  and  C_27
REMARK    4  A    between atoms: C_23  and  C_29
REMARK    5  A    between atoms: C_32  and  C_41
REMARK    6  A    between atoms: C_33  and  C_42
REMARK    7  A    between atoms: C_44  and  C_48
REMARK    8  A    between atoms: C_46  and  C_49
REMARK                            x       y       z     vdW  Elec       q    Type
REMARK                         _______ _______ _______ _____ _____    ______ ____
ROOT
ATOM      1  O   UNL     1     112.018 126.943 137.686  0.00  0.00    +0.000 OA
ATOM      2  O   UNL     1     111.585 129.668 135.886  0.00  0.00    +0.000 OA
ATOM      3  O   UNL     1     112.383 128.722 135.212  0.00  0.00    +0.000 OA
ATOM      4  C   UNL     1     111.038 128.215 138.406  0.00  0.00    +0.000 A 
ATOM      5  C   UNL     1     110.734 129.697 137.562  0.00  0.00    +0.000 A 
ATOM      6  C   UNL     1     110.613 129.120 138.369  0.00  0.00    +0.000 A 
ATOM      7  C   UNL     1     111.582 127.888 137.634  0.00  0.00    +0.000 A 
ATOM      8  C   UNL     1     111.280 129.369 136.790  0.00  0.00    +0.000 A 
ATOM      9  C   UNL     1     111.704 128.465 136.826  0.00  0.00    +0.000 A 
ATOM     10  C   UNL     1     112.269 128.137 136.015  0.00  0.00    +0.000 A 
ATOM     11  C   UNL     1     112.588 126.595 136.887  0.00  0.00    +0.000 A 
ATOM     12  C   UNL     1     112.714 127.196 136.045  0.00  0.00    +0.000 A 
ENDROOT
BRANCH   4  17
ATOM     13  O   UNL     1     111.577 127.684 139.963  0.00  0.00    +0.000 OA
ATOM     14  O   UNL     1     109.477 126.971 138.521  0.00  0.00    +0.000 OA
ATOM     15  O   UNL     1     109.236 125.817 140.136  0.00  0.00    +0.000 OA
ATOM     16  O   UNL     1     110.555 125.907 141.636  0.00  0.00    +0.000 OA
ATOM     17  C   UNL     1     110.917 127.638 139.213  0.00  0.00    +0.000 C 
ATOM     18  C   UNL     1     110.136 127.016 139.271  0.00  0.00    +0.000 C 
ATOM     19  C   UNL     1     110.016 126.438 140.079  0.00  0.00    +0.000 C 
ATOM     20  C   UNL     1     110.676 126.484 140.829  0.00  0.00    +0.000 C 
ATOM     21  C   UNL     1     111.456 127.106 140.771  0.00  0.00    +0.000 C 
BRANCH  21  23
ATOM     22  O   UNL     1     112.886 127.789 141.472  0.00  0.00    +0.000 OA
ATOM     23  C   UNL     1     112.116 127.152 141.521  0.00  0.00    +0.000 C 
ENDBRANCH  21  23
ENDBRANCH   4  17
BRANCH   5  28
ATOM     24  O   UNL     1     109.635 130.696 136.671  0.00  0.00    +0.000 OA
ATOM     25  O   UNL     1     111.874 131.639 137.898  0.00  0.00    +0.000 OA
ATOM     26  O   UNL     1     111.331 133.097 137.268  0.00  0.00    +0.000 OA
ATOM     27  O   UNL     1     109.666 133.295 136.178  0.00  0.00    +0.000 OA
ATOM     28  C   UNL     1     110.467 130.597 137.216  0.00  0.00    +0.000 C 
ATOM     29  C   UNL     1     111.033 131.397 137.415  0.00  0.00    +0.000 C 
ATOM     30  C   UNL     1     110.766 132.297 137.069  0.00  0.00    +0.000 C 
ATOM     31  C   UNL     1     109.933 132.396 136.524  0.00  0.00    +0.000 C 
ATOM     32  C   UNL     1     109.368 131.595 136.325  0.00  0.00    +0.000 C 
BRANCH  32  34
ATOM     33  O   UNL     1     107.781 131.142 135.426  0.00  0.00    +0.000 OA
ATOM     34  C   UNL     1     108.535 131.695 135.780  0.00  0.00    +0.000 C 
ENDBRANCH  32  34
ENDBRANCH   5  28
BRANCH  11  36
ATOM     35  O   UNL     1     112.289 123.144 136.934  0.00  0.00    +0.000 OA
ATOM     36  C   UNL     1     113.010 125.690 136.926  0.00  0.00    +0.000 A 
ATOM     37  C   UNL     1     112.439 124.869 136.911  0.00  0.00    +0.000 A 
ATOM     38  C   UNL     1     114.006 125.604 136.981  0.00  0.00    +0.000 A 
ATOM     39  C   UNL     1     112.861 123.964 136.950  0.00  0.00    +0.000 A 
ATOM     40  C   UNL     1     114.428 124.698 137.020  0.00  0.00    +0.000 A 
ATOM     41  C   UNL     1     113.855 123.879 137.005  0.00  0.00    +0.000 A 
ENDBRANCH  11  36
BRANCH   6  42
ATOM     42  O   UNL     1     110.068 129.448 139.141  0.00  0.00    +0.000 OA
BRANCH  42  47
ATOM     43  O   UNL     1     110.536 130.244 140.606  0.00  0.00    +0.000 OA
ATOM     44  O   UNL     1     108.147 129.825 139.550  0.00  0.00    +0.000 OA
ATOM     45  O   UNL     1     107.655 130.809 141.220  0.00  0.00    +0.000 OA
ATOM     46  O   UNL     1     109.084 131.416 142.481  0.00  0.00    +0.000 OA
ATOM     47  C   UNL     1     109.822 129.940 139.976  0.00  0.00    +0.000 C 
ATOM     48  C   UNL     1     108.861 130.129 140.181  0.00  0.00    +0.000 C 
ATOM     49  C   UNL     1     108.615 130.621 141.016  0.00  0.00    +0.000 C 
ATOM     50  C   UNL     1     109.330 130.924 141.646  0.00  0.00    +0.000 C 
ATOM     51  C   UNL     1     110.290 130.736 141.441  0.00  0.00    +0.000 C 
BRANCH  51  54
ATOM     52  O   UNL     1     111.350 131.976 142.022  0.00  0.00    +0.000 OA
ATOM     53  O   UNL     1     111.374 130.406 142.752  0.00  0.00    +0.000 OA
ATOM     54  C   UNL     1     111.005 131.039 142.072  0.00  0.00    +0.000 C 
ENDBRANCH  51  54
ENDBRANCH  42  47
ENDBRANCH   6  42
TORSDOF 8
ENDMDL
MODEL 2
REMARK VINA RESULT:     -10.9      0.828      1.933
REMARK  Name = 131833341
REMARK  8 active torsions:
REMARK  status: ('A' for Active; 'I' for Inactive)
REMARK    1  A    between atoms: O_3  and  C_34
REMARK    2  A    between atoms: O_3  and  C_37
REMARK    3  A    between atoms: C_22  and  C_27
REMARK    4  A    between atoms: C_23  and  C_29
REMARK    5  A    between atoms: C_32  and  C_41
REMARK    6  A    between atoms: C_33  and  C_42
REMARK    7  A    between atoms: C_44  and  C_48
REMARK    8  A    between atoms: C_46  and  C_49
REMARK                            x       y       z     vdW  Elec       q    Type
REMARK                         _______ _______ _______ _____ _____    ______ ____
ROOT
ATOM      1  O   UNL     1     111.678 126.828 137.524  0.00  0.00    +0.000 OA
ATOM      2  O   UNL     1     110.839 129.396 135.638  0.00  0.00    +0.000 OA
ATOM      3  O   UNL     1     111.244 128.292 134.862  0.00  0.00    +0.000 OA
ATOM      4  C   UNL     1     111.149 128.282 138.363  0.00  0.00    +0.000 A 
ATOM      5  C   UNL     1     110.681 129.701 137.486  0.00  0.00    +0.000 A 
ATOM      6  C   UNL     1     110.821 129.227 138.356  0.00  0.00    +0.000 A 
ATOM      7  C   UNL     1     111.337 127.812 137.501  0.00  0.00    +0.000 A 
ATOM      8  C   UNL     1     110.869 129.230 136.624  0.00  0.00    +0.000 A 
ATOM      9  C   UNL     1     111.197 128.286 136.632  0.00  0.00    +0.000 A 
ATOM     10  C   UNL     1     111.388 127.808 135.726  0.00  0.00    +0.000 A 
ATOM     11  C   UNL     1     111.875 126.331 136.631  0.00  0.00    +0.000 A 
ATOM     12  C   UNL     1     111.729 126.824 135.725  0.00  0.00    +0.000 A 
ENDROOT
BRANCH   4  17
ATOM     13  O   UNL     1     110.524 127.343 139.677  0.00  0.00    +0.000 OA
ATOM     14  O   UNL     1     112.960 128.263 139.211  0.00  0.00    +0.000 OA
ATOM     15  O   UNL     1     113.240 127.315 140.949  0.00  0.00    +0.000 OA
ATOM     16  O   UNL     1     111.709 126.385 141.839  0.00  0.00    +0.000 OA
ATOM     17  C   UNL     1     111.289 127.808 139.232  0.00  0.00    +0.000 C 
ATOM     18  C   UNL     1     112.195 127.798 139.656  0.00  0.00    +0.000 C 
ATOM     19  C   UNL     1     112.335 127.324 140.526  0.00  0.00    +0.000 C 
ATOM     20  C   UNL     1     111.569 126.859 140.971  0.00  0.00    +0.000 C 
ATOM     21  C   UNL     1     110.664 126.869 140.546  0.00  0.00    +0.000 C 
BRANCH  21  23
ATOM     22  O   UNL     1     108.988 126.428 140.575  0.00  0.00    +0.000 OA
ATOM     23  C   UNL     1     109.898 126.404 140.991  0.00  0.00    +0.000 C 
ENDBRANCH  21  23
ENDBRANCH   4  17
BRANCH   5  28
ATOM     24  O   UNL     1     109.444 130.710 136.815  0.00  0.00    +0.000 OA
ATOM     25  O   UNL     1     111.973 131.571 137.340  0.00  0.00    +0.000 OA
ATOM     26  O   UNL     1     111.364 133.013 136.737  0.00  0.00    +0.000 OA
ATOM     27  O   UNL     1     109.487 133.254 136.092  0.00  0.00    +0.000 OA
ATOM     28  C   UNL     1     110.383 130.589 137.138  0.00  0.00    +0.000 C 
ATOM     29  C   UNL     1     111.023 131.357 137.111  0.00  0.00    +0.000 C 
ATOM     30  C   UNL     1     110.724 132.245 136.763  0.00  0.00    +0.000 C 
ATOM     31  C   UNL     1     109.785 132.366 136.440  0.00  0.00    +0.000 C 
ATOM     32  C   UNL     1     109.145 131.598 136.466  0.00  0.00    +0.000 C 
BRANCH  32  34
ATOM     33  O   UNL     1     107.366 131.192 136.017  0.00  0.00    +0.000 OA
ATOM     34  C   UNL     1     108.206 131.719 136.144  0.00  0.00    +0.000 C 
ENDBRANCH  32  34
ENDBRANCH   5  28
BRANCH  11  36
ATOM     35  O   UNL     1     114.381 124.033 137.292  0.00  0.00    +0.000 OA
ATOM     36  C   UNL     1     112.203 125.386 136.641  0.00  0.00    +0.000 A 
ATOM     37  C   UNL     1     113.128 125.181 136.961  0.00  0.00    +0.000 A 
ATOM     38  C   UNL     1     111.606 124.646 136.332  0.00  0.00    +0.000 A 
ATOM     39  C   UNL     1     113.456 124.237 136.972  0.00  0.00    +0.000 A 
ATOM     40  C   UNL     1     111.934 123.701 136.343  0.00  0.00    +0.000 A 
ATOM     41  C   UNL     1     112.859 123.497 136.663  0.00  0.00    +0.000 A 
ENDBRANCH  11  36
BRANCH   6  42
ATOM     42  O   UNL     1     110.634 129.698 139.218  0.00  0.00    +0.000 OA
BRANCH  42  47
ATOM     43  O   UNL     1     109.135 129.967 140.044  0.00  0.00    +0.000 OA
ATOM     44  O   UNL     1     111.582 130.822 140.573  0.00  0.00    +0.000 OA
ATOM     45  O   UNL     1     110.558 131.653 142.077  0.00  0.00    +0.000 OA
ATOM     46  O   UNL     1     108.585 131.360 142.225  0.00  0.00    +0.000 OA
ATOM     47  C   UNL     1     110.122 130.113 139.970  0.00  0.00    +0.000 C 
ATOM     48  C   UNL     1     110.596 130.675 140.647  0.00  0.00    +0.000 C 
ATOM     49  C   UNL     1     110.084 131.091 141.399  0.00  0.00    +0.000 C 
ATOM     50  C   UNL     1     109.097 130.944 141.473  0.00  0.00    +0.000 C 
ATOM     51  C   UNL     1     108.623 130.382 140.795  0.00  0.00    +0.000 C 
BRANCH  51  54
ATOM     52  O   UNL     1     107.283 129.335 141.122  0.00  0.00    +0.000 OA
ATOM     53  O   UNL     1     107.004 130.989 140.691  0.00  0.00    +0.000 OA
ATOM     54  C   UNL     1     107.637 130.236 140.869  0.00  0.00    +0.000 C 
ENDBRANCH  51  54
ENDBRANCH  42  47
ENDBRANCH   6  42
TORSDOF 8
ENDMDL
MODEL 3
REMARK VINA RESULT:     -10.8      2.364      5.064
REMARK  Name = 131833341
REMARK  8 active torsions:
REMARK  status: ('A' for Active; 'I' for Inactive)
REMARK    1  A    between atoms: O_3  and  C_34
REMARK    2  A    between atoms: O_3  and  C_37
REMARK    3  A    between atoms: C_22  and  C_27
REMARK    4  A    between atoms: C_23  and  C_29
REMARK    5  A    between atoms: C_32  and  C_41
REMARK    6  A    between atoms: C_33  and  C_42
REMARK    7  A    between atoms: C_44  and  C_48
REMARK    8  A    between atoms: C_46  and  C_49
REMARK                            x       y       z     vdW  Elec       q    Type
REMARK                         _______ _______ _______ _____ _____    ______ ____
ROOT
ATOM      1  O   UNL     1     112.697 129.993 137.877  0.00  0.00    +0.000 OA
ATOM      2  O   UNL     1     113.582 130.582 140.996  0.00  0.00    +0.000 OA
ATOM      3  O   UNL     1     114.693 130.597 140.128  0.00  0.00    +0.000 OA
ATOM      4  C   UNL     1     111.406 130.005 139.074  0.00  0.00    +0.000 A 
ATOM      5  C   UNL     1     111.741 130.302 140.748  0.00  0.00    +0.000 A 
ATOM      6  C   UNL     1     111.087 130.105 140.017  0.00  0.00    +0.000 A 
ATOM      7  C   UNL     1     112.378 130.101 138.863  0.00  0.00    +0.000 A 
ATOM      8  C   UNL     1     112.713 130.398 140.536  0.00  0.00    +0.000 A 
ATOM      9  C   UNL     1     113.032 130.297 139.595  0.00  0.00    +0.000 A 
ATOM     10  C   UNL     1     114.049 130.400 139.389  0.00  0.00    +0.000 A 
ATOM     11  C   UNL     1     113.708 130.092 137.649  0.00  0.00    +0.000 A 
ATOM     12  C   UNL     1     114.389 130.297 138.411  0.00  0.00    +0.000 A 
ENDROOT
BRANCH   4  17
ATOM     13  O   UNL     1     110.500 128.862 138.140  0.00  0.00    +0.000 OA
ATOM     14  O   UNL     1     110.607 131.502 138.018  0.00  0.00    +0.000 OA
ATOM     15  O   UNL     1     109.301 131.109 136.556  0.00  0.00    +0.000 OA
ATOM     16  O   UNL     1     108.794 129.218 136.150  0.00  0.00    +0.000 OA
ATOM     17  C   UNL     1     110.753 129.808 138.343  0.00  0.00    +0.000 C 
ATOM     18  C   UNL     1     110.353 130.557 137.815  0.00  0.00    +0.000 C 
ATOM     19  C   UNL     1     109.700 130.360 137.083  0.00  0.00    +0.000 C 
ATOM     20  C   UNL     1     109.447 129.414 136.880  0.00  0.00    +0.000 C 
ATOM     21  C   UNL     1     109.847 128.665 137.409  0.00  0.00    +0.000 C 
BRANCH  21  23
ATOM     22  O   UNL     1     109.418 127.077 137.953  0.00  0.00    +0.000 OA
ATOM     23  C   UNL     1     109.594 127.719 137.206  0.00  0.00    +0.000 C 
ENDBRANCH  21  23
ENDBRANCH   4  17
BRANCH   5  28
ATOM     24  O   UNL     1     111.713 131.385 142.099  0.00  0.00    +0.000 OA
ATOM     25  O   UNL     1     111.894 128.679 142.337  0.00  0.00    +0.000 OA
ATOM     26  O   UNL     1     111.921 129.051 143.973  0.00  0.00    +0.000 OA
ATOM     27  O   UNL     1     111.824 130.911 144.700  0.00  0.00    +0.000 OA
ATOM     28  C   UNL     1     111.762 130.454 141.736  0.00  0.00    +0.000 C 
ATOM     29  C   UNL     1     111.831 129.676 142.360  0.00  0.00    +0.000 C 
ATOM     30  C   UNL     1     111.852 129.829 143.348  0.00  0.00    +0.000 C 
ATOM     31  C   UNL     1     111.804 130.759 143.712  0.00  0.00    +0.000 C 
ATOM     32  C   UNL     1     111.734 131.537 143.088  0.00  0.00    +0.000 C 
BRANCH  32  34
ATOM     33  O   UNL     1     111.753 133.416 143.141  0.00  0.00    +0.000 OA
ATOM     34  C   UNL     1     111.686 132.467 143.451  0.00  0.00    +0.000 C 
ENDBRANCH  32  34
ENDBRANCH   5  28
BRANCH  11  36
ATOM     35  O   UNL     1     115.410 131.345 134.906  0.00  0.00    +0.000 OA
ATOM     36  C   UNL     1     114.024 129.991 136.706  0.00  0.00    +0.000 A 
ATOM     37  C   UNL     1     114.559 130.718 136.277  0.00  0.00    +0.000 A 
ATOM     38  C   UNL     1     113.805 129.161 136.191  0.00  0.00    +0.000 A 
ATOM     39  C   UNL     1     114.875 130.617 135.334  0.00  0.00    +0.000 A 
ATOM     40  C   UNL     1     114.122 129.061 135.248  0.00  0.00    +0.000 A 
ATOM     41  C   UNL     1     114.657 129.789 134.820  0.00  0.00    +0.000 A 
ENDBRANCH  11  36
BRANCH   6  42
ATOM     42  O   UNL     1     110.114 130.009 140.228  0.00  0.00    +0.000 OA
BRANCH  42  47
ATOM     43  O   UNL     1     109.186 128.714 140.906  0.00  0.00    +0.000 OA
ATOM     44  O   UNL     1     108.611 131.277 140.592  0.00  0.00    +0.000 OA
ATOM     45  O   UNL     1     106.931 130.616 141.451  0.00  0.00    +0.000 OA
ATOM     46  O   UNL     1     106.754 128.686 141.947  0.00  0.00    +0.000 OA
ATOM     47  C   UNL     1     109.274 129.679 140.658  0.00  0.00    +0.000 C 
ATOM     48  C   UNL     1     108.522 130.312 140.840  0.00  0.00    +0.000 C 
ATOM     49  C   UNL     1     107.682 129.982 141.270  0.00  0.00    +0.000 C 
ATOM     50  C   UNL     1     107.594 129.017 141.518  0.00  0.00    +0.000 C 
ATOM     51  C   UNL     1     108.346 128.383 141.336  0.00  0.00    +0.000 C 
BRANCH  51  54
ATOM     52  O   UNL     1     108.570 127.102 142.479  0.00  0.00    +0.000 OA
ATOM     53  O   UNL     1     107.856 126.770 140.937  0.00  0.00    +0.000 OA
ATOM     54  C   UNL     1     108.257 127.418 141.584  0.00  0.00    +0.000 C 
ENDBRANCH  51  54
ENDBRANCH  42  47
ENDBRANCH   6  42
TORSDOF 8
ENDMDL
MODEL 4
REMARK VINA RESULT:     -10.7      2.600      4.539
REMARK  Name = 131833341
REMARK  8 active torsions:
REMARK  status: ('A' for Active; 'I' for Inactive)
REMARK    1  A    between atoms: O_3  and  C_34
REMARK    2  A    between atoms: O_3  and  C_37
REMARK    3  A    between atoms: C_22  and  C_27
REMARK    4  A    between atoms: C_23  and  C_29
REMARK    5  A    between atoms: C_32  and  C_41
REMARK    6  A    between atoms: C_33  and  C_42
REMARK    7  A    between atoms: C_44  and  C_48
REMARK    8  A    between atoms: C_46  and  C_49
REMARK                            x       y       z     vdW  Elec       q    Type
REMARK                         _______ _______ _______ _____ _____    ______ ____
ROOT
ATOM      1  O   UNL     1     111.949 129.435 138.275  0.00  0.00    +0.000 OA
ATOM      2  O   UNL     1     108.756 129.666 139.055  0.00  0.00    +0.000 OA
ATOM      3  O   UNL     1     108.951 129.665 137.660  0.00  0.00    +0.000 OA
ATOM      4  C   UNL     1     111.556 129.449 139.991  0.00  0.00    +0.000 A 
ATOM      5  C   UNL     1     109.915 129.566 140.532  0.00  0.00    +0.000 A 
ATOM      6  C   UNL     1     110.891 129.491 140.736  0.00  0.00    +0.000 A 
ATOM      7  C   UNL     1     111.245 129.481 139.042  0.00  0.00    +0.000 A 
ATOM      8  C   UNL     1     109.604 129.598 139.582  0.00  0.00    +0.000 A 
ATOM      9  C   UNL     1     110.269 129.556 138.837  0.00  0.00    +0.000 A 
ATOM     10  C   UNL     1     109.930 129.590 137.852  0.00  0.00    +0.000 A 
ATOM     11  C   UNL     1     111.633 129.468 137.284  0.00  0.00    +0.000 A 
ATOM     12  C   UNL     1     110.617 129.546 137.071  0.00  0.00    +0.000 A 
ENDROOT
BRANCH   4  17
ATOM     13  O   UNL     1     113.080 130.200 140.325  0.00  0.00    +0.000 OA
ATOM     14  O   UNL     1     112.412 127.648 140.138  0.00  0.00    +0.000 OA
ATOM     15  O   UNL     1     114.364 127.499 140.546  0.00  0.00    +0.000 OA
ATOM     16  O   UNL     1     115.460 129.150 140.806  0.00  0.00    +0.000 OA
ATOM     17  C   UNL     1     112.532 129.374 140.195  0.00  0.00    +0.000 C 
ATOM     18  C   UNL     1     112.960 128.473 140.268  0.00  0.00    +0.000 C 
ATOM     19  C   UNL     1     113.937 128.399 140.472  0.00  0.00    +0.000 C 
ATOM     20  C   UNL     1     114.485 129.225 140.603  0.00  0.00    +0.000 C 
ATOM     21  C   UNL     1     114.056 130.126 140.529  0.00  0.00    +0.000 C 
BRANCH  21  23
ATOM     22  O   UNL     1     114.399 131.574 141.416  0.00  0.00    +0.000 OA
ATOM     23  C   UNL     1     114.604 130.952 140.659  0.00  0.00    +0.000 C 
ENDBRANCH  21  23
ENDBRANCH   4  17
BRANCH   5  28
ATOM     24  O   UNL     1     108.527 128.795 141.223  0.00  0.00    +0.000 OA
ATOM     25  O   UNL     1     108.898 131.492 141.198  0.00  0.00    +0.000 OA
ATOM     26  O   UNL     1     107.417 131.476 141.987  0.00  0.00    +0.000 OA
ATOM     27  O   UNL     1     106.399 129.811 142.423  0.00  0.00    +0.000 OA
ATOM     28  C   UNL     1     109.036 129.627 141.005  0.00  0.00    +0.000 C 
ATOM     29  C   UNL     1     108.666 130.521 141.259  0.00  0.00    +0.000 C 
ATOM     30  C   UNL     1     107.787 130.582 141.732  0.00  0.00    +0.000 C 
ATOM     31  C   UNL     1     107.278 129.750 141.951  0.00  0.00    +0.000 C 
ATOM     32  C   UNL     1     107.648 128.856 141.696  0.00  0.00    +0.000 C 
BRANCH  32  34
ATOM     33  O   UNL     1     106.899 127.142 141.507  0.00  0.00    +0.000 OA
ATOM     34  C   UNL     1     107.138 128.024 141.914  0.00  0.00    +0.000 C 
ENDBRANCH  32  34
ENDBRANCH   5  28
BRANCH  11  36
ATOM     35  O   UNL     1     114.730 130.310 135.981  0.00  0.00    +0.000 OA
ATOM     36  C   UNL     1     112.301 129.425 136.540  0.00  0.00    +0.000 A 
ATOM     37  C   UNL     1     113.182 129.889 136.632  0.00  0.00    +0.000 A 
ATOM     38  C   UNL     1     112.087 128.918 135.705  0.00  0.00    +0.000 A 
ATOM     39  C   UNL     1     113.849 129.846 135.889  0.00  0.00    +0.000 A 
ATOM     40  C   UNL     1     112.755 128.876 134.962  0.00  0.00    +0.000 A 
ATOM     41  C   UNL     1     113.636 129.340 135.054  0.00  0.00    +0.000 A 
ENDBRANCH  11  36
BRANCH   6  42
ATOM     42  O   UNL     1     111.202 129.459 141.686  0.00  0.00    +0.000 OA
BRANCH  42  47
ATOM     43  O   UNL     1     111.470 130.703 142.861  0.00  0.00    +0.000 OA
ATOM     44  O   UNL     1     111.278 128.078 143.131  0.00  0.00    +0.000 OA
ATOM     45  O   UNL     1     111.583 128.632 145.029  0.00  0.00    +0.000 OA
ATOM     46  O   UNL     1     111.812 130.567 145.481  0.00  0.00    +0.000 OA
ATOM     47  C   UNL     1     111.355 129.736 142.635  0.00  0.00    +0.000 C 
ATOM     48  C   UNL     1     111.392 129.046 143.358  0.00  0.00    +0.000 C 
ATOM     49  C   UNL     1     111.545 129.323 144.306  0.00  0.00    +0.000 C 
ATOM     50  C   UNL     1     111.660 130.290 144.533  0.00  0.00    +0.000 C 
ATOM     51  C   UNL     1     111.622 130.980 143.810  0.00  0.00    +0.000 C 
BRANCH  51  54
ATOM     52  O   UNL     1     110.934 132.522 144.197  0.00  0.00    +0.000 OA
ATOM     53  O   UNL     1     112.654 132.340 144.103  0.00  0.00    +0.000 OA
ATOM     54  C   UNL     1     111.737 131.947 144.036  0.00  0.00    +0.000 C 
ENDBRANCH  51  54
ENDBRANCH  42  47
ENDBRANCH   6  42
TORSDOF 8
ENDMDL
MODEL 5
REMARK VINA RESULT:     -10.6      2.094      5.665
REMARK  Name = 131833341
REMARK  8 active torsions:
REMARK  status: ('A' for Active; 'I' for Inactive)
REMARK    1  A    between atoms: O_3  and  C_34
REMARK    2  A    between atoms: O_3  and  C_37
REMARK    3  A    between atoms: C_22  and  C_27
REMARK    4  A    between atoms: C_23  and  C_29
REMARK    5  A    between atoms: C_32  and  C_41
REMARK    6  A    between atoms: C_33  and  C_42
REMARK    7  A    between atoms: C_44  and  C_48
REMARK    8  A    between atoms: C_46  and  C_49
REMARK                            x       y       z     vdW  Elec       q    Type
REMARK                         _______ _______ _______ _____ _____    ______ ____
ROOT
ATOM      1  O   UNL     1     111.238 130.261 141.508  0.00  0.00    +0.000 OA
ATOM      2  O   UNL     1     109.017 131.377 139.345  0.00  0.00    +0.000 OA
ATOM      3  O   UNL     1     108.515 131.396 140.662  0.00  0.00    +0.000 OA
ATOM      4  C   UNL     1     111.731 130.294 139.819  0.00  0.00    +0.000 A 
ATOM      5  C   UNL     1     110.655 130.859 138.584  0.00  0.00    +0.000 A 
ATOM      6  C   UNL     1     111.544 130.489 138.856  0.00  0.00    +0.000 A 
ATOM      7  C   UNL     1     111.030 130.469 140.509  0.00  0.00    +0.000 A 
ATOM      8  C   UNL     1     109.954 131.034 139.275  0.00  0.00    +0.000 A 
ATOM      9  C   UNL     1     110.141 130.839 140.237  0.00  0.00    +0.000 A 
ATOM     10  C   UNL     1     109.400 131.026 140.946  0.00  0.00    +0.000 A 
ATOM     11  C   UNL     1     110.513 130.441 142.233  0.00  0.00    +0.000 A 
ATOM     12  C   UNL     1     109.588 130.826 141.950  0.00  0.00    +0.000 A 
ENDROOT
BRANCH   4  17
ATOM     13  O   UNL     1     113.386 130.542 140.264  0.00  0.00    +0.000 OA
ATOM     14  O   UNL     1     111.974 128.319 140.018  0.00  0.00    +0.000 OA
ATOM     15  O   UNL     1     113.750 127.580 140.563  0.00  0.00    +0.000 OA
ATOM     16  O   UNL     1     115.284 128.815 140.908  0.00  0.00    +0.000 OA
ATOM     17  C   UNL     1     112.619 129.924 140.091  0.00  0.00    +0.000 C 
ATOM     18  C   UNL     1     112.740 128.936 140.191  0.00  0.00    +0.000 C 
ATOM     19  C   UNL     1     113.629 128.567 140.463  0.00  0.00    +0.000 C 
ATOM     20  C   UNL     1     114.396 129.185 140.636  0.00  0.00    +0.000 C 
ATOM     21  C   UNL     1     114.274 130.173 140.536  0.00  0.00    +0.000 C 
BRANCH  21  23
ATOM     22  O   UNL     1     114.869 131.734 140.993  0.00  0.00    +0.000 OA
ATOM     23  C   UNL     1     115.041 130.791 140.709  0.00  0.00    +0.000 C 
ENDBRANCH  21  23
ENDBRANCH   4  17
BRANCH   5  28
ATOM     24  O   UNL     1     109.560 130.510 137.288  0.00  0.00    +0.000 OA
ATOM     25  O   UNL     1     110.777 132.921 137.627  0.00  0.00    +0.000 OA
ATOM     26  O   UNL     1     109.908 133.300 136.242  0.00  0.00    +0.000 OA
ATOM     27  O   UNL     1     108.697 132.021 135.295  0.00  0.00    +0.000 OA
ATOM     28  C   UNL     1     110.166 131.149 137.762  0.00  0.00    +0.000 C 
ATOM     29  C   UNL     1     110.282 132.079 137.413  0.00  0.00    +0.000 C 
ATOM     30  C   UNL     1     109.792 132.370 136.591  0.00  0.00    +0.000 C 
ATOM     31  C   UNL     1     109.187 131.730 136.117  0.00  0.00    +0.000 C 
ATOM     32  C   UNL     1     109.071 130.800 136.466  0.00  0.00    +0.000 C 
BRANCH  32  34
ATOM     33  O   UNL     1     108.114 129.229 136.081  0.00  0.00    +0.000 OA
ATOM     34  C   UNL     1     108.465 130.161 135.992  0.00  0.00    +0.000 C 
ENDBRANCH  32  34
ENDBRANCH   5  28
BRANCH  11  36
ATOM     35  O   UNL     1     111.823 128.354 144.667  0.00  0.00    +0.000 OA
ATOM     36  C   UNL     1     110.703 130.245 143.195  0.00  0.00    +0.000 A 
ATOM     37  C   UNL     1     111.168 129.397 143.451  0.00  0.00    +0.000 A 
ATOM     38  C   UNL     1     110.428 130.897 143.903  0.00  0.00    +0.000 A 
ATOM     39  C   UNL     1     111.358 129.201 144.413  0.00  0.00    +0.000 A 
ATOM     40  C   UNL     1     110.619 130.701 144.864  0.00  0.00    +0.000 A 
ATOM     41  C   UNL     1     111.083 129.853 145.119  0.00  0.00    +0.000 A 
ENDBRANCH  11  36
BRANCH   6  42
ATOM     42  O   UNL     1     112.245 130.314 138.165  0.00  0.00    +0.000 OA
BRANCH  42  47
ATOM     43  O   UNL     1     112.419 129.035 137.009  0.00  0.00    +0.000 OA
ATOM     44  O   UNL     1     113.693 131.342 137.245  0.00  0.00    +0.000 OA
ATOM     45  O   UNL     1     114.591 130.577 135.629  0.00  0.00    +0.000 OA
ATOM     46  O   UNL     1     114.040 128.785 134.934  0.00  0.00    +0.000 OA
ATOM     47  C   UNL     1     112.694 129.931 137.357  0.00  0.00    +0.000 C 
ATOM     48  C   UNL     1     113.418 130.445 136.897  0.00  0.00    +0.000 C 
ATOM     49  C   UNL     1     113.867 130.063 136.089  0.00  0.00    +0.000 C 
ATOM     50  C   UNL     1     113.592 129.167 135.741  0.00  0.00    +0.000 C 
ATOM     51  C   UNL     1     112.868 128.653 136.202  0.00  0.00    +0.000 C 
BRANCH  51  54
ATOM     52  O   UNL     1     111.810 127.679 135.236  0.00  0.00    +0.000 OA
ATOM     53  O   UNL     1     113.100 126.938 136.124  0.00  0.00    +0.000 OA
ATOM     54  C   UNL     1     112.592 127.757 135.854  0.00  0.00    +0.000 C 
ENDBRANCH  51  54
ENDBRANCH  42  47
ENDBRANCH   6  42
TORSDOF 8
ENDMDL
MODEL 6
REMARK VINA RESULT:     -10.6      2.377      5.005
REMARK  Name = 131833341
REMARK  8 active torsions:
REMARK  status: ('A' for Active; 'I' for Inactive)
REMARK    1  A    between atoms: O_3  and  C_34
REMARK    2  A    between atoms: O_3  and  C_37
REMARK    3  A    between atoms: C_22  and  C_27
REMARK    4  A    between atoms: C_23  and  C_29
REMARK    5  A    between atoms: C_32  and  C_41
REMARK    6  A    between atoms: C_33  and  C_42
REMARK    7  A    between atoms: C_44  and  C_48
REMARK    8  A    between atoms: C_46  and  C_49
REMARK                            x       y       z     vdW  Elec       q    Type
REMARK                         _______ _______ _______ _____ _____    ______ ____
ROOT
ATOM      1  O   UNL     1     112.583 129.744 138.030  0.00  0.00    +0.000 OA
ATOM      2  O   UNL     1     113.379 130.533 141.128  0.00  0.00    +0.000 OA
ATOM      3  O   UNL     1     114.448 130.768 140.241  0.00  0.00    +0.000 OA
ATOM      4  C   UNL     1     111.338 129.500 139.249  0.00  0.00    +0.000 A 
ATOM      5  C   UNL     1     111.630 129.877 140.915  0.00  0.00    +0.000 A 
ATOM      6  C   UNL     1     111.020 129.542 140.197  0.00  0.00    +0.000 A 
ATOM      7  C   UNL     1     112.266 129.793 139.021  0.00  0.00    +0.000 A 
ATOM      8  C   UNL     1     112.559 130.169 140.686  0.00  0.00    +0.000 A 
ATOM      9  C   UNL     1     112.876 130.127 139.739  0.00  0.00    +0.000 A 
ATOM     10  C   UNL     1     113.846 130.435 139.515  0.00  0.00    +0.000 A 
ATOM     11  C   UNL     1     113.548 130.046 137.783  0.00  0.00    +0.000 A 
ATOM     12  C   UNL     1     114.184 130.395 138.531  0.00  0.00    +0.000 A 
ENDROOT
BRANCH   4  17
ATOM     13  O   UNL     1     110.099 129.797 138.077  0.00  0.00    +0.000 OA
ATOM     14  O   UNL     1     111.375 127.572 138.723  0.00  0.00    +0.000 OA
ATOM     15  O   UNL     1     110.155 126.904 137.286  0.00  0.00    +0.000 OA
ATOM     16  O   UNL     1     108.897 128.164 136.377  0.00  0.00    +0.000 OA
ATOM     17  C   UNL     1     110.728 129.166 138.532  0.00  0.00    +0.000 C 
ATOM     18  C   UNL     1     110.746 128.202 138.268  0.00  0.00    +0.000 C 
ATOM     19  C   UNL     1     110.136 127.868 137.549  0.00  0.00    +0.000 C 
ATOM     20  C   UNL     1     109.507 128.498 137.095  0.00  0.00    +0.000 C 
ATOM     21  C   UNL     1     109.488 129.463 137.358  0.00  0.00    +0.000 C 
BRANCH  21  23
ATOM     22  O   UNL     1     108.447 130.846 137.418  0.00  0.00    +0.000 OA
ATOM     23  C   UNL     1     108.859 130.093 136.904  0.00  0.00    +0.000 C 
ENDBRANCH  21  23
ENDBRANCH   4  17
BRANCH   5  28
ATOM     24  O   UNL     1     111.489 130.963 142.256  0.00  0.00    +0.000 OA
ATOM     25  O   UNL     1     111.955 128.294 142.519  0.00  0.00    +0.000 OA
ATOM     26  O   UNL     1     111.943 128.682 144.152  0.00  0.00    +0.000 OA
ATOM     27  O   UNL     1     111.651 130.529 144.861  0.00  0.00    +0.000 OA
ATOM     28  C   UNL     1     111.635 130.040 141.902  0.00  0.00    +0.000 C 
ATOM     29  C   UNL     1     111.787 129.280 142.533  0.00  0.00    +0.000 C 
ATOM     30  C   UNL     1     111.792 129.443 143.520  0.00  0.00    +0.000 C 
ATOM     31  C   UNL     1     111.646 130.366 143.875  0.00  0.00    +0.000 C 
ATOM     32  C   UNL     1     111.494 131.126 143.243  0.00  0.00    +0.000 C 
BRANCH  32  34
ATOM     33  O   UNL     1     111.422 133.003 143.307  0.00  0.00    +0.000 OA
ATOM     34  C   UNL     1     111.348 132.050 143.598  0.00  0.00    +0.000 C 
ENDBRANCH  32  34
ENDBRANCH   5  28
BRANCH  11  36
ATOM     35  O   UNL     1     115.286 131.445 135.134  0.00  0.00    +0.000 OA
ATOM     36  C   UNL     1     113.863 130.003 136.835  0.00  0.00    +0.000 A 
ATOM     37  C   UNL     1     114.417 130.746 136.458  0.00  0.00    +0.000 A 
ATOM     38  C   UNL     1     113.624 129.218 136.264  0.00  0.00    +0.000 A 
ATOM     39  C   UNL     1     114.732 130.703 135.510  0.00  0.00    +0.000 A 
ATOM     40  C   UNL     1     113.939 129.176 135.316  0.00  0.00    +0.000 A 
ATOM     41  C   UNL     1     114.493 129.918 134.939  0.00  0.00    +0.000 A 
ENDBRANCH  11  36
BRANCH   6  42
ATOM     42  O   UNL     1     110.091 129.250 140.426  0.00  0.00    +0.000 OA
BRANCH  42  47
ATOM     43  O   UNL     1     108.694 130.143 140.925  0.00  0.00    +0.000 OA
ATOM     44  O   UNL     1     109.187 127.544 140.949  0.00  0.00    +0.000 OA
ATOM     45  O   UNL     1     107.338 127.585 141.709  0.00  0.00    +0.000 OA
ATOM     46  O   UNL     1     106.392 129.331 141.946  0.00  0.00    +0.000 OA
ATOM     47  C   UNL     1     109.166 129.270 140.806  0.00  0.00    +0.000 C 
ATOM     48  C   UNL     1     108.715 128.417 141.067  0.00  0.00    +0.000 C 
ATOM     49  C   UNL     1     107.790 128.437 141.447  0.00  0.00    +0.000 C 
ATOM     50  C   UNL     1     107.317 129.311 141.566  0.00  0.00    +0.000 C 
ATOM     51  C   UNL     1     107.769 130.163 141.304  0.00  0.00    +0.000 C 
BRANCH  51  54
ATOM     52  O   UNL     1     106.720 131.397 140.689  0.00  0.00    +0.000 OA
ATOM     53  O   UNL     1     107.399 131.549 142.275  0.00  0.00    +0.000 OA
ATOM     54  C   UNL     1     107.296 131.037 141.423  0.00  0.00    +0.000 C 
ENDBRANCH  51  54
ENDBRANCH  42  47
ENDBRANCH   6  42
TORSDOF 8
ENDMDL
MODEL 7
REMARK VINA RESULT:     -10.6      1.572      4.189
REMARK  Name = 131833341
REMARK  8 active torsions:
REMARK  status: ('A' for Active; 'I' for Inactive)
REMARK    1  A    between atoms: O_3  and  C_34
REMARK    2  A    between atoms: O_3  and  C_37
REMARK    3  A    between atoms: C_22  and  C_27
REMARK    4  A    between atoms: C_23  and  C_29
REMARK    5  A    between atoms: C_32  and  C_41
REMARK    6  A    between atoms: C_33  and  C_42
REMARK    7  A    between atoms: C_44  and  C_48
REMARK    8  A    between atoms: C_46  and  C_49
REMARK                            x       y       z     vdW  Elec       q    Type
REMARK                         _______ _______ _______ _____ _____    ______ ____
ROOT
ATOM      1  O   UNL     1     112.562 126.811 138.279  0.00  0.00    +0.000 OA
ATOM      2  O   UNL     1     113.412 128.120 141.180  0.00  0.00    +0.000 OA
ATOM      3  O   UNL     1     114.298 127.095 140.794  0.00  0.00    +0.000 OA
ATOM      4  C   UNL     1     111.540 128.108 138.888  0.00  0.00    +0.000 A 
ATOM      5  C   UNL     1     111.879 128.879 140.402  0.00  0.00    +0.000 A 
ATOM      6  C   UNL     1     111.311 128.789 139.583  0.00  0.00    +0.000 A 
ATOM      7  C   UNL     1     112.336 127.516 139.012  0.00  0.00    +0.000 A 
ATOM      8  C   UNL     1     112.676 128.287 140.525  0.00  0.00    +0.000 A 
ATOM      9  C   UNL     1     112.904 127.606 139.830  0.00  0.00    +0.000 A 
ATOM     10  C   UNL     1     113.737 126.996 139.972  0.00  0.00    +0.000 A 
ATOM     11  C   UNL     1     113.390 126.191 138.400  0.00  0.00    +0.000 A 
ATOM     12  C   UNL     1     113.982 126.284 139.252  0.00  0.00    +0.000 A 
ENDROOT
BRANCH   4  17
ATOM     13  O   UNL     1     111.192 128.544 137.249  0.00  0.00    +0.000 OA
ATOM     14  O   UNL     1     109.966 126.875 138.894  0.00  0.00    +0.000 OA
ATOM     15  O   UNL     1     108.830 126.695 137.258  0.00  0.00    +0.000 OA
ATOM     16  O   UNL     1     109.269 127.747 135.616  0.00  0.00    +0.000 OA
ATOM     17  C   UNL     1     110.972 128.017 138.070  0.00  0.00    +0.000 C 
ATOM     18  C   UNL     1     110.185 127.401 138.073  0.00  0.00    +0.000 C 
ATOM     19  C   UNL     1     109.617 127.311 137.254  0.00  0.00    +0.000 C 
ATOM     20  C   UNL     1     109.837 127.838 136.433  0.00  0.00    +0.000 C 
ATOM     21  C   UNL     1     110.624 128.454 136.430  0.00  0.00    +0.000 C 
BRANCH  21  23
ATOM     22  O   UNL     1     111.675 129.537 135.579  0.00  0.00    +0.000 OA
ATOM     23  C   UNL     1     110.844 128.981 135.609  0.00  0.00    +0.000 C 
ENDBRANCH  21  23
ENDBRANCH   4  17
BRANCH   5  28
ATOM     24  O   UNL     1     111.470 129.108 142.069  0.00  0.00    +0.000 OA
ATOM     25  O   UNL     1     113.003 130.846 140.640  0.00  0.00    +0.000 OA
ATOM     26  O   UNL     1     113.026 131.672 142.100  0.00  0.00    +0.000 OA
ATOM     27  O   UNL     1     112.098 131.046 143.757  0.00  0.00    +0.000 OA
ATOM     28  C   UNL     1     111.934 129.421 141.240  0.00  0.00    +0.000 C 
ATOM     29  C   UNL     1     112.453 130.276 141.251  0.00  0.00    +0.000 C 
ATOM     30  C   UNL     1     112.508 130.817 142.090  0.00  0.00    +0.000 C 
ATOM     31  C   UNL     1     112.043 130.504 142.918  0.00  0.00    +0.000 C 
ATOM     32  C   UNL     1     111.524 129.649 142.908  0.00  0.00    +0.000 C 
BRANCH  32  34
ATOM     33  O   UNL     1     110.301 128.747 144.013  0.00  0.00    +0.000 OA
ATOM     34  C   UNL     1     111.060 129.336 143.736  0.00  0.00    +0.000 C 
ENDBRANCH  32  34
ENDBRANCH   5  28
BRANCH  11  36
ATOM     35  O   UNL     1     112.476 123.479 136.449  0.00  0.00    +0.000 OA
ATOM     36  C   UNL     1     113.616 125.510 137.703  0.00  0.00    +0.000 A 
ATOM     37  C   UNL     1     112.933 124.834 137.424  0.00  0.00    +0.000 A 
ATOM     38  C   UNL     1     114.525 125.504 137.285  0.00  0.00    +0.000 A 
ATOM     39  C   UNL     1     113.159 124.154 136.728  0.00  0.00    +0.000 A 
ATOM     40  C   UNL     1     114.750 124.823 136.589  0.00  0.00    +0.000 A 
ATOM     41  C   UNL     1     114.066 124.148 136.310  0.00  0.00    +0.000 A 
ENDBRANCH  11  36
BRANCH   6  42
ATOM     42  O   UNL     1     110.515 129.381 139.460  0.00  0.00    +0.000 OA
BRANCH  42  47
ATOM     43  O   UNL     1     110.352 130.889 138.622  0.00  0.00    +0.000 OA
ATOM     44  O   UNL     1     108.650 129.569 140.159  0.00  0.00    +0.000 OA
ATOM     45  O   UNL     1     107.556 131.171 139.671  0.00  0.00    +0.000 OA
ATOM     46  O   UNL     1     108.326 132.584 138.484  0.00  0.00    +0.000 OA
ATOM     47  C   UNL     1     109.967 130.182 139.216  0.00  0.00    +0.000 C 
ATOM     48  C   UNL     1     109.035 130.276 139.566  0.00  0.00    +0.000 C 
ATOM     49  C   UNL     1     108.488 131.077 139.322  0.00  0.00    +0.000 C 
ATOM     50  C   UNL     1     108.873 131.783 138.728  0.00  0.00    +0.000 C 
ATOM     51  C   UNL     1     109.805 131.689 138.378  0.00  0.00    +0.000 C 
BRANCH  51  54
ATOM     52  O   UNL     1     110.282 132.229 136.803  0.00  0.00    +0.000 OA
ATOM     53  O   UNL     1     110.484 133.269 138.173  0.00  0.00    +0.000 OA
ATOM     54  C   UNL     1     110.190 132.396 137.785  0.00  0.00    +0.000 C 
ENDBRANCH  51  54
ENDBRANCH  42  47
ENDBRANCH   6  42
TORSDOF 8
ENDMDL
MODEL 8
REMARK VINA RESULT:     -10.5      2.410      5.131
REMARK  Name = 131833341
REMARK  8 active torsions:
REMARK  status: ('A' for Active; 'I' for Inactive)
REMARK    1  A    between atoms: O_3  and  C_34
REMARK    2  A    between atoms: O_3  and  C_37
REMARK    3  A    between atoms: C_22  and  C_27
REMARK    4  A    between atoms: C_23  and  C_29
REMARK    5  A    between atoms: C_32  and  C_41
REMARK    6  A    between atoms: C_33  and  C_42
REMARK    7  A    between atoms: C_44  and  C_48
REMARK    8  A    between atoms: C_46  and  C_49
REMARK                            x       y       z     vdW  Elec       q    Type
REMARK                         _______ _______ _______ _____ _____    ______ ____
ROOT
ATOM      1  O   UNL     1     112.512 129.948 138.019  0.00  0.00    +0.000 OA
ATOM      2  O   UNL     1     113.417 130.217 141.176  0.00  0.00    +0.000 OA
ATOM      3  O   UNL     1     114.533 130.202 140.315  0.00  0.00    +0.000 OA
ATOM      4  C   UNL     1     111.216 129.978 139.210  0.00  0.00    +0.000 A 
ATOM      5  C   UNL     1     111.560 130.116 140.902  0.00  0.00    +0.000 A 
ATOM      6  C   UNL     1     110.898 130.033 140.156  0.00  0.00    +0.000 A 
ATOM      7  C   UNL     1     112.195 130.006 139.010  0.00  0.00    +0.000 A 
ATOM      8  C   UNL     1     112.539 130.144 140.701  0.00  0.00    +0.000 A 
ATOM      9  C   UNL     1     112.857 130.089 139.755  0.00  0.00    +0.000 A 
ATOM     10  C   UNL     1     113.880 130.119 139.561  0.00  0.00    +0.000 A 
ATOM     11  C   UNL     1     113.530 129.976 137.802  0.00  0.00    +0.000 A 
ATOM     12  C   UNL     1     114.219 130.063 138.578  0.00  0.00    +0.000 A 
ENDROOT
BRANCH   4  17
ATOM     13  O   UNL     1     110.160 130.717 138.054  0.00  0.00    +0.000 OA
ATOM     14  O   UNL     1     110.688 128.171 138.539  0.00  0.00    +0.000 OA
ATOM     15  O   UNL     1     109.366 128.005 137.047  0.00  0.00    +0.000 OA
ATOM     16  O   UNL     1     108.573 129.647 136.227  0.00  0.00    +0.000 OA
ATOM     17  C   UNL     1     110.556 129.895 138.464  0.00  0.00    +0.000 C 
ATOM     18  C   UNL     1     110.291 128.991 138.128  0.00  0.00    +0.000 C 
ATOM     19  C   UNL     1     109.630 128.909 137.382  0.00  0.00    +0.000 C 
ATOM     20  C   UNL     1     109.234 129.730 136.972  0.00  0.00    +0.000 C 
ATOM     21  C   UNL     1     109.499 130.634 137.308  0.00  0.00    +0.000 C 
BRANCH  21  23
ATOM     22  O   UNL     1     109.078 132.311 137.416  0.00  0.00    +0.000 OA
ATOM     23  C   UNL     1     109.102 131.456 136.898  0.00  0.00    +0.000 C 
ENDBRANCH  21  23
ENDBRANCH   4  17
BRANCH   5  28
ATOM     24  O   UNL     1     111.569 131.090 142.335  0.00  0.00    +0.000 OA
ATOM     25  O   UNL     1     111.654 128.369 142.359  0.00  0.00    +0.000 OA
ATOM     26  O   UNL     1     111.692 128.611 144.019  0.00  0.00    +0.000 OA
ATOM     27  O   UNL     1     111.660 130.411 144.890  0.00  0.00    +0.000 OA
ATOM     28  C   UNL     1     111.585 130.190 141.899  0.00  0.00    +0.000 C 
ATOM     29  C   UNL     1     111.626 129.364 142.461  0.00  0.00    +0.000 C 
ATOM     30  C   UNL     1     111.651 129.437 143.458  0.00  0.00    +0.000 C 
ATOM     31  C   UNL     1     111.635 130.337 143.893  0.00  0.00    +0.000 C 
ATOM     32  C   UNL     1     111.593 131.164 143.332  0.00  0.00    +0.000 C 
BRANCH  32  34
ATOM     33  O   UNL     1     111.640 133.033 143.527  0.00  0.00    +0.000 OA
ATOM     34  C   UNL     1     111.577 132.064 143.767  0.00  0.00    +0.000 C 
ENDBRANCH  32  34
ENDBRANCH   5  28
BRANCH  11  36
ATOM     35  O   UNL     1     115.339 131.298 135.160  0.00  0.00    +0.000 OA
ATOM     36  C   UNL     1     113.845 129.921 136.854  0.00  0.00    +0.000 A 
ATOM     37  C   UNL     1     114.434 130.637 136.480  0.00  0.00    +0.000 A 
ATOM     38  C   UNL     1     113.570 129.149 136.280  0.00  0.00    +0.000 A 
ATOM     39  C   UNL     1     114.749 130.582 135.533  0.00  0.00    +0.000 A 
ATOM     40  C   UNL     1     113.886 129.095 135.332  0.00  0.00    +0.000 A 
ATOM     41  C   UNL     1     114.475 129.811 134.960  0.00  0.00    +0.000 A 
ENDBRANCH  11  36
BRANCH   6  42
ATOM     42  O   UNL     1     109.919 130.006 140.357  0.00  0.00    +0.000 OA
BRANCH  42  47
ATOM     43  O   UNL     1     108.875 128.860 141.130  0.00  0.00    +0.000 OA
ATOM     44  O   UNL     1     108.577 131.451 140.688  0.00  0.00    +0.000 OA
ATOM     45  O   UNL     1     106.862 131.028 141.626  0.00  0.00    +0.000 OA
ATOM     46  O   UNL     1     106.489 129.159 142.233  0.00  0.00    +0.000 OA
ATOM     47  C   UNL     1     109.062 129.794 140.826  0.00  0.00    +0.000 C 
ATOM     48  C   UNL     1     108.391 130.517 140.992  0.00  0.00    +0.000 C 
ATOM     49  C   UNL     1     107.533 130.305 141.461  0.00  0.00    +0.000 C 
ATOM     50  C   UNL     1     107.347 129.371 141.764  0.00  0.00    +0.000 C 
ATOM     51  C   UNL     1     108.018 128.648 141.599  0.00  0.00    +0.000 C 
BRANCH  51  54
ATOM     52  O   UNL     1     108.137 127.411 142.805  0.00  0.00    +0.000 OA
ATOM     53  O   UNL     1     107.339 127.082 141.304  0.00  0.00    +0.000 OA
ATOM     54  C   UNL     1     107.831 127.714 141.903  0.00  0.00    +0.000 C 
ENDBRANCH  51  54
ENDBRANCH  42  47
ENDBRANCH   6  42
TORSDOF 8
ENDMDL
MODEL 9
REMARK VINA RESULT:     -10.5      2.560      6.013
REMARK  Name = 131833341
REMARK  8 active torsions:
REMARK  status: ('A' for Active; 'I' for Inactive)
REMARK    1  A    between atoms: O_3  and  C_34
REMARK    2  A    between atoms: O_3  and  C_37
REMARK    3  A    between atoms: C_22  and  C_27
REMARK    4  A    between atoms: C_23  and  C_29
REMARK    5  A    between atoms: C_32  and  C_41
REMARK    6  A    between atoms: C_33  and  C_42
REMARK    7  A    between atoms: C_44  and  C_48
REMARK    8  A    between atoms: C_46  and  C_49
REMARK                            x       y       z     vdW  Elec       q    Type
REMARK                         _______ _______ _______ _____ _____    ______ ____
ROOT
ATOM      1  O   UNL     1     108.073 126.151 140.626  0.00  0.00    +0.000 OA
ATOM      2  O   UNL     1     108.445 128.125 143.237  0.00  0.00    +0.000 OA
ATOM      3  O   UNL     1     107.313 127.296 143.370  0.00  0.00    +0.000 OA
ATOM      4  C   UNL     1     109.451 127.245 140.596  0.00  0.00    +0.000 A 
ATOM      5  C   UNL     1     109.757 128.334 141.908  0.00  0.00    +0.000 A 
ATOM      6  C   UNL     1     110.008 127.963 141.014  0.00  0.00    +0.000 A 
ATOM      7  C   UNL     1     108.644 126.899 141.073  0.00  0.00    +0.000 A 
ATOM      8  C   UNL     1     108.950 127.987 142.385  0.00  0.00    +0.000 A 
ATOM      9  C   UNL     1     108.393 127.270 141.967  0.00  0.00    +0.000 A 
ATOM     10  C   UNL     1     107.554 126.918 142.476  0.00  0.00    +0.000 A 
ATOM     11  C   UNL     1     107.230 125.784 141.116  0.00  0.00    +0.000 A 
ATOM     12  C   UNL     1     106.969 126.170 142.048  0.00  0.00    +0.000 A 
ENDROOT
BRANCH   4  17
ATOM     13  O   UNL     1     109.362 127.310 138.868  0.00  0.00    +0.000 OA
ATOM     14  O   UNL     1     110.628 125.633 140.476  0.00  0.00    +0.000 OA
ATOM     15  O   UNL     1     111.128 124.891 138.688  0.00  0.00    +0.000 OA
ATOM     16  O   UNL     1     110.451 125.761 137.019  0.00  0.00    +0.000 OA
ATOM     17  C   UNL     1     109.701 126.874 139.702  0.00  0.00    +0.000 C 
ATOM     18  C   UNL     1     110.290 126.068 139.642  0.00  0.00    +0.000 C 
ATOM     19  C   UNL     1     110.540 125.697 138.747  0.00  0.00    +0.000 C 
ATOM     20  C   UNL     1     110.201 126.132 137.913  0.00  0.00    +0.000 C 
ATOM     21  C   UNL     1     109.612 126.939 137.973  0.00  0.00    +0.000 C 
BRANCH  21  23
ATOM     22  O   UNL     1     109.028 128.344 137.145  0.00  0.00    +0.000 OA
ATOM     23  C   UNL     1     109.274 127.374 137.139  0.00  0.00    +0.000 C 
ENDBRANCH  21  23
ENDBRANCH   4  17
BRANCH   5  28
ATOM     24  O   UNL     1     110.699 128.745 143.303  0.00  0.00    +0.000 OA
ATOM     25  O   UNL     1     109.172 130.534 141.932  0.00  0.00    +0.000 OA
ATOM     26  O   UNL     1     109.763 131.588 143.096  0.00  0.00    +0.000 OA
ATOM     27  O   UNL     1     111.016 131.051 144.560  0.00  0.00    +0.000 OA
ATOM     28  C   UNL     1     110.072 129.013 142.571  0.00  0.00    +0.000 C 
ATOM     29  C   UNL     1     109.760 129.961 142.502  0.00  0.00    +0.000 C 
ATOM     30  C   UNL     1     110.075 130.640 143.165  0.00  0.00    +0.000 C 
ATOM     31  C   UNL     1     110.701 130.372 143.897  0.00  0.00    +0.000 C 
ATOM     32  C   UNL     1     111.013 129.424 143.966  0.00  0.00    +0.000 C 
BRANCH  32  34
ATOM     33  O   UNL     1     111.838 128.374 145.288  0.00  0.00    +0.000 OA
ATOM     34  C   UNL     1     111.640 129.156 144.697  0.00  0.00    +0.000 C 
ENDBRANCH  32  34
ENDBRANCH   5  28
BRANCH  11  36
ATOM     35  O   UNL     1     104.934 124.781 138.725  0.00  0.00    +0.000 OA
ATOM     36  C   UNL     1     106.675 125.066 140.696  0.00  0.00    +0.000 A 
ATOM     37  C   UNL     1     106.082 125.282 139.920  0.00  0.00    +0.000 A 
ATOM     38  C   UNL     1     106.713 124.132 141.052  0.00  0.00    +0.000 A 
ATOM     39  C   UNL     1     105.527 124.565 139.500  0.00  0.00    +0.000 A 
ATOM     40  C   UNL     1     106.158 123.415 140.631  0.00  0.00    +0.000 A 
ATOM     41  C   UNL     1     105.565 123.631 139.855  0.00  0.00    +0.000 A 
ENDBRANCH  11  36
BRANCH   6  42
ATOM     42  O   UNL     1     110.816 128.310 140.537  0.00  0.00    +0.000 OA
BRANCH  42  47
ATOM     43  O   UNL     1     111.050 129.658 139.474  0.00  0.00    +0.000 OA
ATOM     44  O   UNL     1     112.796 128.150 140.770  0.00  0.00    +0.000 OA
ATOM     45  O   UNL     1     114.020 129.417 139.824  0.00  0.00    +0.000 OA
ATOM     46  O   UNL     1     113.264 130.845 138.645  0.00  0.00    +0.000 OA
ATOM     47  C   UNL     1     111.428 128.944 140.064  0.00  0.00    +0.000 C 
ATOM     48  C   UNL     1     112.418 128.864 140.181  0.00  0.00    +0.000 C 
ATOM     49  C   UNL     1     113.030 129.497 139.708  0.00  0.00    +0.000 C 
ATOM     50  C   UNL     1     112.652 130.211 139.118  0.00  0.00    +0.000 C 
ATOM     51  C   UNL     1     111.662 130.292 139.002  0.00  0.00    +0.000 C 
BRANCH  51  54
ATOM     52  O   UNL     1     111.231 130.862 137.424  0.00  0.00    +0.000 OA
ATOM     53  O   UNL     1     110.960 131.863 138.811  0.00  0.00    +0.000 OA
ATOM     54  C   UNL     1     111.284 131.006 138.412  0.00  0.00    +0.000 C 
ENDBRANCH  51  54
ENDBRANCH  42  47
ENDBRANCH   6  42
TORSDOF 8
ENDMDL
MODEL 10
REMARK VINA RESULT:     -10.5      1.948      4.244
REMARK  Name = 131833341
REMARK  8 active torsions:
REMARK  status: ('A' for Active; 'I' for Inactive)
REMARK    1  A    between atoms: O_3  and  C_34
REMARK    2  A    between atoms: O_3  and  C_37
REMARK    3  A    between atoms: C_22  and  C_27
REMARK    4  A    between atoms: C_23  and  C_29
REMARK    5  A    between atoms: C_32  and  C_41
REMARK    6  A    between atoms: C_33  and  C_42
REMARK    7  A    between atoms: C_44  and  C_48
REMARK    8  A    between atoms: C_46  and  C_49
REMARK                            x       y       z     vdW  Elec       q    Type
REMARK                         _______ _______ _______ _____ _____    ______ ____
ROOT
ATOM      1  O   UNL     1     112.455 126.809 138.693  0.00  0.00    +0.000 OA
ATOM      2  O   UNL     1     113.519 128.309 141.427  0.00  0.00    +0.000 OA
ATOM      3  O   UNL     1     114.478 127.409 140.922  0.00  0.00    +0.000 OA
ATOM      4  C   UNL     1     111.356 127.966 139.435  0.00  0.00    +0.000 A 
ATOM      5  C   UNL     1     111.796 128.821 140.876  0.00  0.00    +0.000 A 
ATOM      6  C   UNL     1     111.134 128.628 140.151  0.00  0.00    +0.000 A 
ATOM      7  C   UNL     1     112.238 127.497 139.445  0.00  0.00    +0.000 A 
ATOM      8  C   UNL     1     112.679 128.352 140.885  0.00  0.00    +0.000 A 
ATOM      9  C   UNL     1     112.900 127.690 140.170  0.00  0.00    +0.000 A 
ATOM     10  C   UNL     1     113.824 127.208 140.192  0.00  0.00    +0.000 A 
ATOM     11  C   UNL     1     113.373 126.316 138.696  0.00  0.00    +0.000 A 
ATOM     12  C   UNL     1     114.062 126.517 139.450  0.00  0.00    +0.000 A 
ENDROOT
BRANCH   4  17
ATOM     13  O   UNL     1     110.680 128.336 137.885  0.00  0.00    +0.000 OA
ATOM     14  O   UNL     1     110.064 126.453 139.637  0.00  0.00    +0.000 OA
ATOM     15  O   UNL     1     108.742 126.067 138.188  0.00  0.00    +0.000 OA
ATOM     16  O   UNL     1     108.712 127.194 136.536  0.00  0.00    +0.000 OA
ATOM     17  C   UNL     1     110.695 127.773 138.711  0.00  0.00    +0.000 C 
ATOM     18  C   UNL     1     110.049 127.016 138.812  0.00  0.00    +0.000 C 
ATOM     19  C   UNL     1     109.387 126.823 138.086  0.00  0.00    +0.000 C 
ATOM     20  C   UNL     1     109.372 127.387 137.260  0.00  0.00    +0.000 C 
ATOM     21  C   UNL     1     110.019 128.143 137.160  0.00  0.00    +0.000 C 
BRANCH  21  23
ATOM     22  O   UNL     1     110.722 129.386 136.179  0.00  0.00    +0.000 OA
ATOM     23  C   UNL     1     110.004 128.707 136.334  0.00  0.00    +0.000 C 
ENDBRANCH  21  23
ENDBRANCH   4  17
BRANCH   5  28
ATOM     24  O   UNL     1     111.661 129.016 142.592  0.00  0.00    +0.000 OA
ATOM     25  O   UNL     1     112.524 130.978 140.914  0.00  0.00    +0.000 OA
ATOM     26  O   UNL     1     112.647 131.839 142.349  0.00  0.00    +0.000 OA
ATOM     27  O   UNL     1     112.183 131.093 144.146  0.00  0.00    +0.000 OA
ATOM     28  C   UNL     1     111.893 129.389 141.694  0.00  0.00    +0.000 C 
ATOM     29  C   UNL     1     112.222 130.330 141.613  0.00  0.00    +0.000 C 
ATOM     30  C   UNL     1     112.319 130.898 142.430  0.00  0.00    +0.000 C 
ATOM     31  C   UNL     1     112.086 130.525 143.328  0.00  0.00    +0.000 C 
ATOM     32  C   UNL     1     111.758 129.584 143.409  0.00  0.00    +0.000 C 
BRANCH  32  34
ATOM     33  O   UNL     1     111.683 128.394 144.862  0.00  0.00    +0.000 OA
ATOM     34  C   UNL     1     111.525 129.211 144.308  0.00  0.00    +0.000 C 
ENDBRANCH  32  34
ENDBRANCH   5  28
BRANCH  11  36
ATOM     35  O   UNL     1     112.381 123.793 136.540  0.00  0.00    +0.000 OA
ATOM     36  C   UNL     1     113.591 125.654 137.979  0.00  0.00    +0.000 A 
ATOM     37  C   UNL     1     112.877 125.054 137.617  0.00  0.00    +0.000 A 
ATOM     38  C   UNL     1     114.524 125.592 137.622  0.00  0.00    +0.000 A 
ATOM     39  C   UNL     1     113.095 124.393 136.900  0.00  0.00    +0.000 A 
ATOM     40  C   UNL     1     114.741 124.930 136.905  0.00  0.00    +0.000 A 
ATOM     41  C   UNL     1     114.027 124.330 136.545  0.00  0.00    +0.000 A 
ENDBRANCH  11  36
BRANCH   6  42
ATOM     42  O   UNL     1     110.252 129.098 140.142  0.00  0.00    +0.000 OA
BRANCH  42  47
ATOM     43  O   UNL     1     108.834 128.890 141.115  0.00  0.00    +0.000 OA
ATOM     44  O   UNL     1     109.504 130.806 139.418  0.00  0.00    +0.000 OA
ATOM     45  O   UNL     1     107.713 131.452 140.029  0.00  0.00    +0.000 OA
ATOM     46  O   UNL     1     106.669 130.390 141.364  0.00  0.00    +0.000 OA
ATOM     47  C   UNL     1     109.356 129.421 140.448  0.00  0.00    +0.000 C 
ATOM     48  C   UNL     1     108.982 130.275 140.085  0.00  0.00    +0.000 C 
ATOM     49  C   UNL     1     108.086 130.598 140.391  0.00  0.00    +0.000 C 
ATOM     50  C   UNL     1     107.564 130.067 141.059  0.00  0.00    +0.000 C 
ATOM     51  C   UNL     1     107.938 129.213 141.421  0.00  0.00    +0.000 C 
BRANCH  51  54
ATOM     52  O   UNL     1     107.606 128.783 143.065  0.00  0.00    +0.000 OA
ATOM     53  O   UNL     1     106.705 128.051 141.779  0.00  0.00    +0.000 OA
ATOM     54  C   UNL     1     107.416 128.682 142.088  0.00  0.00    +0.000 C 
ENDBRANCH  51  54
ENDBRANCH  42  47
ENDBRANCH   6  42
TORSDOF 8
ENDMDL
