MODEL 1
REMARK VINA RESULT:     -11.1      0.000      0.000
REMARK  Name = 131752835
REMARK  13 active torsions:
REMARK  status: ('A' for Active; 'I' for Inactive)
REMARK    1  A    between atoms: O_1  and  C_24
REMARK    2  A    between atoms: O_1  and  C_26
REMARK    3  A    between atoms: O_4  and  C_30
REMARK    4  A    between atoms: O_4  and  C_41
REMARK    5  A    between atoms: O_11  and  C_34
REMARK    6  A    between atoms: O_11  and  C_48
REMARK    7  A    between atoms: O_12  and  C_40
REMARK    8  A    between atoms: O_12  and  C_47
REMARK    9  A    between atoms: C_33  and  C_34
REMARK   10  A    between atoms: C_39  and  C_42
REMARK   11  A    between atoms: C_43  and  C_50
REMARK   12  A    between atoms: C_48  and  C_53
REMARK   13  A    between atoms: C_58  and  C_60
REMARK                            x       y       z     vdW  Elec       q    Type
REMARK                         _______ _______ _______ _____ _____    ______ ____
ROOT
ATOM      1  O   UNL     1     110.875 128.568 139.344  0.00  0.00    +0.000 OA
ENDROOT
BRANCH   1   5
ATOM      2  O   UNL     1     110.400 127.535 141.206  0.00  0.00    +0.000 OA
ATOM      3  O   UNL     1     109.331 129.088 139.604  0.00  0.00    +0.000 OA
ATOM      4  O   UNL     1     108.119 129.109 140.387  0.00  0.00    +0.000 OA
ATOM      5  C   UNL     1     110.459 128.310 140.008  0.00  0.00    +0.000 A 
ATOM      6  C   UNL     1     110.815 127.793 140.542  0.00  0.00    +0.000 A 
ATOM      7  C   UNL     1     109.687 128.571 140.138  0.00  0.00    +0.000 A 
ATOM      8  C   UNL     1     109.271 128.313 140.802  0.00  0.00    +0.000 A 
ATOM      9  C   UNL     1     109.628 127.795 141.337  0.00  0.00    +0.000 A 
ATOM     10  C   UNL     1     108.400 127.787 142.173  0.00  0.00    +0.000 A 
ATOM     11  C   UNL     1     109.205 127.520 142.032  0.00  0.00    +0.000 A 
ATOM     12  C   UNL     1     108.468 128.592 140.926  0.00  0.00    +0.000 A 
ATOM     13  C   UNL     1     108.029 128.326 141.617  0.00  0.00    +0.000 A 
BRANCH   6  16
ATOM     14  O   UNL     1     113.635 128.235 140.690  0.00  0.00    +0.000 OA
ATOM     15  O   UNL     1     113.903 126.749 140.024  0.00  0.00    +0.000 OA
ATOM     16  C   UNL     1     111.588 127.533 140.413  0.00  0.00    +0.000 A 
ATOM     17  C   UNL     1     112.225 128.014 140.616  0.00  0.00    +0.000 A 
ATOM     18  C   UNL     1     111.721 126.790 140.080  0.00  0.00    +0.000 A 
ATOM     19  C   UNL     1     112.998 127.753 140.487  0.00  0.00    +0.000 A 
ATOM     20  C   UNL     1     112.493 126.528 139.950  0.00  0.00    +0.000 A 
ATOM     21  C   UNL     1     113.131 127.010 140.154  0.00  0.00    +0.000 A 
ENDBRANCH   6  16
BRANCH  10  22
ATOM     22  O   UNL     1     107.987 127.528 142.838  0.00  0.00    +0.000 OA
BRANCH  22  31
ATOM     23  O   UNL     1     107.440 126.346 142.248  0.00  0.00    +0.000 OA
ATOM     24  O   UNL     1     105.344 126.681 143.520  0.00  0.00    +0.000 OA
ATOM     25  O   UNL     1     105.497 125.388 142.507  0.00  0.00    +0.000 OA
ATOM     26  O   UNL     1     106.589 127.750 143.686  0.00  0.00    +0.000 OA
ATOM     27  C   UNL     1     106.043 126.569 143.096  0.00  0.00    +0.000 C 
ATOM     28  C   UNL     1     106.120 125.923 142.589  0.00  0.00    +0.000 C 
ATOM     29  C   UNL     1     106.665 127.104 143.179  0.00  0.00    +0.000 C 
ATOM     30  C   UNL     1     106.819 125.811 142.165  0.00  0.00    +0.000 C 
ATOM     31  C   UNL     1     107.364 126.992 142.755  0.00  0.00    +0.000 C 
BRANCH  30  33
ATOM     32  O   UNL     1     107.556 124.674 141.711  0.00  0.00    +0.000 OA
ATOM     33  C   UNL     1     106.895 125.165 141.658  0.00  0.00    +0.000 C 
ENDBRANCH  30  33
ENDBRANCH  22  31
ENDBRANCH  10  22
ENDBRANCH   1   5
BRANCH   1  40
ATOM     34  O   UNL     1     110.165 127.758 138.405  0.00  0.00    +0.000 OA
ATOM     35  O   UNL     1     110.387 129.538 136.701  0.00  0.00    +0.000 OA
ATOM     36  O   UNL     1     109.603 128.134 136.330  0.00  0.00    +0.000 OA
ATOM     37  C   UNL     1     110.631 129.053 138.022  0.00  0.00    +0.000 C 
ATOM     38  C   UNL     1     110.313 128.945 137.269  0.00  0.00    +0.000 C 
ATOM     39  C   UNL     1     109.921 128.243 137.083  0.00  0.00    +0.000 C 
ATOM     40  C   UNL     1     110.557 128.460 138.590  0.00  0.00    +0.000 C 
ATOM     41  C   UNL     1     109.847 127.649 137.651  0.00  0.00    +0.000 C 
ATOM     42  C   UNL     1     109.456 126.947 137.466  0.00  0.00    +0.000 C 
BRANCH  37  43
ATOM     43  O   UNL     1     111.023 129.755 138.208  0.00  0.00    +0.000 OA
BRANCH  43  48
ATOM     44  O   UNL     1     112.167 129.311 137.474  0.00  0.00    +0.000 OA
ATOM     45  O   UNL     1     111.843 131.112 138.666  0.00  0.00    +0.000 OA
ATOM     46  O   UNL     1     113.397 131.346 138.162  0.00  0.00    +0.000 OA
ATOM     47  O   UNL     1     114.131 130.223 137.200  0.00  0.00    +0.000 OA
ATOM     48  C   UNL     1     111.800 129.872 137.956  0.00  0.00    +0.000 C 
ATOM     49  C   UNL     1     112.211 130.550 138.184  0.00  0.00    +0.000 C 
ATOM     50  C   UNL     1     112.987 130.667 137.932  0.00  0.00    +0.000 C 
ATOM     51  C   UNL     1     113.354 130.106 137.452  0.00  0.00    +0.000 C 
ATOM     52  C   UNL     1     112.944 129.428 137.223  0.00  0.00    +0.000 C 
BRANCH  52  53
ATOM     53  C   UNL     1     113.310 128.867 136.742  0.00  0.00    +0.000 C 
BRANCH  53  54
ATOM     54  O   UNL     1     113.426 128.098 137.019  0.00  0.00    +0.000 OA
BRANCH  54  56
ATOM     55  O   UNL     1     114.148 127.607 135.889  0.00  0.00    +0.000 OA
ATOM     56  C   UNL     1     113.594 127.490 136.488  0.00  0.00    +0.000 C 
BRANCH  56  57
ATOM     57  C   UNL     1     113.209 126.763 136.557  0.00  0.00    +0.000 C 
ATOM     58  C   UNL     1     113.645 126.063 136.565  0.00  0.00    +0.000 C 
BRANCH  58  60
ATOM     59  O   UNL     1     112.102 123.159 136.839  0.00  0.00    +0.000 OA
ATOM     60  C   UNL     1     113.260 125.337 136.634  0.00  0.00    +0.000 A 
ATOM     61  C   UNL     1     112.477 125.260 136.383  0.00  0.00    +0.000 A 
ATOM     62  C   UNL     1     113.656 124.688 136.953  0.00  0.00    +0.000 A 
ATOM     63  C   UNL     1     112.091 124.535 136.451  0.00  0.00    +0.000 A 
ATOM     64  C   UNL     1     113.270 123.963 137.022  0.00  0.00    +0.000 A 
ATOM     65  C   UNL     1     112.488 123.886 136.771  0.00  0.00    +0.000 A 
ENDBRANCH  58  60
ENDBRANCH  56  57
ENDBRANCH  54  56
ENDBRANCH  53  54
ENDBRANCH  52  53
ENDBRANCH  43  48
ENDBRANCH  37  43
ENDBRANCH   1  40
TORSDOF 13
ENDMDL
MODEL 2
REMARK VINA RESULT:     -10.5      3.121      4.431
REMARK  Name = 131752835
REMARK  13 active torsions:
REMARK  status: ('A' for Active; 'I' for Inactive)
REMARK    1  A    between atoms: O_1  and  C_24
REMARK    2  A    between atoms: O_1  and  C_26
REMARK    3  A    between atoms: O_4  and  C_30
REMARK    4  A    between atoms: O_4  and  C_41
REMARK    5  A    between atoms: O_11  and  C_34
REMARK    6  A    between atoms: O_11  and  C_48
REMARK    7  A    between atoms: O_12  and  C_40
REMARK    8  A    between atoms: O_12  and  C_47
REMARK    9  A    between atoms: C_33  and  C_34
REMARK   10  A    between atoms: C_39  and  C_42
REMARK   11  A    between atoms: C_43  and  C_50
REMARK   12  A    between atoms: C_48  and  C_53
REMARK   13  A    between atoms: C_58  and  C_60
REMARK                            x       y       z     vdW  Elec       q    Type
REMARK                         _______ _______ _______ _____ _____    ______ ____
ROOT
ATOM      1  O   UNL     1     111.070 129.288 140.540  0.00  0.00    +0.000 OA
ENDROOT
BRANCH   1   5
ATOM      2  O   UNL     1     111.178 129.047 142.706  0.00  0.00    +0.000 OA
ATOM      3  O   UNL     1     111.579 130.789 140.996  0.00  0.00    +0.000 OA
ATOM      4  O   UNL     1     111.963 131.739 142.012  0.00  0.00    +0.000 OA
ATOM      5  C   UNL     1     111.191 129.457 141.338  0.00  0.00    +0.000 A 
ATOM      6  C   UNL     1     111.057 128.877 141.908  0.00  0.00    +0.000 A 
ATOM      7  C   UNL     1     111.445 130.209 141.566  0.00  0.00    +0.000 A 
ATOM      8  C   UNL     1     111.566 130.379 142.364  0.00  0.00    +0.000 A 
ATOM      9  C   UNL     1     111.433 129.797 142.935  0.00  0.00    +0.000 A 
ATOM     10  C   UNL     1     111.820 130.742 144.012  0.00  0.00    +0.000 A 
ATOM     11  C   UNL     1     111.555 129.962 143.769  0.00  0.00    +0.000 A 
ATOM     12  C   UNL     1     111.832 131.165 142.588  0.00  0.00    +0.000 A 
ATOM     13  C   UNL     1     111.960 131.347 143.419  0.00  0.00    +0.000 A 
BRANCH   6  16
ATOM     14  O   UNL     1     111.631 126.139 141.324  0.00  0.00    +0.000 OA
ATOM     15  O   UNL     1     110.036 125.873 140.999  0.00  0.00    +0.000 OA
ATOM     16  C   UNL     1     110.802 128.126 141.681  0.00  0.00    +0.000 A 
ATOM     17  C   UNL     1     111.344 127.508 141.616  0.00  0.00    +0.000 A 
ATOM     18  C   UNL     1     110.004 127.993 141.518  0.00  0.00    +0.000 A 
ATOM     19  C   UNL     1     111.089 126.756 141.389  0.00  0.00    +0.000 A 
ATOM     20  C   UNL     1     109.748 127.242 141.290  0.00  0.00    +0.000 A 
ATOM     21  C   UNL     1     110.291 126.624 141.226  0.00  0.00    +0.000 A 
ENDBRANCH   6  16
BRANCH  10  22
ATOM     22  O   UNL     1     111.940 130.909 144.811  0.00  0.00    +0.000 OA
BRANCH  22  31
ATOM     23  O   UNL     1     110.612 131.327 145.135  0.00  0.00    +0.000 OA
ATOM     24  O   UNL     1     111.528 133.142 146.547  0.00  0.00    +0.000 OA
ATOM     25  O   UNL     1     109.895 132.955 146.399  0.00  0.00    +0.000 OA
ATOM     26  O   UNL     1     112.550 132.119 145.753  0.00  0.00    +0.000 OA
ATOM     27  C   UNL     1     111.223 132.537 146.076  0.00  0.00    +0.000 C 
ATOM     28  C   UNL     1     110.406 132.443 146.002  0.00  0.00    +0.000 C 
ATOM     29  C   UNL     1     111.734 132.026 145.679  0.00  0.00    +0.000 C 
ATOM     30  C   UNL     1     110.101 131.838 145.531  0.00  0.00    +0.000 C 
ATOM     31  C   UNL     1     111.428 131.421 145.208  0.00  0.00    +0.000 C 
BRANCH  30  33
ATOM     32  O   UNL     1     108.947 130.995 145.528  0.00  0.00    +0.000 OA
ATOM     33  C   UNL     1     109.285 131.745 145.457  0.00  0.00    +0.000 C 
ENDBRANCH  30  33
ENDBRANCH  22  31
ENDBRANCH  10  22
ENDBRANCH   1   5
BRANCH   1  40
ATOM     34  O   UNL     1     112.444 129.137 140.180  0.00  0.00    +0.000 OA
ATOM     35  O   UNL     1     111.996 130.233 138.007  0.00  0.00    +0.000 OA
ATOM     36  O   UNL     1     113.520 129.717 138.372  0.00  0.00    +0.000 OA
ATOM     37  C   UNL     1     111.533 129.761 139.273  0.00  0.00    +0.000 C 
ATOM     38  C   UNL     1     112.145 129.868 138.732  0.00  0.00    +0.000 C 
ATOM     39  C   UNL     1     112.908 129.609 138.913  0.00  0.00    +0.000 C 
ATOM     40  C   UNL     1     111.683 129.395 139.997  0.00  0.00    +0.000 C 
ATOM     41  C   UNL     1     113.057 129.244 139.638  0.00  0.00    +0.000 C 
ATOM     42  C   UNL     1     113.819 128.985 139.820  0.00  0.00    +0.000 C 
BRANCH  37  43
ATOM     43  O   UNL     1     110.771 130.019 139.091  0.00  0.00    +0.000 OA
BRANCH  43  48
ATOM     44  O   UNL     1     110.475 128.812 138.383  0.00  0.00    +0.000 OA
ATOM     45  O   UNL     1     109.552 130.789 138.289  0.00  0.00    +0.000 OA
ATOM     46  O   UNL     1     108.646 129.968 137.180  0.00  0.00    +0.000 OA
ATOM     47  O   UNL     1     108.960 128.377 136.874  0.00  0.00    +0.000 OA
ATOM     48  C   UNL     1     110.318 129.608 138.537  0.00  0.00    +0.000 C 
ATOM     49  C   UNL     1     109.709 129.993 138.136  0.00  0.00    +0.000 C 
ATOM     50  C   UNL     1     109.256 129.582 137.581  0.00  0.00    +0.000 C 
ATOM     51  C   UNL     1     109.413 128.788 137.428  0.00  0.00    +0.000 C 
ATOM     52  C   UNL     1     110.022 128.402 137.829  0.00  0.00    +0.000 C 
BRANCH  52  53
ATOM     53  C   UNL     1     110.179 127.607 137.676  0.00  0.00    +0.000 C 
BRANCH  53  54
ATOM     54  O   UNL     1     110.907 127.281 137.890  0.00  0.00    +0.000 OA
BRANCH  54  56
ATOM     55  O   UNL     1     110.466 125.930 137.743  0.00  0.00    +0.000 OA
ATOM     56  C   UNL     1     111.071 126.491 137.720  0.00  0.00    +0.000 C 
BRANCH  56  57
ATOM     57  C   UNL     1     111.839 126.261 137.527  0.00  0.00    +0.000 C 
ATOM     58  C   UNL     1     112.223 125.685 137.976  0.00  0.00    +0.000 C 
BRANCH  58  60
ATOM     59  O   UNL     1     115.295 124.762 137.203  0.00  0.00    +0.000 OA
ATOM     60  C   UNL     1     112.991 125.455 137.783  0.00  0.00    +0.000 A 
ATOM     61  C   UNL     1     113.117 124.902 137.184  0.00  0.00    +0.000 A 
ATOM     62  C   UNL     1     113.633 125.777 138.188  0.00  0.00    +0.000 A 
ATOM     63  C   UNL     1     113.885 124.671 136.990  0.00  0.00    +0.000 A 
ATOM     64  C   UNL     1     114.400 125.546 137.995  0.00  0.00    +0.000 A 
ATOM     65  C   UNL     1     114.526 124.993 137.396  0.00  0.00    +0.000 A 
ENDBRANCH  58  60
ENDBRANCH  56  57
ENDBRANCH  54  56
ENDBRANCH  53  54
ENDBRANCH  52  53
ENDBRANCH  43  48
ENDBRANCH  37  43
ENDBRANCH   1  40
TORSDOF 13
ENDMDL
MODEL 3
REMARK VINA RESULT:     -10.5      5.122      8.703
REMARK  Name = 131752835
REMARK  13 active torsions:
REMARK  status: ('A' for Active; 'I' for Inactive)
REMARK    1  A    between atoms: O_1  and  C_24
REMARK    2  A    between atoms: O_1  and  C_26
REMARK    3  A    between atoms: O_4  and  C_30
REMARK    4  A    between atoms: O_4  and  C_41
REMARK    5  A    between atoms: O_11  and  C_34
REMARK    6  A    between atoms: O_11  and  C_48
REMARK    7  A    between atoms: O_12  and  C_40
REMARK    8  A    between atoms: O_12  and  C_47
REMARK    9  A    between atoms: C_33  and  C_34
REMARK   10  A    between atoms: C_39  and  C_42
REMARK   11  A    between atoms: C_43  and  C_50
REMARK   12  A    between atoms: C_48  and  C_53
REMARK   13  A    between atoms: C_58  and  C_60
REMARK                            x       y       z     vdW  Elec       q    Type
REMARK                         _______ _______ _______ _____ _____    ______ ____
ROOT
ATOM      1  O   UNL     1     107.943 129.146 143.376  0.00  0.00    +0.000 OA
ENDROOT
BRANCH   1   5
ATOM      2  O   UNL     1     109.148 130.965 143.426  0.00  0.00    +0.000 OA
ATOM      3  O   UNL     1     109.017 128.776 144.573  0.00  0.00    +0.000 OA
ATOM      4  O   UNL     1     110.144 129.115 145.409  0.00  0.00    +0.000 OA
ATOM      5  C   UNL     1     108.524 129.691 143.592  0.00  0.00    +0.000 A 
ATOM      6  C   UNL     1     108.567 130.420 143.210  0.00  0.00    +0.000 A 
ATOM      7  C   UNL     1     109.061 129.505 144.191  0.00  0.00    +0.000 A 
ATOM      8  C   UNL     1     109.641 130.050 144.407  0.00  0.00    +0.000 A 
ATOM      9  C   UNL     1     109.685 130.781 144.025  0.00  0.00    +0.000 A 
ATOM     10  C   UNL     1     110.847 131.169 144.863  0.00  0.00    +0.000 A 
ATOM     11  C   UNL     1     110.285 131.356 144.241  0.00  0.00    +0.000 A 
ATOM     12  C   UNL     1     110.194 129.846 145.032  0.00  0.00    +0.000 A 
ATOM     13  C   UNL     1     110.802 130.410 145.262  0.00  0.00    +0.000 A 
BRANCH   6  16
ATOM     14  O   UNL     1     107.699 130.172 140.498  0.00  0.00    +0.000 OA
ATOM     15  O   UNL     1     106.420 131.163 140.817  0.00  0.00    +0.000 OA
ATOM     16  C   UNL     1     108.031 130.605 142.611  0.00  0.00    +0.000 A 
ATOM     17  C   UNL     1     108.133 130.296 141.854  0.00  0.00    +0.000 A 
ATOM     18  C   UNL     1     107.391 131.101 142.771  0.00  0.00    +0.000 A 
ATOM     19  C   UNL     1     107.597 130.481 141.256  0.00  0.00    +0.000 A 
ATOM     20  C   UNL     1     106.854 131.287 142.173  0.00  0.00    +0.000 A 
ATOM     21  C   UNL     1     106.957 130.977 141.415  0.00  0.00    +0.000 A 
ENDBRANCH   6  16
BRANCH  10  22
ATOM     22  O   UNL     1     111.426 131.716 145.077  0.00  0.00    +0.000 OA
BRANCH  22  31
ATOM     23  O   UNL     1     110.595 132.529 145.909  0.00  0.00    +0.000 OA
ATOM     24  O   UNL     1     112.492 132.883 147.459  0.00  0.00    +0.000 OA
ATOM     25  O   UNL     1     111.029 133.577 147.773  0.00  0.00    +0.000 OA
ATOM     26  O   UNL     1     112.690 131.952 146.111  0.00  0.00    +0.000 OA
ATOM     27  C   UNL     1     111.860 132.765 146.942  0.00  0.00    +0.000 C 
ATOM     28  C   UNL     1     111.128 133.112 147.099  0.00  0.00    +0.000 C 
ATOM     29  C   UNL     1     111.959 132.300 146.268  0.00  0.00    +0.000 C 
ATOM     30  C   UNL     1     110.495 132.994 146.582  0.00  0.00    +0.000 C 
ATOM     31  C   UNL     1     111.326 132.182 145.752  0.00  0.00    +0.000 C 
BRANCH  30  33
ATOM     32  O   UNL     1     109.380 133.778 146.155  0.00  0.00    +0.000 OA
ATOM     33  C   UNL     1     109.764 133.341 146.740  0.00  0.00    +0.000 C 
ENDBRANCH  30  33
ENDBRANCH  22  31
ENDBRANCH  10  22
ENDBRANCH   1   5
BRANCH   1  40
ATOM     34  O   UNL     1     107.082 129.361 144.496  0.00  0.00    +0.000 OA
ATOM     35  O   UNL     1     106.539 126.947 144.543  0.00  0.00    +0.000 OA
ATOM     36  O   UNL     1     105.859 127.967 145.647  0.00  0.00    +0.000 OA
ATOM     37  C   UNL     1     107.241 128.046 143.960  0.00  0.00    +0.000 C 
ATOM     38  C   UNL     1     106.720 127.752 144.527  0.00  0.00    +0.000 C 
ATOM     39  C   UNL     1     106.380 128.262 145.080  0.00  0.00    +0.000 C 
ATOM     40  C   UNL     1     107.422 128.851 143.944  0.00  0.00    +0.000 C 
ATOM     41  C   UNL     1     106.560 129.066 145.064  0.00  0.00    +0.000 C 
ATOM     42  C   UNL     1     106.221 129.577 145.615  0.00  0.00    +0.000 C 
BRANCH  37  43
ATOM     43  O   UNL     1     107.582 127.536 143.408  0.00  0.00    +0.000 OA
BRANCH  43  48
ATOM     44  O   UNL     1     106.363 127.528 142.660  0.00  0.00    +0.000 OA
ATOM     45  O   UNL     1     108.212 126.398 142.393  0.00  0.00    +0.000 OA
ATOM     46  O   UNL     1     107.310 125.820 141.139  0.00  0.00    +0.000 OA
ATOM     47  O   UNL     1     105.776 126.380 140.899  0.00  0.00    +0.000 OA
ATOM     48  C   UNL     1     107.130 127.247 142.781  0.00  0.00    +0.000 C 
ATOM     49  C   UNL     1     107.445 126.678 142.273  0.00  0.00    +0.000 C 
ATOM     50  C   UNL     1     106.994 126.389 141.646  0.00  0.00    +0.000 C 
ATOM     51  C   UNL     1     106.228 126.669 141.526  0.00  0.00    +0.000 C 
ATOM     52  C   UNL     1     105.912 127.239 142.033  0.00  0.00    +0.000 C 
BRANCH  52  53
ATOM     53  C   UNL     1     105.146 127.519 141.914  0.00  0.00    +0.000 C 
BRANCH  53  54
ATOM     54  O   UNL     1     105.008 128.330 141.846  0.00  0.00    +0.000 OA
BRANCH  54  56
ATOM     55  O   UNL     1     103.766 128.356 141.141  0.00  0.00    +0.000 OA
ATOM     56  C   UNL     1     104.237 128.612 141.768  0.00  0.00    +0.000 C 
BRANCH  56  57
ATOM     57  C   UNL     1     103.937 129.151 142.316  0.00  0.00    +0.000 C 
ATOM     58  C   UNL     1     103.533 129.822 142.057  0.00  0.00    +0.000 C 
BRANCH  58  60
ATOM     59  O   UNL     1     102.332 131.978 144.247  0.00  0.00    +0.000 OA
ATOM     60  C   UNL     1     103.233 130.361 142.605  0.00  0.00    +0.000 A 
ATOM     61  C   UNL     1     102.615 130.864 142.392  0.00  0.00    +0.000 A 
ATOM     62  C   UNL     1     103.550 130.397 143.365  0.00  0.00    +0.000 A 
ATOM     63  C   UNL     1     102.315 131.403 142.939  0.00  0.00    +0.000 A 
ATOM     64  C   UNL     1     103.250 130.935 143.913  0.00  0.00    +0.000 A 
ATOM     65  C   UNL     1     102.632 131.439 143.699  0.00  0.00    +0.000 A 
ENDBRANCH  58  60
ENDBRANCH  56  57
ENDBRANCH  54  56
ENDBRANCH  53  54
ENDBRANCH  52  53
ENDBRANCH  43  48
ENDBRANCH  37  43
ENDBRANCH   1  40
TORSDOF 13
ENDMDL
MODEL 4
REMARK VINA RESULT:     -10.4      1.088      2.439
REMARK  Name = 131752835
REMARK  13 active torsions:
REMARK  status: ('A' for Active; 'I' for Inactive)
REMARK    1  A    between atoms: O_1  and  C_24
REMARK    2  A    between atoms: O_1  and  C_26
REMARK    3  A    between atoms: O_4  and  C_30
REMARK    4  A    between atoms: O_4  and  C_41
REMARK    5  A    between atoms: O_11  and  C_34
REMARK    6  A    between atoms: O_11  and  C_48
REMARK    7  A    between atoms: O_12  and  C_40
REMARK    8  A    between atoms: O_12  and  C_47
REMARK    9  A    between atoms: C_33  and  C_34
REMARK   10  A    between atoms: C_39  and  C_42
REMARK   11  A    between atoms: C_43  and  C_50
REMARK   12  A    between atoms: C_48  and  C_53
REMARK   13  A    between atoms: C_58  and  C_60
REMARK                            x       y       z     vdW  Elec       q    Type
REMARK                         _______ _______ _______ _____ _____    ______ ____
ROOT
ATOM      1  O   UNL     1     110.938 128.411 139.305  0.00  0.00    +0.000 OA
ENDROOT
BRANCH   1   5
ATOM      2  O   UNL     1     109.314 127.115 139.972  0.00  0.00    +0.000 OA
ATOM      3  O   UNL     1     110.769 128.903 140.871  0.00  0.00    +0.000 OA
ATOM      4  O   UNL     1     110.125 128.819 142.159  0.00  0.00    +0.000 OA
ATOM      5  C   UNL     1     110.368 128.061 139.788  0.00  0.00    +0.000 A 
ATOM      6  C   UNL     1     109.883 127.465 139.489  0.00  0.00    +0.000 A 
ATOM      7  C   UNL     1     110.284 128.308 140.571  0.00  0.00    +0.000 A 
ATOM      8  C   UNL     1     109.714 127.958 141.055  0.00  0.00    +0.000 A 
ATOM      9  C   UNL     1     109.229 127.361 140.755  0.00  0.00    +0.000 A 
ATOM     10  C   UNL     1     108.539 127.241 142.064  0.00  0.00    +0.000 A 
ATOM     11  C   UNL     1     108.632 126.988 141.248  0.00  0.00    +0.000 A 
ATOM     12  C   UNL     1     109.636 128.223 141.868  0.00  0.00    +0.000 A 
ATOM     13  C   UNL     1     109.044 127.861 142.377  0.00  0.00    +0.000 A 
BRANCH   6  16
ATOM     14  O   UNL     1     109.411 127.873 136.700  0.00  0.00    +0.000 OA
ATOM     15  O   UNL     1     110.221 126.477 136.358  0.00  0.00    +0.000 OA
ATOM     16  C   UNL     1     109.967 127.219 138.706  0.00  0.00    +0.000 A 
ATOM     17  C   UNL     1     109.647 127.669 138.094  0.00  0.00    +0.000 A 
ATOM     18  C   UNL     1     110.373 126.521 138.535  0.00  0.00    +0.000 A 
ATOM     19  C   UNL     1     109.731 127.423 137.311  0.00  0.00    +0.000 A 
ATOM     20  C   UNL     1     110.457 126.273 137.753  0.00  0.00    +0.000 A 
ATOM     21  C   UNL     1     110.136 126.725 137.141  0.00  0.00    +0.000 A 
ENDBRANCH   6  16
BRANCH  10  22
ATOM     22  O   UNL     1     107.969 126.889 142.545  0.00  0.00    +0.000 OA
BRANCH  22  31
ATOM     23  O   UNL     1     106.919 127.826 142.292  0.00  0.00    +0.000 OA
ATOM     24  O   UNL     1     105.267 125.983 142.323  0.00  0.00    +0.000 OA
ATOM     25  O   UNL     1     104.770 127.534 142.060  0.00  0.00    +0.000 OA
ATOM     26  O   UNL     1     106.867 125.661 142.565  0.00  0.00    +0.000 OA
ATOM     27  C   UNL     1     105.818 126.597 142.312  0.00  0.00    +0.000 C 
ATOM     28  C   UNL     1     105.570 127.373 142.181  0.00  0.00    +0.000 C 
ATOM     29  C   UNL     1     106.618 126.436 142.434  0.00  0.00    +0.000 C 
ATOM     30  C   UNL     1     106.120 127.988 142.171  0.00  0.00    +0.000 C 
ATOM     31  C   UNL     1     107.169 127.051 142.424  0.00  0.00    +0.000 C 
BRANCH  30  33
ATOM     32  O   UNL     1     106.096 129.158 141.351  0.00  0.00    +0.000 OA
ATOM     33  C   UNL     1     105.871 128.763 142.040  0.00  0.00    +0.000 C 
ENDBRANCH  30  33
ENDBRANCH  22  31
ENDBRANCH  10  22
ENDBRANCH   1   5
BRANCH   1  40
ATOM     34  O   UNL     1     112.068 127.734 139.857  0.00  0.00    +0.000 OA
ATOM     35  O   UNL     1     113.429 129.783 139.588  0.00  0.00    +0.000 OA
ATOM     36  O   UNL     1     114.106 128.422 140.230  0.00  0.00    +0.000 OA
ATOM     37  C   UNL     1     112.184 129.097 139.447  0.00  0.00    +0.000 C 
ATOM     38  C   UNL     1     112.975 129.100 139.678  0.00  0.00    +0.000 C 
ATOM     39  C   UNL     1     113.314 128.420 139.999  0.00  0.00    +0.000 C 
ATOM     40  C   UNL     1     111.730 128.414 139.536  0.00  0.00    +0.000 C 
ATOM     41  C   UNL     1     112.861 127.736 140.089  0.00  0.00    +0.000 C 
ATOM     42  C   UNL     1     113.198 127.056 140.410  0.00  0.00    +0.000 C 
BRANCH  37  43
ATOM     43  O   UNL     1     111.845 129.778 139.125  0.00  0.00    +0.000 OA
BRANCH  43  48
ATOM     44  O   UNL     1     112.350 129.451 137.828  0.00  0.00    +0.000 OA
ATOM     45  O   UNL     1     111.544 131.319 138.620  0.00  0.00    +0.000 OA
ATOM     46  O   UNL     1     111.898 131.764 137.071  0.00  0.00    +0.000 OA
ATOM     47  O   UNL     1     112.554 130.667 136.027  0.00  0.00    +0.000 OA
ATOM     48  C   UNL     1     112.022 130.000 138.351  0.00  0.00    +0.000 C 
ATOM     49  C   UNL     1     111.872 130.770 138.098  0.00  0.00    +0.000 C 
ATOM     50  C   UNL     1     112.049 130.993 137.323  0.00  0.00    +0.000 C 
ATOM     51  C   UNL     1     112.377 130.445 136.802  0.00  0.00    +0.000 C 
ATOM     52  C   UNL     1     112.528 129.673 137.054  0.00  0.00    +0.000 C 
BRANCH  52  53
ATOM     53  C   UNL     1     112.855 129.125 136.533  0.00  0.00    +0.000 C 
BRANCH  53  54
ATOM     54  O   UNL     1     113.388 128.559 136.809  0.00  0.00    +0.000 OA
BRANCH  54  56
ATOM     55  O   UNL     1     114.101 128.190 135.628  0.00  0.00    +0.000 OA
ATOM     56  C   UNL     1     113.673 127.977 136.300  0.00  0.00    +0.000 C 
BRANCH  56  57
ATOM     57  C   UNL     1     113.531 127.180 136.462  0.00  0.00    +0.000 C 
ATOM     58  C   UNL     1     114.163 126.663 136.577  0.00  0.00    +0.000 C 
BRANCH  58  60
ATOM     59  O   UNL     1     113.597 123.477 137.227  0.00  0.00    +0.000 OA
ATOM     60  C   UNL     1     114.021 125.866 136.739  0.00  0.00    +0.000 A 
ATOM     61  C   UNL     1     114.327 125.525 137.424  0.00  0.00    +0.000 A 
ATOM     62  C   UNL     1     113.574 125.412 136.216  0.00  0.00    +0.000 A 
ATOM     63  C   UNL     1     114.186 124.728 137.587  0.00  0.00    +0.000 A 
ATOM     64  C   UNL     1     113.433 124.616 136.378  0.00  0.00    +0.000 A 
ATOM     65  C   UNL     1     113.739 124.274 137.064  0.00  0.00    +0.000 A 
ENDBRANCH  58  60
ENDBRANCH  56  57
ENDBRANCH  54  56
ENDBRANCH  53  54
ENDBRANCH  52  53
ENDBRANCH  43  48
ENDBRANCH  37  43
ENDBRANCH   1  40
TORSDOF 13
ENDMDL
MODEL 5
REMARK VINA RESULT:     -10.4      4.675      8.366
REMARK  Name = 131752835
REMARK  13 active torsions:
REMARK  status: ('A' for Active; 'I' for Inactive)
REMARK    1  A    between atoms: O_1  and  C_24
REMARK    2  A    between atoms: O_1  and  C_26
REMARK    3  A    between atoms: O_4  and  C_30
REMARK    4  A    between atoms: O_4  and  C_41
REMARK    5  A    between atoms: O_11  and  C_34
REMARK    6  A    between atoms: O_11  and  C_48
REMARK    7  A    between atoms: O_12  and  C_40
REMARK    8  A    between atoms: O_12  and  C_47
REMARK    9  A    between atoms: C_33  and  C_34
REMARK   10  A    between atoms: C_39  and  C_42
REMARK   11  A    between atoms: C_43  and  C_50
REMARK   12  A    between atoms: C_48  and  C_53
REMARK   13  A    between atoms: C_58  and  C_60
REMARK                            x       y       z     vdW  Elec       q    Type
REMARK                         _______ _______ _______ _____ _____    ______ ____
ROOT
ATOM      1  O   UNL     1     108.597 130.003 143.851  0.00  0.00    +0.000 OA
ENDROOT
BRANCH   1   5
ATOM      2  O   UNL     1     108.884 131.065 145.735  0.00  0.00    +0.000 OA
ATOM      3  O   UNL     1     109.696 131.147 143.399  0.00  0.00    +0.000 OA
ATOM      4  O   UNL     1     110.542 132.276 143.703  0.00  0.00    +0.000 OA
ATOM      5  C   UNL     1     108.876 130.548 144.404  0.00  0.00    +0.000 A 
ATOM      6  C   UNL     1     108.605 130.520 145.182  0.00  0.00    +0.000 A 
ATOM      7  C   UNL     1     109.426 131.120 144.177  0.00  0.00    +0.000 A 
ATOM      8  C   UNL     1     109.705 131.665 144.730  0.00  0.00    +0.000 A 
ATOM      9  C   UNL     1     109.434 131.637 145.510  0.00  0.00    +0.000 A 
ATOM     10  C   UNL     1     110.289 132.798 145.866  0.00  0.00    +0.000 A 
ATOM     11  C   UNL     1     109.717 132.199 146.095  0.00  0.00    +0.000 A 
ATOM     12  C   UNL     1     110.277 132.256 144.483  0.00  0.00    +0.000 A 
ATOM     13  C   UNL     1     110.571 132.826 145.055  0.00  0.00    +0.000 A 
BRANCH   6  16
ATOM     14  O   UNL     1     108.013 127.865 146.059  0.00  0.00    +0.000 OA
ATOM     15  O   UNL     1     106.405 128.234 146.088  0.00  0.00    +0.000 OA
ATOM     16  C   UNL     1     108.056 129.948 145.409  0.00  0.00    +0.000 A 
ATOM     17  C   UNL     1     108.309 129.193 145.621  0.00  0.00    +0.000 A 
ATOM     18  C   UNL     1     107.252 130.132 145.423  0.00  0.00    +0.000 A 
ATOM     19  C   UNL     1     107.759 128.620 145.847  0.00  0.00    +0.000 A 
ATOM     20  C   UNL     1     106.701 129.561 145.649  0.00  0.00    +0.000 A 
ATOM     21  C   UNL     1     106.955 128.805 145.861  0.00  0.00    +0.000 A 
ENDBRANCH   6  16
BRANCH  10  22
ATOM     22  O   UNL     1     110.567 133.341 146.421  0.00  0.00    +0.000 OA
BRANCH  22  31
ATOM     23  O   UNL     1     111.820 132.695 146.658  0.00  0.00    +0.000 OA
ATOM     24  O   UNL     1     111.721 133.378 149.035  0.00  0.00    +0.000 OA
ATOM     25  O   UNL     1     113.005 132.505 148.480  0.00  0.00    +0.000 OA
ATOM     26  O   UNL     1     110.501 133.796 148.005  0.00  0.00    +0.000 OA
ATOM     27  C   UNL     1     111.754 133.150 148.243  0.00  0.00    +0.000 C 
ATOM     28  C   UNL     1     112.396 132.714 147.965  0.00  0.00    +0.000 C 
ATOM     29  C   UNL     1     111.144 133.359 147.728  0.00  0.00    +0.000 C 
ATOM     30  C   UNL     1     112.429 132.486 147.172  0.00  0.00    +0.000 C 
ATOM     31  C   UNL     1     111.177 133.132 146.936  0.00  0.00    +0.000 C 
BRANCH  30  33
ATOM     32  O   UNL     1     113.536 132.344 146.281  0.00  0.00    +0.000 OA
ATOM     33  C   UNL     1     113.071 132.049 146.895  0.00  0.00    +0.000 C 
ENDBRANCH  30  33
ENDBRANCH  22  31
ENDBRANCH  10  22
ENDBRANCH   1   5
BRANCH   1  40
ATOM     34  O   UNL     1     107.676 130.886 143.208  0.00  0.00    +0.000 OA
ATOM     35  O   UNL     1     108.171 129.817 141.031  0.00  0.00    +0.000 OA
ATOM     36  O   UNL     1     107.085 131.057 141.113  0.00  0.00    +0.000 OA
ATOM     37  C   UNL     1     108.384 129.910 142.440  0.00  0.00    +0.000 C 
ATOM     38  C   UNL     1     108.006 130.173 141.757  0.00  0.00    +0.000 C 
ATOM     39  C   UNL     1     107.463 130.793 141.797  0.00  0.00    +0.000 C 
ATOM     40  C   UNL     1     108.219 130.266 143.166  0.00  0.00    +0.000 C 
ATOM     41  C   UNL     1     107.298 131.150 142.523  0.00  0.00    +0.000 C 
ATOM     42  C   UNL     1     106.755 131.769 142.565  0.00  0.00    +0.000 C 
BRANCH  37  43
ATOM     43  O   UNL     1     108.927 129.290 142.400  0.00  0.00    +0.000 OA
BRANCH  43  48
ATOM     44  O   UNL     1     107.877 128.322 142.476  0.00  0.00    +0.000 OA
ATOM     45  O   UNL     1     109.962 128.126 141.856  0.00  0.00    +0.000 OA
ATOM     46  O   UNL     1     109.430 126.576 141.660  0.00  0.00    +0.000 OA
ATOM     47  O   UNL     1     107.864 126.191 142.008  0.00  0.00    +0.000 OA
ATOM     48  C   UNL     1     108.661 128.515 142.302  0.00  0.00    +0.000 C 
ATOM     49  C   UNL     1     109.178 127.933 142.030  0.00  0.00    +0.000 C 
ATOM     50  C   UNL     1     108.912 127.158 141.932  0.00  0.00    +0.000 C 
ATOM     51  C   UNL     1     108.130 126.966 142.106  0.00  0.00    +0.000 C 
ATOM     52  C   UNL     1     107.612 127.547 142.378  0.00  0.00    +0.000 C 
BRANCH  52  53
ATOM     53  C   UNL     1     106.829 127.355 142.552  0.00  0.00    +0.000 C 
BRANCH  53  54
ATOM     54  O   UNL     1     106.213 127.722 142.144  0.00  0.00    +0.000 OA
BRANCH  54  56
ATOM     55  O   UNL     1     105.084 126.939 142.535  0.00  0.00    +0.000 OA
ATOM     56  C   UNL     1     105.442 127.675 142.431  0.00  0.00    +0.000 C 
BRANCH  56  57
ATOM     57  C   UNL     1     105.027 128.364 142.616  0.00  0.00    +0.000 C 
ATOM     58  C   UNL     1     104.324 128.541 142.222  0.00  0.00    +0.000 C 
BRANCH  58  60
ATOM     59  O   UNL     1     102.665 131.296 142.962  0.00  0.00    +0.000 OA
ATOM     60  C   UNL     1     103.909 129.230 142.406  0.00  0.00    +0.000 A 
ATOM     61  C   UNL     1     103.956 129.549 143.166  0.00  0.00    +0.000 A 
ATOM     62  C   UNL     1     103.447 129.600 141.832  0.00  0.00    +0.000 A 
ATOM     63  C   UNL     1     103.542 130.237 143.351  0.00  0.00    +0.000 A 
ATOM     64  C   UNL     1     103.033 130.289 142.017  0.00  0.00    +0.000 A 
ATOM     65  C   UNL     1     103.080 130.607 142.777  0.00  0.00    +0.000 A 
ENDBRANCH  58  60
ENDBRANCH  56  57
ENDBRANCH  54  56
ENDBRANCH  53  54
ENDBRANCH  52  53
ENDBRANCH  43  48
ENDBRANCH  37  43
ENDBRANCH   1  40
TORSDOF 13
ENDMDL
MODEL 6
REMARK VINA RESULT:     -10.3      1.282      3.571
REMARK  Name = 131752835
REMARK  13 active torsions:
REMARK  status: ('A' for Active; 'I' for Inactive)
REMARK    1  A    between atoms: O_1  and  C_24
REMARK    2  A    between atoms: O_1  and  C_26
REMARK    3  A    between atoms: O_4  and  C_30
REMARK    4  A    between atoms: O_4  and  C_41
REMARK    5  A    between atoms: O_11  and  C_34
REMARK    6  A    between atoms: O_11  and  C_48
REMARK    7  A    between atoms: O_12  and  C_40
REMARK    8  A    between atoms: O_12  and  C_47
REMARK    9  A    between atoms: C_33  and  C_34
REMARK   10  A    between atoms: C_39  and  C_42
REMARK   11  A    between atoms: C_43  and  C_50
REMARK   12  A    between atoms: C_48  and  C_53
REMARK   13  A    between atoms: C_58  and  C_60
REMARK                            x       y       z     vdW  Elec       q    Type
REMARK                         _______ _______ _______ _____ _____    ______ ____
ROOT
ATOM      1  O   UNL     1     110.901 126.379 138.920  0.00  0.00    +0.000 OA
ENDROOT
BRANCH   1   5
ATOM      2  O   UNL     1     110.342 127.133 140.889  0.00  0.00    +0.000 OA
ATOM      3  O   UNL     1     109.393 125.730 139.086  0.00  0.00    +0.000 OA
ATOM      4  O   UNL     1     108.179 125.531 139.840  0.00  0.00    +0.000 OA
ATOM      5  C   UNL     1     110.464 126.522 139.604  0.00  0.00    +0.000 A 
ATOM      6  C   UNL     1     110.780 126.990 140.205  0.00  0.00    +0.000 A 
ATOM      7  C   UNL     1     109.710 126.197 139.687  0.00  0.00    +0.000 A 
ATOM      8  C   UNL     1     109.272 126.341 140.371  0.00  0.00    +0.000 A 
ATOM      9  C   UNL     1     109.588 126.809 140.973  0.00  0.00    +0.000 A 
ATOM     10  C   UNL     1     108.357 126.631 141.783  0.00  0.00    +0.000 A 
ATOM     11  C   UNL     1     109.143 126.966 141.690  0.00  0.00    +0.000 A 
ATOM     12  C   UNL     1     108.488 125.997 140.446  0.00  0.00    +0.000 A 
ATOM     13  C   UNL     1     108.027 126.144 141.157  0.00  0.00    +0.000 A 
BRANCH   6  16
ATOM     14  O   UNL     1     113.622 126.721 140.353  0.00  0.00    +0.000 OA
ATOM     15  O   UNL     1     113.795 128.291 139.874  0.00  0.00    +0.000 OA
ATOM     16  C   UNL     1     111.534 127.315 140.122  0.00  0.00    +0.000 A 
ATOM     17  C   UNL     1     112.201 126.856 140.279  0.00  0.00    +0.000 A 
ATOM     18  C   UNL     1     111.621 128.099 139.883  0.00  0.00    +0.000 A 
ATOM     19  C   UNL     1     112.955 127.180 140.196  0.00  0.00    +0.000 A 
ATOM     20  C   UNL     1     112.374 128.425 139.800  0.00  0.00    +0.000 A 
ATOM     21  C   UNL     1     113.042 127.965 139.957  0.00  0.00    +0.000 A 
ENDBRANCH   6  16
BRANCH  10  22
ATOM     22  O   UNL     1     107.921 126.776 142.468  0.00  0.00    +0.000 OA
BRANCH  22  31
ATOM     23  O   UNL     1     107.377 128.057 142.139  0.00  0.00    +0.000 OA
ATOM     24  O   UNL     1     105.173 127.343 143.012  0.00  0.00    +0.000 OA
ATOM     25  O   UNL     1     105.364 128.860 142.392  0.00  0.00    +0.000 OA
ATOM     26  O   UNL     1     106.453 126.301 143.050  0.00  0.00    +0.000 OA
ATOM     27  C   UNL     1     105.908 127.581 142.721  0.00  0.00    +0.000 C 
ATOM     28  C   UNL     1     106.004 128.339 142.411  0.00  0.00    +0.000 C 
ATOM     29  C   UNL     1     106.547 127.060 142.740  0.00  0.00    +0.000 C 
ATOM     30  C   UNL     1     106.738 128.577 142.120  0.00  0.00    +0.000 C 
ATOM     31  C   UNL     1     107.282 127.298 142.449  0.00  0.00    +0.000 C 
BRANCH  30  33
ATOM     32  O   UNL     1     107.056 129.435 141.022  0.00  0.00    +0.000 OA
ATOM     33  C   UNL     1     106.833 129.336 141.810  0.00  0.00    +0.000 C 
ENDBRANCH  30  33
ENDBRANCH  22  31
ENDBRANCH  10  22
ENDBRANCH   1   5
BRANCH   1  40
ATOM     34  O   UNL     1     110.173 127.260 138.062  0.00  0.00    +0.000 OA
ATOM     35  O   UNL     1     110.425 125.653 136.197  0.00  0.00    +0.000 OA
ATOM     36  O   UNL     1     109.612 127.069 135.961  0.00  0.00    +0.000 OA
ATOM     37  C   UNL     1     110.663 126.016 137.558  0.00  0.00    +0.000 C 
ATOM     38  C   UNL     1     110.341 126.188 136.819  0.00  0.00    +0.000 C 
ATOM     39  C   UNL     1     109.934 126.897 136.700  0.00  0.00    +0.000 C 
ATOM     40  C   UNL     1     110.579 126.551 138.179  0.00  0.00    +0.000 C 
ATOM     41  C   UNL     1     109.850 127.432 137.322  0.00  0.00    +0.000 C 
ATOM     42  C   UNL     1     109.444 128.141 137.205  0.00  0.00    +0.000 C 
BRANCH  37  43
ATOM     43  O   UNL     1     111.069 125.307 137.676  0.00  0.00    +0.000 OA
BRANCH  43  48
ATOM     44  O   UNL     1     112.295 125.870 137.202  0.00  0.00    +0.000 OA
ATOM     45  O   UNL     1     111.649 123.792 137.376  0.00  0.00    +0.000 OA
ATOM     46  O   UNL     1     113.164 123.597 136.751  0.00  0.00    +0.000 OA
ATOM     47  O   UNL     1     114.099 124.917 136.428  0.00  0.00    +0.000 OA
ATOM     48  C   UNL     1     111.827 125.210 137.364  0.00  0.00    +0.000 C 
ATOM     49  C   UNL     1     112.117 124.453 137.214  0.00  0.00    +0.000 C 
ATOM     50  C   UNL     1     112.875 124.355 136.901  0.00  0.00    +0.000 C 
ATOM     51  C   UNL     1     113.342 125.015 136.740  0.00  0.00    +0.000 C 
ATOM     52  C   UNL     1     113.052 125.773 136.890  0.00  0.00    +0.000 C 
BRANCH  52  53
ATOM     53  C   UNL     1     113.519 126.433 136.728  0.00  0.00    +0.000 C 
BRANCH  53  54
ATOM     54  O   UNL     1     113.233 127.032 136.238  0.00  0.00    +0.000 OA
BRANCH  54  56
ATOM     55  O   UNL     1     114.363 127.776 135.782  0.00  0.00    +0.000 OA
ATOM     56  C   UNL     1     113.640 127.746 136.178  0.00  0.00    +0.000 C 
BRANCH  56  57
ATOM     57  C   UNL     1     113.325 128.431 136.512  0.00  0.00    +0.000 C 
ATOM     58  C   UNL     1     113.426 129.158 136.138  0.00  0.00    +0.000 C 
BRANCH  58  60
ATOM     59  O   UNL     1     112.168 131.899 137.478  0.00  0.00    +0.000 OA
ATOM     60  C   UNL     1     113.111 129.844 136.473  0.00  0.00    +0.000 A 
ATOM     61  C   UNL     1     113.598 130.356 136.898  0.00  0.00    +0.000 A 
ATOM     62  C   UNL     1     112.310 130.016 136.382  0.00  0.00    +0.000 A 
ATOM     63  C   UNL     1     113.284 131.041 137.233  0.00  0.00    +0.000 A 
ATOM     64  C   UNL     1     111.995 130.701 136.717  0.00  0.00    +0.000 A 
ATOM     65  C   UNL     1     112.483 131.213 137.143  0.00  0.00    +0.000 A 
ENDBRANCH  58  60
ENDBRANCH  56  57
ENDBRANCH  54  56
ENDBRANCH  53  54
ENDBRANCH  52  53
ENDBRANCH  43  48
ENDBRANCH  37  43
ENDBRANCH   1  40
TORSDOF 13
ENDMDL
MODEL 7
REMARK VINA RESULT:     -10.3      3.338      5.822
REMARK  Name = 131752835
REMARK  13 active torsions:
REMARK  status: ('A' for Active; 'I' for Inactive)
REMARK    1  A    between atoms: O_1  and  C_24
REMARK    2  A    between atoms: O_1  and  C_26
REMARK    3  A    between atoms: O_4  and  C_30
REMARK    4  A    between atoms: O_4  and  C_41
REMARK    5  A    between atoms: O_11  and  C_34
REMARK    6  A    between atoms: O_11  and  C_48
REMARK    7  A    between atoms: O_12  and  C_40
REMARK    8  A    between atoms: O_12  and  C_47
REMARK    9  A    between atoms: C_33  and  C_34
REMARK   10  A    between atoms: C_39  and  C_42
REMARK   11  A    between atoms: C_43  and  C_50
REMARK   12  A    between atoms: C_48  and  C_53
REMARK   13  A    between atoms: C_58  and  C_60
REMARK                            x       y       z     vdW  Elec       q    Type
REMARK                         _______ _______ _______ _____ _____    ______ ____
ROOT
ATOM      1  O   UNL     1     110.431 128.512 141.891  0.00  0.00    +0.000 OA
ENDROOT
BRANCH   1   5
ATOM      2  O   UNL     1     110.004 130.379 142.936  0.00  0.00    +0.000 OA
ATOM      3  O   UNL     1     111.224 128.260 143.316  0.00  0.00    +0.000 OA
ATOM      4  O   UNL     1     111.628 128.695 144.631  0.00  0.00    +0.000 OA
ATOM      5  C   UNL     1     110.421 129.093 142.477  0.00  0.00    +0.000 A 
ATOM      6  C   UNL     1     110.014 129.798 142.350  0.00  0.00    +0.000 A 
ATOM      7  C   UNL     1     110.817 128.966 143.189  0.00  0.00    +0.000 A 
ATOM      8  C   UNL     1     110.807 129.547 143.775  0.00  0.00    +0.000 A 
ATOM      9  C   UNL     1     110.400 130.254 143.649  0.00  0.00    +0.000 A 
ATOM     10  C   UNL     1     110.793 130.741 144.995  0.00  0.00    +0.000 A 
ATOM     11  C   UNL     1     110.382 130.866 144.251  0.00  0.00    +0.000 A 
ATOM     12  C   UNL     1     111.224 129.404 144.513  0.00  0.00    +0.000 A 
ATOM     13  C   UNL     1     111.216 130.005 145.128  0.00  0.00    +0.000 A 
BRANCH   6  16
ATOM     14  O   UNL     1     107.704 129.444 140.706  0.00  0.00    +0.000 OA
ATOM     15  O   UNL     1     108.430 130.305 139.500  0.00  0.00    +0.000 OA
ATOM     16  C   UNL     1     109.617 129.925 141.638  0.00  0.00    +0.000 A 
ATOM     17  C   UNL     1     108.859 129.621 141.528  0.00  0.00    +0.000 A 
ATOM     18  C   UNL     1     109.980 130.355 141.035  0.00  0.00    +0.000 A 
ATOM     19  C   UNL     1     108.462 129.748 140.816  0.00  0.00    +0.000 A 
ATOM     20  C   UNL     1     109.585 130.483 140.322  0.00  0.00    +0.000 A 
ATOM     21  C   UNL     1     108.825 130.178 140.213  0.00  0.00    +0.000 A 
ENDBRANCH   6  16
BRANCH  10  22
ATOM     22  O   UNL     1     110.781 131.323 145.580  0.00  0.00    +0.000 OA
BRANCH  22  31
ATOM     23  O   UNL     1     111.886 132.095 145.103  0.00  0.00    +0.000 OA
ATOM     24  O   UNL     1     110.686 134.177 145.696  0.00  0.00    +0.000 OA
ATOM     25  O   UNL     1     112.190 134.254 145.022  0.00  0.00    +0.000 OA
ATOM     26  O   UNL     1     109.982 132.711 145.974  0.00  0.00    +0.000 OA
ATOM     27  C   UNL     1     111.086 133.483 145.498  0.00  0.00    +0.000 C 
ATOM     28  C   UNL     1     111.838 133.521 145.161  0.00  0.00    +0.000 C 
ATOM     29  C   UNL     1     110.734 132.750 145.637  0.00  0.00    +0.000 C 
ATOM     30  C   UNL     1     112.238 132.827 144.964  0.00  0.00    +0.000 C 
ATOM     31  C   UNL     1     111.134 132.056 145.440  0.00  0.00    +0.000 C 
BRANCH  30  33
ATOM     32  O   UNL     1     113.117 132.573 143.866  0.00  0.00    +0.000 OA
ATOM     33  C   UNL     1     112.990 132.866 144.627  0.00  0.00    +0.000 C 
ENDBRANCH  30  33
ENDBRANCH  22  31
ENDBRANCH  10  22
ENDBRANCH   1   5
BRANCH   1  40
ATOM     34  O   UNL     1     111.802 128.700 141.534  0.00  0.00    +0.000 OA
ATOM     35  O   UNL     1     112.002 126.286 141.030  0.00  0.00    +0.000 OA
ATOM     36  O   UNL     1     113.306 127.279 140.841  0.00  0.00    +0.000 OA
ATOM     37  C   UNL     1     111.217 127.398 141.460  0.00  0.00    +0.000 C 
ATOM     38  C   UNL     1     111.936 127.090 141.198  0.00  0.00    +0.000 C 
ATOM     39  C   UNL     1     112.588 127.587 141.103  0.00  0.00    +0.000 C 
ATOM     40  C   UNL     1     111.150 128.203 141.628  0.00  0.00    +0.000 C 
ATOM     41  C   UNL     1     112.521 128.392 141.271  0.00  0.00    +0.000 C 
ATOM     42  C   UNL     1     113.173 128.889 141.177  0.00  0.00    +0.000 C 
BRANCH  37  43
ATOM     43  O   UNL     1     110.565 126.902 141.555  0.00  0.00    +0.000 OA
BRANCH  43  48
ATOM     44  O   UNL     1     110.354 126.908 140.141  0.00  0.00    +0.000 OA
ATOM     45  O   UNL     1     109.193 126.008 141.756  0.00  0.00    +0.000 OA
ATOM     46  O   UNL     1     108.296 125.567 140.443  0.00  0.00    +0.000 OA
ATOM     47  O   UNL     1     108.771 126.020 138.929  0.00  0.00    +0.000 OA
ATOM     48  C   UNL     1     110.116 126.682 140.898  0.00  0.00    +0.000 C 
ATOM     49  C   UNL     1     109.430 126.235 140.998  0.00  0.00    +0.000 C 
ATOM     50  C   UNL     1     108.982 126.014 140.342  0.00  0.00    +0.000 C 
ATOM     51  C   UNL     1     109.219 126.241 139.586  0.00  0.00    +0.000 C 
ATOM     52  C   UNL     1     109.906 126.688 139.484  0.00  0.00    +0.000 C 
BRANCH  52  53
ATOM     53  C   UNL     1     110.143 126.914 138.728  0.00  0.00    +0.000 C 
BRANCH  53  54
ATOM     54  O   UNL     1     110.238 127.714 138.547  0.00  0.00    +0.000 OA
BRANCH  54  56
ATOM     55  O   UNL     1     110.337 127.716 137.122  0.00  0.00    +0.000 OA
ATOM     56  C   UNL     1     110.634 127.937 137.859  0.00  0.00    +0.000 C 
BRANCH  56  57
ATOM     57  C   UNL     1     111.328 128.381 137.908  0.00  0.00    +0.000 C 
ATOM     58  C   UNL     1     111.407 129.073 137.467  0.00  0.00    +0.000 C 
BRANCH  58  60
ATOM     59  O   UNL     1     114.180 130.851 137.662  0.00  0.00    +0.000 OA
ATOM     60  C   UNL     1     112.101 129.517 137.516  0.00  0.00    +0.000 A 
ATOM     61  C   UNL     1     112.096 130.248 137.897  0.00  0.00    +0.000 A 
ATOM     62  C   UNL     1     112.798 129.231 137.183  0.00  0.00    +0.000 A 
ATOM     63  C   UNL     1     112.789 130.693 137.947  0.00  0.00    +0.000 A 
ATOM     64  C   UNL     1     113.491 129.674 137.231  0.00  0.00    +0.000 A 
ATOM     65  C   UNL     1     113.487 130.406 137.613  0.00  0.00    +0.000 A 
ENDBRANCH  58  60
ENDBRANCH  56  57
ENDBRANCH  54  56
ENDBRANCH  53  54
ENDBRANCH  52  53
ENDBRANCH  43  48
ENDBRANCH  37  43
ENDBRANCH   1  40
TORSDOF 13
ENDMDL
MODEL 8
REMARK VINA RESULT:     -10.3      2.275      3.926
REMARK  Name = 131752835
REMARK  13 active torsions:
REMARK  status: ('A' for Active; 'I' for Inactive)
REMARK    1  A    between atoms: O_1  and  C_24
REMARK    2  A    between atoms: O_1  and  C_26
REMARK    3  A    between atoms: O_4  and  C_30
REMARK    4  A    between atoms: O_4  and  C_41
REMARK    5  A    between atoms: O_11  and  C_34
REMARK    6  A    between atoms: O_11  and  C_48
REMARK    7  A    between atoms: O_12  and  C_40
REMARK    8  A    between atoms: O_12  and  C_47
REMARK    9  A    between atoms: C_33  and  C_34
REMARK   10  A    between atoms: C_39  and  C_42
REMARK   11  A    between atoms: C_43  and  C_50
REMARK   12  A    between atoms: C_48  and  C_53
REMARK   13  A    between atoms: C_58  and  C_60
REMARK                            x       y       z     vdW  Elec       q    Type
REMARK                         _______ _______ _______ _____ _____    ______ ____
ROOT
ATOM      1  O   UNL     1     110.755 128.710 138.863  0.00  0.00    +0.000 OA
ENDROOT
BRANCH   1   5
ATOM      2  O   UNL     1     111.115 128.225 140.960  0.00  0.00    +0.000 OA
ATOM      3  O   UNL     1     111.352 130.145 139.418  0.00  0.00    +0.000 OA
ATOM      4  O   UNL     1     111.877 130.970 140.479  0.00  0.00    +0.000 OA
ATOM      5  C   UNL     1     110.974 128.788 139.655  0.00  0.00    +0.000 A 
ATOM      6  C   UNL     1     110.895 128.148 140.169  0.00  0.00    +0.000 A 
ATOM      7  C   UNL     1     111.273 129.506 139.931  0.00  0.00    +0.000 A 
ATOM      8  C   UNL     1     111.492 129.583 140.723  0.00  0.00    +0.000 A 
ATOM      9  C   UNL     1     111.413 128.942 141.238  0.00  0.00    +0.000 A 
ATOM     10  C   UNL     1     111.949 129.756 142.359  0.00  0.00    +0.000 A 
ATOM     11  C   UNL     1     111.638 129.011 142.064  0.00  0.00    +0.000 A 
ATOM     12  C   UNL     1     111.801 130.336 140.999  0.00  0.00    +0.000 A 
ATOM     13  C   UNL     1     112.031 130.422 141.824  0.00  0.00    +0.000 A 
BRANCH   6  16
ATOM     14  O   UNL     1     108.671 126.497 139.463  0.00  0.00    +0.000 OA
ATOM     15  O   UNL     1     109.705 125.276 139.062  0.00  0.00    +0.000 OA
ATOM     16  C   UNL     1     110.597 127.430 139.892  0.00  0.00    +0.000 A 
ATOM     17  C   UNL     1     109.783 127.323 139.816  0.00  0.00    +0.000 A 
ATOM     18  C   UNL     1     111.114 126.819 139.692  0.00  0.00    +0.000 A 
ATOM     19  C   UNL     1     109.485 126.605 139.539  0.00  0.00    +0.000 A 
ATOM     20  C   UNL     1     110.817 126.101 139.415  0.00  0.00    +0.000 A 
ATOM     21  C   UNL     1     110.002 125.994 139.339  0.00  0.00    +0.000 A 
ENDBRANCH   6  16
BRANCH  10  22
ATOM     22  O   UNL     1     112.167 129.830 143.151  0.00  0.00    +0.000 OA
BRANCH  22  31
ATOM     23  O   UNL     1     111.125 130.646 143.690  0.00  0.00    +0.000 OA
ATOM     24  O   UNL     1     110.804 129.020 145.529  0.00  0.00    +0.000 OA
ATOM     25  O   UNL     1     109.870 130.378 145.455  0.00  0.00    +0.000 OA
ATOM     26  O   UNL     1     111.953 128.747 144.376  0.00  0.00    +0.000 OA
ATOM     27  C   UNL     1     110.911 129.562 144.916  0.00  0.00    +0.000 C 
ATOM     28  C   UNL     1     110.444 130.241 144.879  0.00  0.00    +0.000 C 
ATOM     29  C   UNL     1     111.486 129.426 144.340  0.00  0.00    +0.000 C 
ATOM     30  C   UNL     1     110.551 130.783 144.266  0.00  0.00    +0.000 C 
ATOM     31  C   UNL     1     111.592 129.968 143.727  0.00  0.00    +0.000 C 
BRANCH  30  33
ATOM     32  O   UNL     1     110.437 132.203 144.146  0.00  0.00    +0.000 OA
ATOM     33  C   UNL     1     110.083 131.462 144.229  0.00  0.00    +0.000 C 
ENDBRANCH  30  33
ENDBRANCH  22  31
ENDBRANCH  10  22
ENDBRANCH   1   5
BRANCH   1  40
ATOM     34  O   UNL     1     112.077 128.600 138.331  0.00  0.00    +0.000 OA
ATOM     35  O   UNL     1     111.387 129.905 136.345  0.00  0.00    +0.000 OA
ATOM     36  O   UNL     1     112.938 129.360 136.475  0.00  0.00    +0.000 OA
ATOM     37  C   UNL     1     111.071 129.308 137.604  0.00  0.00    +0.000 C 
ATOM     38  C   UNL     1     111.617 129.470 137.007  0.00  0.00    +0.000 C 
ATOM     39  C   UNL     1     112.393 129.198 137.072  0.00  0.00    +0.000 C 
ATOM     40  C   UNL     1     111.301 128.873 138.266  0.00  0.00    +0.000 C 
ATOM     41  C   UNL     1     112.623 128.762 137.734  0.00  0.00    +0.000 C 
ATOM     42  C   UNL     1     113.399 128.489 137.799  0.00  0.00    +0.000 C 
BRANCH  37  43
ATOM     43  O   UNL     1     110.295 129.581 137.539  0.00  0.00    +0.000 OA
BRANCH  43  48
ATOM     44  O   UNL     1     109.888 128.436 136.786  0.00  0.00    +0.000 OA
ATOM     45  O   UNL     1     109.034 130.442 136.914  0.00  0.00    +0.000 OA
ATOM     46  O   UNL     1     107.996 129.728 135.848  0.00  0.00    +0.000 OA
ATOM     47  O   UNL     1     108.219 128.153 135.408  0.00  0.00    +0.000 OA
ATOM     48  C   UNL     1     109.776 129.224 137.006  0.00  0.00    +0.000 C 
ATOM     49  C   UNL     1     109.146 129.654 136.693  0.00  0.00    +0.000 C 
ATOM     50  C   UNL     1     108.627 129.297 136.160  0.00  0.00    +0.000 C 
ATOM     51  C   UNL     1     108.738 128.510 135.941  0.00  0.00    +0.000 C 
ATOM     52  C   UNL     1     109.369 128.079 136.253  0.00  0.00    +0.000 C 
BRANCH  52  53
ATOM     53  C   UNL     1     109.480 127.292 136.034  0.00  0.00    +0.000 C 
BRANCH  53  54
ATOM     54  O   UNL     1     110.196 127.054 135.701  0.00  0.00    +0.000 OA
BRANCH  54  56
ATOM     55  O   UNL     1     109.883 125.772 135.153  0.00  0.00    +0.000 OA
ATOM     56  C   UNL     1     110.367 126.251 135.619  0.00  0.00    +0.000 C 
BRANCH  56  57
ATOM     57  C   UNL     1     111.021 125.927 136.002  0.00  0.00    +0.000 C 
ATOM     58  C   UNL     1     111.279 125.168 135.808  0.00  0.00    +0.000 C 
BRANCH  58  60
ATOM     59  O   UNL     1     113.899 123.872 137.341  0.00  0.00    +0.000 OA
ATOM     60  C   UNL     1     111.934 124.843 136.192  0.00  0.00    +0.000 A 
ATOM     61  C   UNL     1     112.636 125.274 136.244  0.00  0.00    +0.000 A 
ATOM     62  C   UNL     1     111.887 124.090 136.522  0.00  0.00    +0.000 A 
ATOM     63  C   UNL     1     113.291 124.950 136.627  0.00  0.00    +0.000 A 
ATOM     64  C   UNL     1     112.541 123.766 136.905  0.00  0.00    +0.000 A 
ATOM     65  C   UNL     1     113.243 124.196 136.957  0.00  0.00    +0.000 A 
ENDBRANCH  58  60
ENDBRANCH  56  57
ENDBRANCH  54  56
ENDBRANCH  53  54
ENDBRANCH  52  53
ENDBRANCH  43  48
ENDBRANCH  37  43
ENDBRANCH   1  40
TORSDOF 13
ENDMDL
MODEL 9
REMARK VINA RESULT:     -10.3      3.315      5.081
REMARK  Name = 131752835
REMARK  13 active torsions:
REMARK  status: ('A' for Active; 'I' for Inactive)
REMARK    1  A    between atoms: O_1  and  C_24
REMARK    2  A    between atoms: O_1  and  C_26
REMARK    3  A    between atoms: O_4  and  C_30
REMARK    4  A    between atoms: O_4  and  C_41
REMARK    5  A    between atoms: O_11  and  C_34
REMARK    6  A    between atoms: O_11  and  C_48
REMARK    7  A    between atoms: O_12  and  C_40
REMARK    8  A    between atoms: O_12  and  C_47
REMARK    9  A    between atoms: C_33  and  C_34
REMARK   10  A    between atoms: C_39  and  C_42
REMARK   11  A    between atoms: C_43  and  C_50
REMARK   12  A    between atoms: C_48  and  C_53
REMARK   13  A    between atoms: C_58  and  C_60
REMARK                            x       y       z     vdW  Elec       q    Type
REMARK                         _______ _______ _______ _____ _____    ______ ____
ROOT
ATOM      1  O   UNL     1     111.258 128.924 140.784  0.00  0.00    +0.000 OA
ENDROOT
BRANCH   1   5
ATOM      2  O   UNL     1     112.731 130.067 141.917  0.00  0.00    +0.000 OA
ATOM      3  O   UNL     1     110.323 130.157 141.357  0.00  0.00    +0.000 OA
ATOM      4  O   UNL     1     110.162 131.373 142.118  0.00  0.00    +0.000 OA
ATOM      5  C   UNL     1     111.593 129.511 141.257  0.00  0.00    +0.000 A 
ATOM      6  C   UNL     1     112.396 129.481 141.444  0.00  0.00    +0.000 A 
ATOM      7  C   UNL     1     111.125 130.127 141.544  0.00  0.00    +0.000 A 
ATOM      8  C   UNL     1     111.461 130.714 142.017  0.00  0.00    +0.000 A 
ATOM      9  C   UNL     1     112.265 130.684 142.204  0.00  0.00    +0.000 A 
ATOM     10  C   UNL     1     112.144 131.933 142.997  0.00  0.00    +0.000 A 
ATOM     11  C   UNL     1     112.626 131.289 142.696  0.00  0.00    +0.000 A 
ATOM     12  C   UNL     1     110.963 131.351 142.309  0.00  0.00    +0.000 A 
ATOM     13  C   UNL     1     111.308 131.965 142.803  0.00  0.00    +0.000 A 
BRANCH   6  16
ATOM     14  O   UNL     1     113.280 126.767 141.594  0.00  0.00    +0.000 OA
ATOM     15  O   UNL     1     114.269 127.018 140.297  0.00  0.00    +0.000 OA
ATOM     16  C   UNL     1     112.864 128.864 141.158  0.00  0.00    +0.000 A 
ATOM     17  C   UNL     1     112.838 128.124 141.519  0.00  0.00    +0.000 A 
ATOM     18  C   UNL     1     113.358 128.990 140.509  0.00  0.00    +0.000 A 
ATOM     19  C   UNL     1     113.306 127.508 141.232  0.00  0.00    +0.000 A 
ATOM     20  C   UNL     1     113.827 128.374 140.222  0.00  0.00    +0.000 A 
ATOM     21  C   UNL     1     113.800 127.633 140.584  0.00  0.00    +0.000 A 
ENDBRANCH   6  16
BRANCH  10  22
ATOM     22  O   UNL     1     112.482 132.518 143.470  0.00  0.00    +0.000 OA
BRANCH  22  31
ATOM     23  O   UNL     1     112.231 131.974 144.768  0.00  0.00    +0.000 OA
ATOM     24  O   UNL     1     111.474 134.197 145.552  0.00  0.00    +0.000 OA
ATOM     25  O   UNL     1     111.475 132.912 146.588  0.00  0.00    +0.000 OA
ATOM     26  O   UNL     1     111.978 133.999 143.994  0.00  0.00    +0.000 OA
ATOM     27  C   UNL     1     111.726 133.456 145.291  0.00  0.00    +0.000 C 
ATOM     28  C   UNL     1     111.727 132.813 145.808  0.00  0.00    +0.000 C 
ATOM     29  C   UNL     1     111.978 133.357 144.512  0.00  0.00    +0.000 C 
ATOM     30  C   UNL     1     111.979 132.072 145.547  0.00  0.00    +0.000 C 
ATOM     31  C   UNL     1     112.230 132.616 144.250  0.00  0.00    +0.000 C 
BRANCH  30  33
ATOM     32  O   UNL     1     112.671 130.996 146.184  0.00  0.00    +0.000 OA
ATOM     33  C   UNL     1     111.979 131.430 146.065  0.00  0.00    +0.000 C 
ENDBRANCH  30  33
ENDBRANCH  22  31
ENDBRANCH  10  22
ENDBRANCH   1   5
BRANCH   1  40
ATOM     34  O   UNL     1     111.167 129.708 139.593  0.00  0.00    +0.000 OA
ATOM     35  O   UNL     1     109.031 128.597 139.024  0.00  0.00    +0.000 OA
ATOM     36  O   UNL     1     109.652 129.751 138.022  0.00  0.00    +0.000 OA
ATOM     37  C   UNL     1     110.144 128.761 139.903  0.00  0.00    +0.000 C 
ATOM     38  C   UNL     1     109.743 128.967 139.213  0.00  0.00    +0.000 C 
ATOM     39  C   UNL     1     110.053 129.544 138.712  0.00  0.00    +0.000 C 
ATOM     40  C   UNL     1     110.856 129.131 140.093  0.00  0.00    +0.000 C 
ATOM     41  C   UNL     1     110.766 129.915 138.902  0.00  0.00    +0.000 C 
ATOM     42  C   UNL     1     111.077 130.492 138.401  0.00  0.00    +0.000 C 
BRANCH  37  43
ATOM     43  O   UNL     1     109.833 128.183 140.405  0.00  0.00    +0.000 OA
BRANCH  43  48
ATOM     44  O   UNL     1     110.309 127.163 139.524  0.00  0.00    +0.000 OA
ATOM     45  O   UNL     1     109.276 127.028 141.442  0.00  0.00    +0.000 OA
ATOM     46  O   UNL     1     109.473 125.430 141.081  0.00  0.00    +0.000 OA
ATOM     47  O   UNL     1     110.227 124.988 139.681  0.00  0.00    +0.000 OA
ATOM     48  C   UNL     1     109.932 127.384 140.224  0.00  0.00    +0.000 C 
ATOM     49  C   UNL     1     109.653 126.806 140.742  0.00  0.00    +0.000 C 
ATOM     50  C   UNL     1     109.752 126.007 140.561  0.00  0.00    +0.000 C 
ATOM     51  C   UNL     1     110.128 125.787 139.862  0.00  0.00    +0.000 C 
ATOM     52  C   UNL     1     110.407 126.364 139.343  0.00  0.00    +0.000 C 
BRANCH  52  53
ATOM     53  C   UNL     1     110.784 126.143 138.643  0.00  0.00    +0.000 C 
BRANCH  53  54
ATOM     54  O   UNL     1     111.560 126.384 138.498  0.00  0.00    +0.000 OA
BRANCH  54  56
ATOM     55  O   UNL     1     112.010 125.588 137.401  0.00  0.00    +0.000 OA
ATOM     56  C   UNL     1     111.874 126.329 137.738  0.00  0.00    +0.000 C 
BRANCH  56  57
ATOM     57  C   UNL     1     112.052 127.013 137.314  0.00  0.00    +0.000 C 
ATOM     58  C   UNL     1     112.730 127.045 136.846  0.00  0.00    +0.000 C 
BRANCH  58  60
ATOM     59  O   UNL     1     113.441 129.783 135.147  0.00  0.00    +0.000 OA
ATOM     60  C   UNL     1     112.909 127.729 136.421  0.00  0.00    +0.000 A 
ATOM     61  C   UNL     1     112.401 127.988 135.824  0.00  0.00    +0.000 A 
ATOM     62  C   UNL     1     113.593 128.156 136.594  0.00  0.00    +0.000 A 
ATOM     63  C   UNL     1     112.578 128.672 135.399  0.00  0.00    +0.000 A 
ATOM     64  C   UNL     1     113.770 128.840 136.169  0.00  0.00    +0.000 A 
ATOM     65  C   UNL     1     113.263 129.098 135.572  0.00  0.00    +0.000 A 
ENDBRANCH  58  60
ENDBRANCH  56  57
ENDBRANCH  54  56
ENDBRANCH  53  54
ENDBRANCH  52  53
ENDBRANCH  43  48
ENDBRANCH  37  43
ENDBRANCH   1  40
TORSDOF 13
ENDMDL
MODEL 10
REMARK VINA RESULT:     -10.2      1.396      2.095
REMARK  Name = 131752835
REMARK  13 active torsions:
REMARK  status: ('A' for Active; 'I' for Inactive)
REMARK    1  A    between atoms: O_1  and  C_24
REMARK    2  A    between atoms: O_1  and  C_26
REMARK    3  A    between atoms: O_4  and  C_30
REMARK    4  A    between atoms: O_4  and  C_41
REMARK    5  A    between atoms: O_11  and  C_34
REMARK    6  A    between atoms: O_11  and  C_48
REMARK    7  A    between atoms: O_12  and  C_40
REMARK    8  A    between atoms: O_12  and  C_47
REMARK    9  A    between atoms: C_33  and  C_34
REMARK   10  A    between atoms: C_39  and  C_42
REMARK   11  A    between atoms: C_43  and  C_50
REMARK   12  A    between atoms: C_48  and  C_53
REMARK   13  A    between atoms: C_58  and  C_60
REMARK                            x       y       z     vdW  Elec       q    Type
REMARK                         _______ _______ _______ _____ _____    ______ ____
ROOT
ATOM      1  O   UNL     1     110.946 128.962 139.061  0.00  0.00    +0.000 OA
ENDROOT
BRANCH   1   5
ATOM      2  O   UNL     1     110.315 128.261 141.029  0.00  0.00    +0.000 OA
ATOM      3  O   UNL     1     109.484 129.713 139.205  0.00  0.00    +0.000 OA
ATOM      4  O   UNL     1     108.278 129.999 139.944  0.00  0.00    +0.000 OA
ATOM      5  C   UNL     1     110.492 128.853 139.741  0.00  0.00    +0.000 A 
ATOM      6  C   UNL     1     110.769 128.370 140.349  0.00  0.00    +0.000 A 
ATOM      7  C   UNL     1     109.761 129.229 139.813  0.00  0.00    +0.000 A 
ATOM      8  C   UNL     1     109.307 129.121 140.493  0.00  0.00    +0.000 A 
ATOM      9  C   UNL     1     109.584 128.636 141.102  0.00  0.00    +0.000 A 
ATOM     10  C   UNL     1     108.358 128.904 141.895  0.00  0.00    +0.000 A 
ATOM     11  C   UNL     1     109.120 128.515 141.815  0.00  0.00    +0.000 A 
ATOM     12  C   UNL     1     108.547 129.517 140.556  0.00  0.00    +0.000 A 
ATOM     13  C   UNL     1     108.069 129.408 141.262  0.00  0.00    +0.000 A 
BRANCH   6  16
ATOM     14  O   UNL     1     112.302 126.013 139.837  0.00  0.00    +0.000 OA
ATOM     15  O   UNL     1     113.694 126.869 140.064  0.00  0.00    +0.000 OA
ATOM     16  C   UNL     1     111.500 127.994 140.277  0.00  0.00    +0.000 A 
ATOM     17  C   UNL     1     111.535 127.191 140.093  0.00  0.00    +0.000 A 
ATOM     18  C   UNL     1     112.196 128.422 140.391  0.00  0.00    +0.000 A 
ATOM     19  C   UNL     1     112.266 126.815 140.021  0.00  0.00    +0.000 A 
ATOM     20  C   UNL     1     112.927 128.047 140.320  0.00  0.00    +0.000 A 
ATOM     21  C   UNL     1     112.963 127.243 140.135  0.00  0.00    +0.000 A 
ENDBRANCH   6  16
BRANCH  10  22
ATOM     22  O   UNL     1     107.906 128.794 142.576  0.00  0.00    +0.000 OA
BRANCH  22  31
ATOM     23  O   UNL     1     108.358 129.962 143.265  0.00  0.00    +0.000 OA
ATOM     24  O   UNL     1     108.265 128.731 145.411  0.00  0.00    +0.000 OA
ATOM     25  O   UNL     1     108.748 130.309 145.384  0.00  0.00    +0.000 OA
ATOM     26  O   UNL     1     107.844 127.974 144.007  0.00  0.00    +0.000 OA
ATOM     27  C   UNL     1     108.296 129.142 144.696  0.00  0.00    +0.000 C 
ATOM     28  C   UNL     1     108.538 129.930 144.682  0.00  0.00    +0.000 C 
ATOM     29  C   UNL     1     108.085 128.763 143.994  0.00  0.00    +0.000 C 
ATOM     30  C   UNL     1     108.569 130.340 143.966  0.00  0.00    +0.000 C 
ATOM     31  C   UNL     1     108.117 129.173 143.278  0.00  0.00    +0.000 C 
BRANCH  30  33
ATOM     32  O   UNL     1     108.314 131.708 143.638  0.00  0.00    +0.000 OA
ATOM     33  C   UNL     1     108.811 131.129 143.953  0.00  0.00    +0.000 C 
ENDBRANCH  30  33
ENDBRANCH  22  31
ENDBRANCH  10  22
ENDBRANCH   1   5
BRANCH   1  40
ATOM     34  O   UNL     1     110.193 128.091 138.214  0.00  0.00    +0.000 OA
ATOM     35  O   UNL     1     110.551 129.633 136.311  0.00  0.00    +0.000 OA
ATOM     36  O   UNL     1     109.679 128.249 136.099  0.00  0.00    +0.000 OA
ATOM     37  C   UNL     1     110.749 129.297 137.686  0.00  0.00    +0.000 C 
ATOM     38  C   UNL     1     110.432 129.119 136.946  0.00  0.00    +0.000 C 
ATOM     39  C   UNL     1     109.995 128.427 136.839  0.00  0.00    +0.000 C 
ATOM     40  C   UNL     1     110.629 128.783 138.320  0.00  0.00    +0.000 C 
ATOM     41  C   UNL     1     109.876 127.913 137.473  0.00  0.00    +0.000 C 
ATOM     42  C   UNL     1     109.440 127.221 137.368  0.00  0.00    +0.000 C 
BRANCH  37  43
ATOM     43  O   UNL     1     111.185 129.989 137.793  0.00  0.00    +0.000 OA
BRANCH  43  48
ATOM     44  O   UNL     1     112.309 129.377 137.157  0.00  0.00    +0.000 OA
ATOM     45  O   UNL     1     112.062 131.369 138.016  0.00  0.00    +0.000 OA
ATOM     46  O   UNL     1     113.625 131.446 137.492  0.00  0.00    +0.000 OA
ATOM     47  O   UNL     1     114.310 130.145 136.745  0.00  0.00    +0.000 OA
ATOM     48  C   UNL     1     111.966 130.028 137.531  0.00  0.00    +0.000 C 
ATOM     49  C   UNL     1     112.406 130.718 137.642  0.00  0.00    +0.000 C 
ATOM     50  C   UNL     1     113.187 130.756 137.380  0.00  0.00    +0.000 C 
ATOM     51  C   UNL     1     113.529 130.106 137.007  0.00  0.00    +0.000 C 
ATOM     52  C   UNL     1     113.091 129.416 136.895  0.00  0.00    +0.000 C 
BRANCH  52  53
ATOM     53  C   UNL     1     113.433 128.765 136.522  0.00  0.00    +0.000 C 
BRANCH  53  54
ATOM     54  O   UNL     1     113.436 128.029 136.894  0.00  0.00    +0.000 OA
BRANCH  54  56
ATOM     55  O   UNL     1     114.271 127.374 135.938  0.00  0.00    +0.000 OA
ATOM     56  C   UNL     1     113.641 127.352 136.471  0.00  0.00    +0.000 C 
BRANCH  56  57
ATOM     57  C   UNL     1     113.216 126.653 136.578  0.00  0.00    +0.000 C 
ATOM     58  C   UNL     1     113.602 125.925 136.535  0.00  0.00    +0.000 C 
BRANCH  58  60
ATOM     59  O   UNL     1     111.902 123.129 136.964  0.00  0.00    +0.000 OA
ATOM     60  C   UNL     1     113.177 125.226 136.642  0.00  0.00    +0.000 A 
ATOM     61  C   UNL     1     112.382 125.189 136.425  0.00  0.00    +0.000 A 
ATOM     62  C   UNL     1     113.547 124.564 136.967  0.00  0.00    +0.000 A 
ATOM     63  C   UNL     1     111.957 124.490 136.532  0.00  0.00    +0.000 A 
ATOM     64  C   UNL     1     113.122 123.866 137.075  0.00  0.00    +0.000 A 
ATOM     65  C   UNL     1     112.327 123.829 136.857  0.00  0.00    +0.000 A 
ENDBRANCH  58  60
ENDBRANCH  56  57
ENDBRANCH  54  56
ENDBRANCH  53  54
ENDBRANCH  52  53
ENDBRANCH  43  48
ENDBRANCH  37  43
ENDBRANCH   1  40
TORSDOF 13
ENDMDL
