MODEL 1
REMARK VINA RESULT:      -9.6      0.000      0.000
REMARK  Name = 134819290
REMARK  5 active torsions:
REMARK  status: ('A' for Active; 'I' for Inactive)
REMARK    1  A    between atoms: O_2  and  C_15
REMARK    2  A    between atoms: O_2  and  C_17
REMARK    3  A    between atoms: O_7  and  C_25
REMARK    4  A    between atoms: C_16  and  C_23
REMARK    5  A    between atoms: C_21  and  C_27
REMARK                            x       y       z     vdW  Elec       q    Type
REMARK                         _______ _______ _______ _____ _____    ______ ____
ROOT
ATOM      1  O   UNL     1     112.851 127.049 137.094  0.00  0.00    +0.000 OA
ATOM      2  O   UNL     1     114.247 128.438 135.502  0.00  0.00    +0.000 OA
ATOM      3  C   UNL     1     111.759 128.971 137.099  0.00  0.00    +0.000 A 
ATOM      4  C   UNL     1     111.972 128.191 137.265  0.00  0.00    +0.000 A 
ATOM      5  C   UNL     1     112.641 127.862 136.913  0.00  0.00    +0.000 A 
ATOM      6  C   UNL     1     113.097 128.313 136.394  0.00  0.00    +0.000 A 
ATOM      7  C   UNL     1     113.547 126.700 136.730  0.00  0.00    +0.000 C 
ATOM      8  C   UNL     1     112.216 129.421 136.580  0.00  0.00    +0.000 A 
ATOM      9  C   UNL     1     114.023 127.169 136.189  0.00  0.00    +0.000 C 
ATOM     10  C   UNL     1     112.885 129.092 136.227  0.00  0.00    +0.000 A 
ATOM     11  C   UNL     1     113.796 127.981 136.020  0.00  0.00    +0.000 C 
ATOM     12  C   UNL     1     111.515 127.742 137.784  0.00  0.00    +0.000 C 
ATOM     13  C   UNL     1     112.003 130.201 136.413  0.00  0.00    +0.000 C 
ENDROOT
BRANCH   7  15
ATOM     14  O   UNL     1     113.156 123.895 136.350  0.00  0.00    +0.000 OA
ATOM     15  C   UNL     1     113.757 125.921 136.898  0.00  0.00    +0.000 A 
ATOM     16  C   UNL     1     113.352 125.298 136.541  0.00  0.00    +0.000 A 
ATOM     17  C   UNL     1     114.373 125.764 137.425  0.00  0.00    +0.000 A 
ATOM     18  C   UNL     1     113.561 124.518 136.708  0.00  0.00    +0.000 A 
ATOM     19  C   UNL     1     114.583 124.984 137.593  0.00  0.00    +0.000 A 
ATOM     20  C   UNL     1     114.177 124.361 137.235  0.00  0.00    +0.000 A 
ENDBRANCH   7  15
BRANCH  10  21
ATOM     21  O   UNL     1     113.341 129.542 135.708  0.00  0.00    +0.000 OA
ATOM     22  C   UNL     1     113.292 129.412 134.895  0.00  0.00    +0.000 C 
ENDBRANCH  10  21
BRANCH   3  23
ATOM     23  O   UNL     1     111.090 129.301 137.451  0.00  0.00    +0.000 OA
BRANCH  23  31
ATOM     24  O   UNL     1     110.262 128.782 136.408  0.00  0.00    +0.000 OA
ATOM     25  O   UNL     1     108.389 130.199 137.190  0.00  0.00    +0.000 OA
ATOM     26  O   UNL     1     109.841 130.245 137.973  0.00  0.00    +0.000 OA
ATOM     27  O   UNL     1     108.186 129.209 135.888  0.00  0.00    +0.000 OA
ATOM     28  C   UNL     1     109.013 129.727 136.930  0.00  0.00    +0.000 C 
ATOM     29  C   UNL     1     109.740 129.750 137.321  0.00  0.00    +0.000 C 
ATOM     30  C   UNL     1     108.912 129.231 136.278  0.00  0.00    +0.000 C 
ATOM     31  C   UNL     1     110.364 129.278 137.060  0.00  0.00    +0.000 C 
ATOM     32  C   UNL     1     109.536 128.759 136.017  0.00  0.00    +0.000 C 
BRANCH  32  35
ATOM     33  O   UNL     1     109.649 128.523 134.613  0.00  0.00    +0.000 OA
ATOM     34  O   UNL     1     109.117 127.509 135.468  0.00  0.00    +0.000 OA
ATOM     35  C   UNL     1     109.434 128.264 135.366  0.00  0.00    +0.000 C 
ENDBRANCH  32  35
ENDBRANCH  23  31
ENDBRANCH   3  23
TORSDOF 5
ENDMDL
MODEL 2
REMARK VINA RESULT:      -9.6      1.482      2.658
REMARK  Name = 134819290
REMARK  5 active torsions:
REMARK  status: ('A' for Active; 'I' for Inactive)
REMARK    1  A    between atoms: O_2  and  C_15
REMARK    2  A    between atoms: O_2  and  C_17
REMARK    3  A    between atoms: O_7  and  C_25
REMARK    4  A    between atoms: C_16  and  C_23
REMARK    5  A    between atoms: C_21  and  C_27
REMARK                            x       y       z     vdW  Elec       q    Type
REMARK                         _______ _______ _______ _____ _____    ______ ____
ROOT
ATOM      1  O   UNL     1     112.519 126.653 136.259  0.00  0.00    +0.000 OA
ATOM      2  O   UNL     1     110.659 124.985 135.846  0.00  0.00    +0.000 OA
ATOM      3  C   UNL     1     110.956 127.934 135.360  0.00  0.00    +0.000 A 
ATOM      4  C   UNL     1     111.667 127.688 135.700  0.00  0.00    +0.000 A 
ATOM      5  C   UNL     1     111.774 126.896 135.906  0.00  0.00    +0.000 A 
ATOM      6  C   UNL     1     111.169 126.351 135.772  0.00  0.00    +0.000 A 
ATOM      7  C   UNL     1     112.635 125.830 136.476  0.00  0.00    +0.000 C 
ATOM      8  C   UNL     1     110.353 127.388 135.227  0.00  0.00    +0.000 A 
ATOM      9  C   UNL     1     112.006 125.261 136.337  0.00  0.00    +0.000 C 
ATOM     10  C   UNL     1     110.459 126.597 135.433  0.00  0.00    +0.000 A 
ATOM     11  C   UNL     1     111.268 125.524 135.983  0.00  0.00    +0.000 C 
ATOM     12  C   UNL     1     112.271 128.234 135.833  0.00  0.00    +0.000 C 
ATOM     13  C   UNL     1     109.642 127.635 134.887  0.00  0.00    +0.000 C 
ENDROOT
BRANCH   7  15
ATOM     14  O   UNL     1     114.403 125.740 138.719  0.00  0.00    +0.000 OA
ATOM     15  C   UNL     1     113.346 125.587 136.815  0.00  0.00    +0.000 A 
ATOM     16  C   UNL     1     113.519 125.785 137.597  0.00  0.00    +0.000 A 
ATOM     17  C   UNL     1     113.885 125.145 136.373  0.00  0.00    +0.000 A 
ATOM     18  C   UNL     1     114.230 125.542 137.937  0.00  0.00    +0.000 A 
ATOM     19  C   UNL     1     114.597 124.902 136.712  0.00  0.00    +0.000 A 
ATOM     20  C   UNL     1     114.769 125.101 137.495  0.00  0.00    +0.000 A 
ENDBRANCH   7  15
BRANCH  10  21
ATOM     21  O   UNL     1     109.854 126.051 135.299  0.00  0.00    +0.000 OA
ATOM     22  C   UNL     1     109.858 125.590 134.616  0.00  0.00    +0.000 C 
ENDBRANCH  10  21
BRANCH   3  23
ATOM     23  O   UNL     1     110.850 128.726 135.154  0.00  0.00    +0.000 OA
BRANCH  23  31
ATOM     24  O   UNL     1     110.368 129.028 136.464  0.00  0.00    +0.000 OA
ATOM     25  O   UNL     1     109.523 131.208 135.652  0.00  0.00    +0.000 OA
ATOM     26  O   UNL     1     110.287 130.179 134.612  0.00  0.00    +0.000 OA
ATOM     27  O   UNL     1     109.322 130.782 137.233  0.00  0.00    +0.000 OA
ATOM     28  C   UNL     1     109.804 130.481 135.923  0.00  0.00    +0.000 C 
ATOM     29  C   UNL     1     110.187 129.966 135.403  0.00  0.00    +0.000 C 
ATOM     30  C   UNL     1     109.704 130.268 136.713  0.00  0.00    +0.000 C 
ATOM     31  C   UNL     1     110.468 129.240 135.673  0.00  0.00    +0.000 C 
ATOM     32  C   UNL     1     109.986 129.541 136.984  0.00  0.00    +0.000 C 
BRANCH  32  35
ATOM     33  O   UNL     1     110.465 129.520 138.330  0.00  0.00    +0.000 OA
ATOM     34  O   UNL     1     109.206 128.925 138.010  0.00  0.00    +0.000 OA
ATOM     35  C   UNL     1     109.886 129.329 137.774  0.00  0.00    +0.000 C 
ENDBRANCH  32  35
ENDBRANCH  23  31
ENDBRANCH   3  23
TORSDOF 5
ENDMDL
MODEL 3
REMARK VINA RESULT:      -9.3      1.896      4.260
REMARK  Name = 134819290
REMARK  5 active torsions:
REMARK  status: ('A' for Active; 'I' for Inactive)
REMARK    1  A    between atoms: O_2  and  C_15
REMARK    2  A    between atoms: O_2  and  C_17
REMARK    3  A    between atoms: O_7  and  C_25
REMARK    4  A    between atoms: C_16  and  C_23
REMARK    5  A    between atoms: C_21  and  C_27
REMARK                            x       y       z     vdW  Elec       q    Type
REMARK                         _______ _______ _______ _____ _____    ______ ____
ROOT
ATOM      1  O   UNL     1     112.930 128.413 135.748  0.00  0.00    +0.000 OA
ATOM      2  O   UNL     1     110.922 129.459 134.612  0.00  0.00    +0.000 OA
ATOM      3  C   UNL     1     111.537 126.699 135.628  0.00  0.00    +0.000 A 
ATOM      4  C   UNL     1     112.208 127.153 135.787  0.00  0.00    +0.000 A 
ATOM      5  C   UNL     1     112.225 127.951 135.576  0.00  0.00    +0.000 A 
ATOM      6  C   UNL     1     111.573 128.294 135.206  0.00  0.00    +0.000 A 
ATOM      7  C   UNL     1     112.954 129.244 135.531  0.00  0.00    +0.000 C 
ATOM      8  C   UNL     1     110.885 127.043 135.258  0.00  0.00    +0.000 A 
ATOM      9  C   UNL     1     112.274 129.602 135.145  0.00  0.00    +0.000 C 
ATOM     10  C   UNL     1     110.903 127.841 135.047  0.00  0.00    +0.000 A 
ATOM     11  C   UNL     1     111.579 129.123 134.982  0.00  0.00    +0.000 C 
ATOM     12  C   UNL     1     112.859 126.809 136.157  0.00  0.00    +0.000 C 
ATOM     13  C   UNL     1     110.214 126.589 135.098  0.00  0.00    +0.000 C 
ENDROOT
BRANCH   7  15
ATOM     14  O   UNL     1     115.532 130.206 134.758  0.00  0.00    +0.000 OA
ATOM     15  C   UNL     1     113.625 129.695 135.691  0.00  0.00    +0.000 A 
ATOM     16  C   UNL     1     114.243 129.725 135.145  0.00  0.00    +0.000 A 
ATOM     17  C   UNL     1     113.680 130.117 136.398  0.00  0.00    +0.000 A 
ATOM     18  C   UNL     1     114.914 130.176 135.305  0.00  0.00    +0.000 A 
ATOM     19  C   UNL     1     114.351 130.568 136.559  0.00  0.00    +0.000 A 
ATOM     20  C   UNL     1     114.969 130.598 136.012  0.00  0.00    +0.000 A 
ENDBRANCH   7  15
BRANCH  10  21
ATOM     21  O   UNL     1     110.250 128.184 134.677  0.00  0.00    +0.000 OA
ATOM     22  C   UNL     1     109.726 128.648 135.111  0.00  0.00    +0.000 C 
ENDBRANCH  10  21
BRANCH   3  23
ATOM     23  O   UNL     1     111.519 125.902 135.838  0.00  0.00    +0.000 OA
BRANCH  23  31
ATOM     24  O   UNL     1     110.906 126.208 137.092  0.00  0.00    +0.000 OA
ATOM     25  O   UNL     1     111.548 123.977 137.951  0.00  0.00    +0.000 OA
ATOM     26  O   UNL     1     111.947 124.414 136.410  0.00  0.00    +0.000 OA
ATOM     27  O   UNL     1     110.722 125.026 138.918  0.00  0.00    +0.000 OA
ATOM     28  C   UNL     1     111.334 124.720 137.665  0.00  0.00    +0.000 C 
ATOM     29  C   UNL     1     111.533 124.940 136.894  0.00  0.00    +0.000 C 
ATOM     30  C   UNL     1     110.921 125.246 138.148  0.00  0.00    +0.000 C 
ATOM     31  C   UNL     1     111.319 125.683 136.608  0.00  0.00    +0.000 C 
ATOM     32  C   UNL     1     110.707 125.989 137.862  0.00  0.00    +0.000 C 
BRANCH  32  35
ATOM     33  O   UNL     1     110.705 127.036 138.835  0.00  0.00    +0.000 OA
ATOM     34  O   UNL     1     109.469 126.517 138.341  0.00  0.00    +0.000 OA
ATOM     35  C   UNL     1     110.294 126.514 138.346  0.00  0.00    +0.000 C 
ENDBRANCH  32  35
ENDBRANCH  23  31
ENDBRANCH   3  23
TORSDOF 5
ENDMDL
MODEL 4
REMARK VINA RESULT:      -9.3      1.082      2.053
REMARK  Name = 134819290
REMARK  5 active torsions:
REMARK  status: ('A' for Active; 'I' for Inactive)
REMARK    1  A    between atoms: O_2  and  C_15
REMARK    2  A    between atoms: O_2  and  C_17
REMARK    3  A    between atoms: O_7  and  C_25
REMARK    4  A    between atoms: C_16  and  C_23
REMARK    5  A    between atoms: C_21  and  C_27
REMARK                            x       y       z     vdW  Elec       q    Type
REMARK                         _______ _______ _______ _____ _____    ______ ____
ROOT
ATOM      1  O   UNL     1     112.605 126.984 136.894  0.00  0.00    +0.000 OA
ATOM      2  O   UNL     1     114.116 128.575 135.630  0.00  0.00    +0.000 OA
ATOM      3  C   UNL     1     111.312 128.767 136.692  0.00  0.00    +0.000 A 
ATOM      4  C   UNL     1     111.579 128.012 136.892  0.00  0.00    +0.000 A 
ATOM      5  C   UNL     1     112.340 127.773 136.680  0.00  0.00    +0.000 A 
ATOM      6  C   UNL     1     112.834 128.290 136.268  0.00  0.00    +0.000 A 
ATOM      7  C   UNL     1     113.396 126.730 136.676  0.00  0.00    +0.000 C 
ATOM      8  C   UNL     1     111.807 129.283 136.280  0.00  0.00    +0.000 A 
ATOM      9  C   UNL     1     113.911 127.267 136.247  0.00  0.00    +0.000 C 
ATOM     10  C   UNL     1     112.568 129.044 136.068  0.00  0.00    +0.000 A 
ATOM     11  C   UNL     1     113.628 128.052 136.042  0.00  0.00    +0.000 C 
ATOM     12  C   UNL     1     111.084 127.496 137.303  0.00  0.00    +0.000 C 
ATOM     13  C   UNL     1     111.541 130.038 136.080  0.00  0.00    +0.000 C 
ENDROOT
BRANCH   7  15
ATOM     14  O   UNL     1     113.295 123.896 136.316  0.00  0.00    +0.000 OA
ATOM     15  C   UNL     1     113.659 125.974 136.877  0.00  0.00    +0.000 A 
ATOM     16  C   UNL     1     113.346 125.313 136.496  0.00  0.00    +0.000 A 
ATOM     17  C   UNL     1     114.237 125.880 137.459  0.00  0.00    +0.000 A 
ATOM     18  C   UNL     1     113.609 124.558 136.696  0.00  0.00    +0.000 A 
ATOM     19  C   UNL     1     114.500 125.124 137.660  0.00  0.00    +0.000 A 
ATOM     20  C   UNL     1     114.186 124.463 137.278  0.00  0.00    +0.000 A 
ENDBRANCH   7  15
BRANCH  10  21
ATOM     21  O   UNL     1     113.062 129.561 135.656  0.00  0.00    +0.000 OA
ATOM     22  C   UNL     1     113.681 129.940 136.047  0.00  0.00    +0.000 C 
ENDBRANCH  10  21
BRANCH   3  23
ATOM     23  O   UNL     1     110.552 129.006 136.904  0.00  0.00    +0.000 OA
BRANCH  23  31
ATOM     24  O   UNL     1     111.055 129.563 138.119  0.00  0.00    +0.000 OA
ATOM     25  O   UNL     1     108.739 129.938 138.907  0.00  0.00    +0.000 OA
ATOM     26  O   UNL     1     109.007 129.256 137.429  0.00  0.00    +0.000 OA
ATOM     27  O   UNL     1     110.014 130.370 139.859  0.00  0.00    +0.000 OA
ATOM     28  C   UNL     1     109.511 129.813 138.644  0.00  0.00    +0.000 C 
ATOM     29  C   UNL     1     109.646 129.472 137.905  0.00  0.00    +0.000 C 
ATOM     30  C   UNL     1     110.149 130.029 139.120  0.00  0.00    +0.000 C 
ATOM     31  C   UNL     1     110.418 129.347 137.642  0.00  0.00    +0.000 C 
ATOM     32  C   UNL     1     110.921 129.904 138.858  0.00  0.00    +0.000 C 
BRANCH  32  35
ATOM     33  O   UNL     1     111.871 130.883 139.285  0.00  0.00    +0.000 OA
ATOM     34  O   UNL     1     111.883 129.575 139.860  0.00  0.00    +0.000 OA
ATOM     35  C   UNL     1     111.558 130.121 139.334  0.00  0.00    +0.000 C 
ENDBRANCH  32  35
ENDBRANCH  23  31
ENDBRANCH   3  23
TORSDOF 5
ENDMDL
MODEL 5
REMARK VINA RESULT:      -9.3      1.666      3.205
REMARK  Name = 134819290
REMARK  5 active torsions:
REMARK  status: ('A' for Active; 'I' for Inactive)
REMARK    1  A    between atoms: O_2  and  C_15
REMARK    2  A    between atoms: O_2  and  C_17
REMARK    3  A    between atoms: O_7  and  C_25
REMARK    4  A    between atoms: C_16  and  C_23
REMARK    5  A    between atoms: C_21  and  C_27
REMARK                            x       y       z     vdW  Elec       q    Type
REMARK                         _______ _______ _______ _____ _____    ______ ____
ROOT
ATOM      1  O   UNL     1     112.232 126.491 136.299  0.00  0.00    +0.000 OA
ATOM      2  O   UNL     1     110.284 126.928 134.741  0.00  0.00    +0.000 OA
ATOM      3  C   UNL     1     112.520 128.628 135.809  0.00  0.00    +0.000 A 
ATOM      4  C   UNL     1     112.630 127.878 136.134  0.00  0.00    +0.000 A 
ATOM      5  C   UNL     1     112.106 127.267 135.953  0.00  0.00    +0.000 A 
ATOM      6  C   UNL     1     111.470 127.408 135.446  0.00  0.00    +0.000 A 
ATOM      7  C   UNL     1     111.689 125.852 136.113  0.00  0.00    +0.000 C 
ATOM      8  C   UNL     1     111.884 128.767 135.301  0.00  0.00    +0.000 A 
ATOM      9  C   UNL     1     111.027 125.997 135.585  0.00  0.00    +0.000 C 
ATOM     10  C   UNL     1     111.359 128.157 135.120  0.00  0.00    +0.000 A 
ATOM     11  C   UNL     1     110.917 126.780 135.249  0.00  0.00    +0.000 C 
ATOM     12  C   UNL     1     113.266 127.739 136.642  0.00  0.00    +0.000 C 
ATOM     13  C   UNL     1     111.773 129.518 134.975  0.00  0.00    +0.000 C 
ENDROOT
BRANCH   7  15
ATOM     14  O   UNL     1     111.278 123.996 138.248  0.00  0.00    +0.000 OA
ATOM     15  C   UNL     1     111.802 125.103 136.441  0.00  0.00    +0.000 A 
ATOM     16  C   UNL     1     111.484 124.923 137.180  0.00  0.00    +0.000 A 
ATOM     17  C   UNL     1     112.234 124.533 136.028  0.00  0.00    +0.000 A 
ATOM     18  C   UNL     1     111.597 124.175 137.508  0.00  0.00    +0.000 A 
ATOM     19  C   UNL     1     112.347 123.784 136.355  0.00  0.00    +0.000 A 
ATOM     20  C   UNL     1     112.028 123.606 137.095  0.00  0.00    +0.000 A 
ENDBRANCH   7  15
BRANCH  10  21
ATOM     21  O   UNL     1     110.724 128.297 134.613  0.00  0.00    +0.000 OA
ATOM     22  C   UNL     1     109.968 128.416 134.920  0.00  0.00    +0.000 C 
ENDBRANCH  10  21
BRANCH   3  23
ATOM     23  O   UNL     1     113.044 129.239 135.990  0.00  0.00    +0.000 OA
BRANCH  23  31
ATOM     24  O   UNL     1     112.221 129.665 137.077  0.00  0.00    +0.000 OA
ATOM     25  O   UNL     1     114.099 131.003 137.975  0.00  0.00    +0.000 OA
ATOM     26  O   UNL     1     114.297 130.131 136.589  0.00  0.00    +0.000 OA
ATOM     27  O   UNL     1     112.650 130.984 138.762  0.00  0.00    +0.000 OA
ATOM     28  C   UNL     1     113.473 130.557 137.676  0.00  0.00    +0.000 C 
ATOM     29  C   UNL     1     113.572 130.120 136.982  0.00  0.00    +0.000 C 
ATOM     30  C   UNL     1     112.748 130.547 138.069  0.00  0.00    +0.000 C 
ATOM     31  C   UNL     1     112.945 129.674 136.683  0.00  0.00    +0.000 C 
ATOM     32  C   UNL     1     112.122 130.101 137.770  0.00  0.00    +0.000 C 
BRANCH  32  35
ATOM     33  O   UNL     1     111.252 129.527 138.748  0.00  0.00    +0.000 OA
ATOM     34  O   UNL     1     110.818 130.647 137.974  0.00  0.00    +0.000 OA
ATOM     35  C   UNL     1     111.398 130.091 138.164  0.00  0.00    +0.000 C 
ENDBRANCH  32  35
ENDBRANCH  23  31
ENDBRANCH   3  23
TORSDOF 5
ENDMDL
MODEL 6
REMARK VINA RESULT:      -9.2      2.271      3.438
REMARK  Name = 134819290
REMARK  5 active torsions:
REMARK  status: ('A' for Active; 'I' for Inactive)
REMARK    1  A    between atoms: O_2  and  C_15
REMARK    2  A    between atoms: O_2  and  C_17
REMARK    3  A    between atoms: O_7  and  C_25
REMARK    4  A    between atoms: C_16  and  C_23
REMARK    5  A    between atoms: C_21  and  C_27
REMARK                            x       y       z     vdW  Elec       q    Type
REMARK                         _______ _______ _______ _____ _____    ______ ____
ROOT
ATOM      1  O   UNL     1     112.976 127.260 137.421  0.00  0.00    +0.000 OA
ATOM      2  O   UNL     1     114.020 128.630 135.565  0.00  0.00    +0.000 OA
ATOM      3  C   UNL     1     112.314 129.304 137.945  0.00  0.00    +0.000 A 
ATOM      4  C   UNL     1     112.422 128.486 137.968  0.00  0.00    +0.000 A 
ATOM      5  C   UNL     1     112.871 128.112 137.385  0.00  0.00    +0.000 A 
ATOM      6  C   UNL     1     113.212 128.557 136.780  0.00  0.00    +0.000 A 
ATOM      7  C   UNL     1     113.443 126.865 136.817  0.00  0.00    +0.000 C 
ATOM      8  C   UNL     1     112.656 129.747 137.339  0.00  0.00    +0.000 A 
ATOM      9  C   UNL     1     113.798 127.327 136.186  0.00  0.00    +0.000 C 
ATOM     10  C   UNL     1     113.105 129.374 136.756  0.00  0.00    +0.000 A 
ATOM     11  C   UNL     1     113.682 128.179 136.167  0.00  0.00    +0.000 C 
ATOM     12  C   UNL     1     112.081 128.043 138.574  0.00  0.00    +0.000 C 
ATOM     13  C   UNL     1     112.548 130.566 137.315  0.00  0.00    +0.000 C 
ENDROOT
BRANCH   7  15
ATOM     14  O   UNL     1     114.977 124.594 137.626  0.00  0.00    +0.000 OA
ATOM     15  C   UNL     1     113.549 126.048 136.843  0.00  0.00    +0.000 A 
ATOM     16  C   UNL     1     114.210 125.729 137.221  0.00  0.00    +0.000 A 
ATOM     17  C   UNL     1     112.995 125.548 136.491  0.00  0.00    +0.000 A 
ATOM     18  C   UNL     1     114.316 124.912 137.247  0.00  0.00    +0.000 A 
ATOM     19  C   UNL     1     113.101 124.730 136.516  0.00  0.00    +0.000 A 
ATOM     20  C   UNL     1     113.762 124.413 136.895  0.00  0.00    +0.000 A 
ENDBRANCH   7  15
BRANCH  10  21
ATOM     21  O   UNL     1     113.446 129.818 136.150  0.00  0.00    +0.000 OA
ATOM     22  C   UNL     1     114.252 129.991 136.168  0.00  0.00    +0.000 C 
ENDBRANCH  10  21
BRANCH   3  23
ATOM     23  O   UNL     1     111.865 129.678 138.527  0.00  0.00    +0.000 OA
BRANCH  23  31
ATOM     24  O   UNL     1     113.038 129.966 139.291  0.00  0.00    +0.000 OA
ATOM     25  O   UNL     1     111.631 130.445 141.270  0.00  0.00    +0.000 OA
ATOM     26  O   UNL     1     110.927 129.997 139.846  0.00  0.00    +0.000 OA
ATOM     27  O   UNL     1     113.272 130.573 141.374  0.00  0.00    +0.000 OA
ATOM     28  C   UNL     1     112.100 130.285 140.610  0.00  0.00    +0.000 C 
ATOM     29  C   UNL     1     111.748 130.061 139.898  0.00  0.00    +0.000 C 
ATOM     30  C   UNL     1     112.920 130.349 140.662  0.00  0.00    +0.000 C 
ATOM     31  C   UNL     1     112.217 129.901 139.238  0.00  0.00    +0.000 C 
ATOM     32  C   UNL     1     113.389 130.190 140.002  0.00  0.00    +0.000 C 
BRANCH  32  35
ATOM     33  O   UNL     1     114.661 129.606 140.294  0.00  0.00    +0.000 OA
ATOM     34  O   UNL     1     114.580 130.967 139.867  0.00  0.00    +0.000 OA
ATOM     35  C   UNL     1     114.210 130.254 140.054  0.00  0.00    +0.000 C 
ENDBRANCH  32  35
ENDBRANCH  23  31
ENDBRANCH   3  23
TORSDOF 5
ENDMDL
MODEL 7
REMARK VINA RESULT:      -9.2      1.677      2.498
REMARK  Name = 134819290
REMARK  5 active torsions:
REMARK  status: ('A' for Active; 'I' for Inactive)
REMARK    1  A    between atoms: O_2  and  C_15
REMARK    2  A    between atoms: O_2  and  C_17
REMARK    3  A    between atoms: O_7  and  C_25
REMARK    4  A    between atoms: C_16  and  C_23
REMARK    5  A    between atoms: C_21  and  C_27
REMARK                            x       y       z     vdW  Elec       q    Type
REMARK                         _______ _______ _______ _____ _____    ______ ____
ROOT
ATOM      1  O   UNL     1     113.214 127.038 137.771  0.00  0.00    +0.000 OA
ATOM      2  O   UNL     1     113.391 127.086 140.297  0.00  0.00    +0.000 OA
ATOM      3  C   UNL     1     112.601 129.114 138.226  0.00  0.00    +0.000 A 
ATOM      4  C   UNL     1     112.784 128.425 137.809  0.00  0.00    +0.000 A 
ATOM      5  C   UNL     1     113.026 127.749 138.216  0.00  0.00    +0.000 A 
ATOM      6  C   UNL     1     113.084 127.762 139.039  0.00  0.00    +0.000 A 
ATOM      7  C   UNL     1     113.466 126.331 138.189  0.00  0.00    +0.000 C 
ATOM      8  C   UNL     1     112.660 129.126 139.048  0.00  0.00    +0.000 A 
ATOM      9  C   UNL     1     113.527 126.344 139.046  0.00  0.00    +0.000 C 
ATOM     10  C   UNL     1     112.902 128.450 139.455  0.00  0.00    +0.000 A 
ATOM     11  C   UNL     1     113.335 127.065 139.474  0.00  0.00    +0.000 C 
ATOM     12  C   UNL     1     112.725 128.413 136.986  0.00  0.00    +0.000 C 
ATOM     13  C   UNL     1     112.477 129.815 139.465  0.00  0.00    +0.000 C 
ENDROOT
BRANCH   7  15
ATOM     14  O   UNL     1     112.619 123.981 136.800  0.00  0.00    +0.000 OA
ATOM     15  C   UNL     1     113.648 125.644 137.770  0.00  0.00    +0.000 A 
ATOM     16  C   UNL     1     113.043 125.156 137.494  0.00  0.00    +0.000 A 
ATOM     17  C   UNL     1     114.436 125.445 137.627  0.00  0.00    +0.000 A 
ATOM     18  C   UNL     1     113.224 124.469 137.076  0.00  0.00    +0.000 A 
ATOM     19  C   UNL     1     114.618 124.758 137.209  0.00  0.00    +0.000 A 
ATOM     20  C   UNL     1     114.012 124.270 136.933  0.00  0.00    +0.000 A 
ENDBRANCH   7  15
BRANCH  10  21
ATOM     21  O   UNL     1     112.960 128.463 140.278  0.00  0.00    +0.000 OA
ATOM     22  C   UNL     1     113.690 128.591 140.638  0.00  0.00    +0.000 C 
ENDBRANCH  10  21
BRANCH   3  23
ATOM     23  O   UNL     1     112.359 129.790 137.819  0.00  0.00    +0.000 OA
BRANCH  23  31
ATOM     24  O   UNL     1     110.996 129.383 137.947  0.00  0.00    +0.000 OA
ATOM     25  O   UNL     1     110.292 131.301 136.550  0.00  0.00    +0.000 OA
ATOM     26  O   UNL     1     111.890 131.069 136.888  0.00  0.00    +0.000 OA
ATOM     27  O   UNL     1     109.164 130.255 137.143  0.00  0.00    +0.000 OA
ATOM     28  C   UNL     1     110.527 130.662 137.015  0.00  0.00    +0.000 C 
ATOM     29  C   UNL     1     111.326 130.545 137.185  0.00  0.00    +0.000 C 
ATOM     30  C   UNL     1     109.963 130.138 137.312  0.00  0.00    +0.000 C 
ATOM     31  C   UNL     1     111.561 129.906 137.650  0.00  0.00    +0.000 C 
ATOM     32  C   UNL     1     110.197 129.498 137.778  0.00  0.00    +0.000 C 
BRANCH  32  35
ATOM     33  O   UNL     1     109.281 129.118 138.807  0.00  0.00    +0.000 OA
ATOM     34  O   UNL     1     109.419 128.309 137.638  0.00  0.00    +0.000 OA
ATOM     35  C   UNL     1     109.633 128.976 138.074  0.00  0.00    +0.000 C 
ENDBRANCH  32  35
ENDBRANCH  23  31
ENDBRANCH   3  23
TORSDOF 5
ENDMDL
MODEL 8
REMARK VINA RESULT:      -9.2      2.887      3.922
REMARK  Name = 134819290
REMARK  5 active torsions:
REMARK  status: ('A' for Active; 'I' for Inactive)
REMARK    1  A    between atoms: O_2  and  C_15
REMARK    2  A    between atoms: O_2  and  C_17
REMARK    3  A    between atoms: O_7  and  C_25
REMARK    4  A    between atoms: C_16  and  C_23
REMARK    5  A    between atoms: C_21  and  C_27
REMARK                            x       y       z     vdW  Elec       q    Type
REMARK                         _______ _______ _______ _____ _____    ______ ____
ROOT
ATOM      1  O   UNL     1     113.394 126.743 138.199  0.00  0.00    +0.000 OA
ATOM      2  O   UNL     1     112.024 128.300 136.746  0.00  0.00    +0.000 OA
ATOM      3  C   UNL     1     112.888 128.358 139.623  0.00  0.00    +0.000 A 
ATOM      4  C   UNL     1     113.199 127.661 139.307  0.00  0.00    +0.000 A 
ATOM      5  C   UNL     1     113.064 127.471 138.515  0.00  0.00    +0.000 A 
ATOM      6  C   UNL     1     112.618 127.977 138.040  0.00  0.00    +0.000 A 
ATOM      7  C   UNL     1     113.257 126.539 137.375  0.00  0.00    +0.000 C 
ATOM      8  C   UNL     1     112.443 128.863 139.147  0.00  0.00    +0.000 A 
ATOM      9  C   UNL     1     112.792 127.066 136.880  0.00  0.00    +0.000 C 
ATOM     10  C   UNL     1     112.308 128.672 138.355  0.00  0.00    +0.000 A 
ATOM     11  C   UNL     1     112.471 127.789 137.215  0.00  0.00    +0.000 C 
ATOM     12  C   UNL     1     113.645 127.156 139.783  0.00  0.00    +0.000 C 
ATOM     13  C   UNL     1     112.131 129.559 139.463  0.00  0.00    +0.000 C 
ENDROOT
BRANCH   7  15
ATOM     14  O   UNL     1     112.995 123.754 136.791  0.00  0.00    +0.000 OA
ATOM     15  C   UNL     1     113.569 125.843 137.062  0.00  0.00    +0.000 A 
ATOM     16  C   UNL     1     113.126 125.147 137.083  0.00  0.00    +0.000 A 
ATOM     17  C   UNL     1     114.323 125.842 136.729  0.00  0.00    +0.000 A 
ATOM     18  C   UNL     1     113.438 124.450 136.770  0.00  0.00    +0.000 A 
ATOM     19  C   UNL     1     114.636 125.145 136.416  0.00  0.00    +0.000 A 
ATOM     20  C   UNL     1     114.192 124.449 136.437  0.00  0.00    +0.000 A 
ENDBRANCH   7  15
BRANCH  10  21
ATOM     21  O   UNL     1     111.862 129.178 137.880  0.00  0.00    +0.000 OA
ATOM     22  C   UNL     1     111.073 129.003 137.716  0.00  0.00    +0.000 C 
ENDBRANCH  10  21
BRANCH   3  23
ATOM     23  O   UNL     1     113.023 128.548 140.414  0.00  0.00    +0.000 OA
BRANCH  23  31
ATOM     24  O   UNL     1     111.914 127.753 140.839  0.00  0.00    +0.000 OA
ATOM     25  O   UNL     1     111.880 128.957 143.002  0.00  0.00    +0.000 OA
ATOM     26  O   UNL     1     113.001 129.350 141.856  0.00  0.00    +0.000 OA
ATOM     27  O   UNL     1     110.783 127.762 142.705  0.00  0.00    +0.000 OA
ATOM     28  C   UNL     1     111.892 128.556 142.281  0.00  0.00    +0.000 C 
ATOM     29  C   UNL     1     112.452 128.752 141.707  0.00  0.00    +0.000 C 
ATOM     30  C   UNL     1     111.343 127.958 142.132  0.00  0.00    +0.000 C 
ATOM     31  C   UNL     1     112.463 128.351 140.986  0.00  0.00    +0.000 C 
ATOM     32  C   UNL     1     111.354 127.557 141.411  0.00  0.00    +0.000 C 
BRANCH  32  35
ATOM     33  O   UNL     1     110.988 126.176 141.448  0.00  0.00    +0.000 OA
ATOM     34  O   UNL     1     110.074 127.145 140.932  0.00  0.00    +0.000 OA
ATOM     35  C   UNL     1     110.806 126.959 141.264  0.00  0.00    +0.000 C 
ENDBRANCH  32  35
ENDBRANCH  23  31
ENDBRANCH   3  23
TORSDOF 5
ENDMDL
MODEL 9
REMARK VINA RESULT:      -9.1      2.091      2.889
REMARK  Name = 134819290
REMARK  5 active torsions:
REMARK  status: ('A' for Active; 'I' for Inactive)
REMARK    1  A    between atoms: O_2  and  C_15
REMARK    2  A    between atoms: O_2  and  C_17
REMARK    3  A    between atoms: O_7  and  C_25
REMARK    4  A    between atoms: C_16  and  C_23
REMARK    5  A    between atoms: C_21  and  C_27
REMARK                            x       y       z     vdW  Elec       q    Type
REMARK                         _______ _______ _______ _____ _____    ______ ____
ROOT
ATOM      1  O   UNL     1     111.206 128.228 136.305  0.00  0.00    +0.000 OA
ATOM      2  O   UNL     1     113.047 129.157 134.835  0.00  0.00    +0.000 OA
ATOM      3  C   UNL     1     111.804 130.039 137.425  0.00  0.00    +0.000 A 
ATOM      4  C   UNL     1     111.413 129.344 137.211  0.00  0.00    +0.000 A 
ATOM      5  C   UNL     1     111.621 128.950 136.517  0.00  0.00    +0.000 A 
ATOM      6  C   UNL     1     112.221 129.251 136.036  0.00  0.00    +0.000 A 
ATOM      7  C   UNL     1     111.418 127.813 135.584  0.00  0.00    +0.000 C 
ATOM      8  C   UNL     1     112.404 130.339 136.944  0.00  0.00    +0.000 A 
ATOM      9  C   UNL     1     112.043 128.126 135.082  0.00  0.00    +0.000 C 
ATOM     10  C   UNL     1     112.612 129.945 136.249  0.00  0.00    +0.000 A 
ATOM     11  C   UNL     1     112.446 128.850 135.311  0.00  0.00    +0.000 C 
ATOM     12  C   UNL     1     110.814 129.044 137.692  0.00  0.00    +0.000 C 
ATOM     13  C   UNL     1     112.795 131.033 137.158  0.00  0.00    +0.000 C 
ENDROOT
BRANCH   7  15
ATOM     14  O   UNL     1     111.078 124.987 135.838  0.00  0.00    +0.000 OA
ATOM     15  C   UNL     1     111.025 127.119 135.372  0.00  0.00    +0.000 A 
ATOM     16  C   UNL     1     111.248 126.400 135.710  0.00  0.00    +0.000 A 
ATOM     17  C   UNL     1     110.410 127.144 134.824  0.00  0.00    +0.000 A 
ATOM     18  C   UNL     1     110.856 125.706 135.500  0.00  0.00    +0.000 A 
ATOM     19  C   UNL     1     110.017 126.450 134.612  0.00  0.00    +0.000 A 
ATOM     20  C   UNL     1     110.240 125.731 134.951  0.00  0.00    +0.000 A 
ENDBRANCH   7  15
BRANCH  10  21
ATOM     21  O   UNL     1     113.211 130.246 135.769  0.00  0.00    +0.000 OA
ATOM     22  C   UNL     1     113.981 129.961 135.842  0.00  0.00    +0.000 C 
ENDBRANCH  10  21
BRANCH   3  23
ATOM     23  O   UNL     1     111.596 130.433 138.119  0.00  0.00    +0.000 OA
BRANCH  23  31
ATOM     24  O   UNL     1     110.636 131.204 137.394  0.00  0.00    +0.000 OA
ATOM     25  O   UNL     1     109.990 132.363 139.483  0.00  0.00    +0.000 OA
ATOM     26  O   UNL     1     111.165 131.206 139.512  0.00  0.00    +0.000 OA
ATOM     27  O   UNL     1     109.246 132.747 138.062  0.00  0.00    +0.000 OA
ATOM     28  C   UNL     1     110.205 131.977 138.787  0.00  0.00    +0.000 C 
ATOM     29  C   UNL     1     110.793 131.398 138.801  0.00  0.00    +0.000 C 
ATOM     30  C   UNL     1     109.833 132.168 138.076  0.00  0.00    +0.000 C 
ATOM     31  C   UNL     1     111.009 131.011 138.105  0.00  0.00    +0.000 C 
ATOM     32  C   UNL     1     110.049 131.782 137.380  0.00  0.00    +0.000 C 
BRANCH  32  35
ATOM     33  O   UNL     1     109.957 132.600 136.212  0.00  0.00    +0.000 OA
ATOM     34  O   UNL     1     109.022 131.540 136.416  0.00  0.00    +0.000 OA
ATOM     35  C   UNL     1     109.676 131.974 136.670  0.00  0.00    +0.000 C 
ENDBRANCH  32  35
ENDBRANCH  23  31
ENDBRANCH   3  23
TORSDOF 5
ENDMDL
MODEL 10
REMARK VINA RESULT:      -9.1      2.442      3.619
REMARK  Name = 134819290
REMARK  5 active torsions:
REMARK  status: ('A' for Active; 'I' for Inactive)
REMARK    1  A    between atoms: O_2  and  C_15
REMARK    2  A    between atoms: O_2  and  C_17
REMARK    3  A    between atoms: O_7  and  C_25
REMARK    4  A    between atoms: C_16  and  C_23
REMARK    5  A    between atoms: C_21  and  C_27
REMARK                            x       y       z     vdW  Elec       q    Type
REMARK                         _______ _______ _______ _____ _____    ______ ____
ROOT
ATOM      1  O   UNL     1     112.682 129.651 135.814  0.00  0.00    +0.000 OA
ATOM      2  O   UNL     1     113.077 129.200 138.274  0.00  0.00    +0.000 OA
ATOM      3  C   UNL     1     110.622 129.319 136.546  0.00  0.00    +0.000 A 
ATOM      4  C   UNL     1     111.259 129.476 136.045  0.00  0.00    +0.000 A 
ATOM      5  C   UNL     1     112.028 129.486 136.346  0.00  0.00    +0.000 A 
ATOM      6  C   UNL     1     112.159 129.340 137.147  0.00  0.00    +0.000 A 
ATOM      7  C   UNL     1     113.484 129.663 136.121  0.00  0.00    +0.000 C 
ATOM      8  C   UNL     1     110.755 129.172 137.347  0.00  0.00    +0.000 A 
ATOM      9  C   UNL     1     113.622 129.511 136.955  0.00  0.00    +0.000 C 
ATOM     10  C   UNL     1     111.523 129.183 137.648  0.00  0.00    +0.000 A 
ATOM     11  C   UNL     1     112.954 129.348 137.471  0.00  0.00    +0.000 C 
ATOM     12  C   UNL     1     111.127 129.623 135.245  0.00  0.00    +0.000 C 
ATOM     13  C   UNL     1     110.117 129.015 137.848  0.00  0.00    +0.000 C 
ENDROOT
BRANCH   7  15
ATOM     14  O   UNL     1     115.411 131.491 135.065  0.00  0.00    +0.000 OA
ATOM     15  C   UNL     1     114.119 129.821 135.618  0.00  0.00    +0.000 A 
ATOM     16  C   UNL     1     114.448 130.577 135.593  0.00  0.00    +0.000 A 
ATOM     17  C   UNL     1     114.425 129.222 135.140  0.00  0.00    +0.000 A 
ATOM     18  C   UNL     1     115.082 130.735 135.090  0.00  0.00    +0.000 A 
ATOM     19  C   UNL     1     115.060 129.379 134.637  0.00  0.00    +0.000 A 
ATOM     20  C   UNL     1     115.388 130.136 134.612  0.00  0.00    +0.000 A 
ENDBRANCH   7  15
BRANCH  10  21
ATOM     21  O   UNL     1     111.654 129.036 138.449  0.00  0.00    +0.000 OA
ATOM     22  C   UNL     1     111.821 129.660 138.961  0.00  0.00    +0.000 C 
ENDBRANCH  10  21
BRANCH   3  23
ATOM     23  O   UNL     1     109.854 129.309 136.246  0.00  0.00    +0.000 OA
BRANCH  23  31
ATOM     24  O   UNL     1     109.731 130.708 136.508  0.00  0.00    +0.000 OA
ATOM     25  O   UNL     1     107.370 130.639 135.767  0.00  0.00    +0.000 OA
ATOM     26  O   UNL     1     108.280 129.262 135.752  0.00  0.00    +0.000 OA
ATOM     27  O   UNL     1     108.034 132.060 136.275  0.00  0.00    +0.000 OA
ATOM     28  C   UNL     1     108.157 130.662 136.014  0.00  0.00    +0.000 C 
ATOM     29  C   UNL     1     108.612 129.973 136.007  0.00  0.00    +0.000 C 
ATOM     30  C   UNL     1     108.489 131.373 136.268  0.00  0.00    +0.000 C 
ATOM     31  C   UNL     1     109.399 129.996 136.253  0.00  0.00    +0.000 C 
ATOM     32  C   UNL     1     109.276 131.396 136.515  0.00  0.00    +0.000 C 
BRANCH  32  35
ATOM     33  O   UNL     1     109.573 132.317 137.566  0.00  0.00    +0.000 OA
ATOM     34  O   UNL     1     109.974 132.608 136.226  0.00  0.00    +0.000 OA
ATOM     35  C   UNL     1     109.608 132.107 136.769  0.00  0.00    +0.000 C 
ENDBRANCH  32  35
ENDBRANCH  23  31
ENDBRANCH   3  23
TORSDOF 5
ENDMDL
