MODEL 1
REMARK VINA RESULT:      -8.7      0.000      0.000
REMARK  Name = 11256019
REMARK  3 active torsions:
REMARK  status: ('A' for Active; 'I' for Inactive)
REMARK    1  A    between atoms: O_5  and  C_18
REMARK    2  A    between atoms: O_6  and  C_22
REMARK    3  A    between atoms: C_8  and  C_10
REMARK                            x       y       z     vdW  Elec       q    Type
REMARK                         _______ _______ _______ _____ _____    ______ ____
ROOT
ATOM      1  O   UNL     1     105.040 124.372 147.384  0.00  0.00    +0.000 OA
ATOM      2  O   UNL     1     104.750 124.728 145.250  0.00  0.00    +0.000 OA
ATOM      3  O   UNL     1     106.282 125.304 145.457  0.00  0.00    +0.000 OA
ATOM      4  O   UNL     1     107.425 125.583 146.292  0.00  0.00    +0.000 OA
ATOM      5  C   UNL     1     104.687 124.395 146.638  0.00  0.00    +0.000 C 
ATOM      6  C   UNL     1     105.101 124.705 145.996  0.00  0.00    +0.000 C 
ATOM      7  C   UNL     1     105.868 124.994 146.099  0.00  0.00    +0.000 C 
ATOM      8  C   UNL     1     106.220 124.971 146.845  0.00  0.00    +0.000 A 
ATOM      9  C   UNL     1     105.806 124.660 147.488  0.00  0.00    +0.000 A 
ATOM     10  C   UNL     1     107.019 125.274 146.939  0.00  0.00    +0.000 A 
ATOM     11  C   UNL     1     106.162 124.632 148.269  0.00  0.00    +0.000 A 
ATOM     12  C   UNL     1     106.959 124.930 148.383  0.00  0.00    +0.000 A 
ATOM     13  C   UNL     1     107.391 125.254 147.713  0.00  0.00    +0.000 A 
ENDROOT
BRANCH   5  15
ATOM     14  O   UNL     1     101.865 124.694 146.972  0.00  0.00    +0.000 OA
ATOM     15  C   UNL     1     103.922 124.107 146.535  0.00  0.00    +0.000 A 
ATOM     16  C   UNL     1     103.277 124.544 146.805  0.00  0.00    +0.000 A 
ATOM     17  C   UNL     1     103.800 123.381 146.161  0.00  0.00    +0.000 A 
ATOM     18  C   UNL     1     102.510 124.256 146.702  0.00  0.00    +0.000 A 
ATOM     19  C   UNL     1     103.035 123.093 146.058  0.00  0.00    +0.000 A 
ATOM     20  C   UNL     1     102.390 123.531 146.328  0.00  0.00    +0.000 A 
BRANCH  20  21
ATOM     21  O   UNL     1     101.623 123.243 146.225  0.00  0.00    +0.000 OA
ATOM     22  C   UNL     1     101.454 122.740 145.593  0.00  0.00    +0.000 C 
ENDBRANCH  20  21
ENDBRANCH   5  15
BRANCH  12  23
ATOM     23  O   UNL     1     107.309 124.906 149.130  0.00  0.00    +0.000 OA
ATOM     24  C   UNL     1     107.653 124.208 149.402  0.00  0.00    +0.000 C 
ENDBRANCH  12  23
TORSDOF 3
ENDMDL
MODEL 2
REMARK VINA RESULT:      -8.6      7.777      9.640
REMARK  Name = 11256019
REMARK  3 active torsions:
REMARK  status: ('A' for Active; 'I' for Inactive)
REMARK    1  A    between atoms: O_5  and  C_18
REMARK    2  A    between atoms: O_6  and  C_22
REMARK    3  A    between atoms: C_8  and  C_10
REMARK                            x       y       z     vdW  Elec       q    Type
REMARK                         _______ _______ _______ _____ _____    ______ ____
ROOT
ATOM      1  O   UNL     1     104.471 123.591 137.885  0.00  0.00    +0.000 OA
ATOM      2  O   UNL     1     102.977 123.758 139.467  0.00  0.00    +0.000 OA
ATOM      3  O   UNL     1     102.023 123.379 138.176  0.00  0.00    +0.000 OA
ATOM      4  O   UNL     1     101.856 123.065 136.778  0.00  0.00    +0.000 OA
ATOM      5  C   UNL     1     104.133 123.710 138.628  0.00  0.00    +0.000 C 
ATOM      6  C   UNL     1     103.317 123.639 138.725  0.00  0.00    +0.000 C 
ATOM      7  C   UNL     1     102.839 123.449 138.079  0.00  0.00    +0.000 C 
ATOM      8  C   UNL     1     103.179 123.331 137.337  0.00  0.00    +0.000 A 
ATOM      9  C   UNL     1     103.995 123.401 137.240  0.00  0.00    +0.000 A 
ATOM     10  C   UNL     1     102.670 123.133 136.672  0.00  0.00    +0.000 A 
ATOM     11  C   UNL     1     104.360 123.280 136.471  0.00  0.00    +0.000 A 
ATOM     12  C   UNL     1     103.868 123.082 135.795  0.00  0.00    +0.000 A 
ATOM     13  C   UNL     1     103.017 123.008 135.896  0.00  0.00    +0.000 A 
ENDROOT
BRANCH   5  15
ATOM     14  O   UNL     1     105.858 122.893 140.756  0.00  0.00    +0.000 OA
ATOM     15  C   UNL     1     104.609 123.899 139.274  0.00  0.00    +0.000 A 
ATOM     16  C   UNL     1     104.995 123.301 139.691  0.00  0.00    +0.000 A 
ATOM     17  C   UNL     1     104.702 124.687 139.502  0.00  0.00    +0.000 A 
ATOM     18  C   UNL     1     105.472 123.491 140.338  0.00  0.00    +0.000 A 
ATOM     19  C   UNL     1     105.178 124.876 140.148  0.00  0.00    +0.000 A 
ATOM     20  C   UNL     1     105.563 124.278 140.565  0.00  0.00    +0.000 A 
BRANCH  20  21
ATOM     21  O   UNL     1     106.041 124.468 141.212  0.00  0.00    +0.000 OA
ATOM     22  C   UNL     1     106.065 125.243 141.492  0.00  0.00    +0.000 C 
ENDBRANCH  20  21
ENDBRANCH   5  15
BRANCH  12  23
ATOM     23  O   UNL     1     104.210 122.964 135.053  0.00  0.00    +0.000 OA
ATOM     24  C   UNL     1     104.488 123.608 134.620  0.00  0.00    +0.000 C 
ENDBRANCH  12  23
TORSDOF 3
ENDMDL
MODEL 3
REMARK VINA RESULT:      -8.3      6.368      7.354
REMARK  Name = 11256019
REMARK  3 active torsions:
REMARK  status: ('A' for Active; 'I' for Inactive)
REMARK    1  A    between atoms: O_5  and  C_18
REMARK    2  A    between atoms: O_6  and  C_22
REMARK    3  A    between atoms: C_8  and  C_10
REMARK                            x       y       z     vdW  Elec       q    Type
REMARK                         _______ _______ _______ _____ _____    ______ ____
ROOT
ATOM      1  O   UNL     1     104.814 124.850 139.823  0.00  0.00    +0.000 OA
ATOM      2  O   UNL     1     105.288 122.739 139.535  0.00  0.00    +0.000 OA
ATOM      3  O   UNL     1     106.387 123.150 140.695  0.00  0.00    +0.000 OA
ATOM      4  O   UNL     1     106.984 124.117 141.583  0.00  0.00    +0.000 OA
ATOM      5  C   UNL     1     104.788 124.078 139.533  0.00  0.00    +0.000 C 
ATOM      6  C   UNL     1     105.312 123.511 139.824  0.00  0.00    +0.000 C 
ATOM      7  C   UNL     1     105.862 123.716 140.404  0.00  0.00    +0.000 C 
ATOM      8  C   UNL     1     105.887 124.489 140.694  0.00  0.00    +0.000 A 
ATOM      9  C   UNL     1     105.363 125.055 140.403  0.00  0.00    +0.000 A 
ATOM     10  C   UNL     1     106.465 124.690 141.298  0.00  0.00    +0.000 A 
ATOM     11  C   UNL     1     105.379 125.863 140.697  0.00  0.00    +0.000 A 
ATOM     12  C   UNL     1     105.949 126.083 141.301  0.00  0.00    +0.000 A 
ATOM     13  C   UNL     1     106.495 125.492 141.604  0.00  0.00    +0.000 A 
ENDROOT
BRANCH   5  15
ATOM     14  O   UNL     1     102.102 123.465 138.775  0.00  0.00    +0.000 OA
ATOM     15  C   UNL     1     104.239 123.873 138.953  0.00  0.00    +0.000 A 
ATOM     16  C   UNL     1     103.446 123.771 139.154  0.00  0.00    +0.000 A 
ATOM     17  C   UNL     1     104.483 123.768 138.172  0.00  0.00    +0.000 A 
ATOM     18  C   UNL     1     102.896 123.566 138.574  0.00  0.00    +0.000 A 
ATOM     19  C   UNL     1     103.934 123.563 137.592  0.00  0.00    +0.000 A 
ATOM     20  C   UNL     1     103.140 123.462 137.793  0.00  0.00    +0.000 A 
BRANCH  20  21
ATOM     21  O   UNL     1     102.590 123.256 137.213  0.00  0.00    +0.000 OA
ATOM     22  C   UNL     1     102.847 123.061 136.453  0.00  0.00    +0.000 C 
ENDBRANCH  20  21
ENDBRANCH   5  15
BRANCH  12  23
ATOM     23  O   UNL     1     105.972 126.856 141.588  0.00  0.00    +0.000 OA
ATOM     24  C   UNL     1     105.561 127.052 142.277  0.00  0.00    +0.000 C 
ENDBRANCH  12  23
TORSDOF 3
ENDMDL
MODEL 4
REMARK VINA RESULT:      -8.0      0.911      4.620
REMARK  Name = 11256019
REMARK  3 active torsions:
REMARK  status: ('A' for Active; 'I' for Inactive)
REMARK    1  A    between atoms: O_5  and  C_18
REMARK    2  A    between atoms: O_6  and  C_22
REMARK    3  A    between atoms: C_8  and  C_10
REMARK                            x       y       z     vdW  Elec       q    Type
REMARK                         _______ _______ _______ _____ _____    ______ ____
ROOT
ATOM      1  O   UNL     1     104.250 124.173 146.909  0.00  0.00    +0.000 OA
ATOM      2  O   UNL     1     104.509 125.963 148.132  0.00  0.00    +0.000 OA
ATOM      3  O   UNL     1     102.866 125.812 148.144  0.00  0.00    +0.000 OA
ATOM      4  O   UNL     1     101.658 125.127 147.755  0.00  0.00    +0.000 OA
ATOM      5  C   UNL     1     104.611 124.795 147.314  0.00  0.00    +0.000 C 
ATOM      6  C   UNL     1     104.150 125.341 147.726  0.00  0.00    +0.000 C 
ATOM      7  C   UNL     1     103.328 125.266 147.732  0.00  0.00    +0.000 C 
ATOM      8  C   UNL     1     102.968 124.644 147.327  0.00  0.00    +0.000 A 
ATOM      9  C   UNL     1     103.429 124.098 146.915  0.00  0.00    +0.000 A 
ATOM     10  C   UNL     1     102.110 124.577 147.341  0.00  0.00    +0.000 A 
ATOM     11  C   UNL     1     103.065 123.446 146.489  0.00  0.00    +0.000 A 
ATOM     12  C   UNL     1     102.211 123.362 146.491  0.00  0.00    +0.000 A 
ATOM     13  C   UNL     1     101.730 123.932 146.921  0.00  0.00    +0.000 A 
ENDROOT
BRANCH   5  15
ATOM     14  O   UNL     1     107.019 125.526 145.960  0.00  0.00    +0.000 OA
ATOM     15  C   UNL     1     105.432 124.870 147.308  0.00  0.00    +0.000 A 
ATOM     16  C   UNL     1     105.814 125.160 146.637  0.00  0.00    +0.000 A 
ATOM     17  C   UNL     1     105.872 124.656 147.973  0.00  0.00    +0.000 A 
ATOM     18  C   UNL     1     106.637 125.236 146.631  0.00  0.00    +0.000 A 
ATOM     19  C   UNL     1     106.692 124.732 147.967  0.00  0.00    +0.000 A 
ATOM     20  C   UNL     1     107.075 125.022 147.296  0.00  0.00    +0.000 A 
BRANCH  20  21
ATOM     21  O   UNL     1     107.897 125.097 147.290  0.00  0.00    +0.000 OA
ATOM     22  C   UNL     1     108.325 124.995 147.987  0.00  0.00    +0.000 C 
ENDBRANCH  20  21
ENDBRANCH   5  15
BRANCH  12  23
ATOM     23  O   UNL     1     101.853 122.740 146.085  0.00  0.00    +0.000 OA
ATOM     24  C   UNL     1     101.323 122.897 145.473  0.00  0.00    +0.000 C 
ENDBRANCH  12  23
TORSDOF 3
ENDMDL
MODEL 5
REMARK VINA RESULT:      -8.0      1.017      4.381
REMARK  Name = 11256019
REMARK  3 active torsions:
REMARK  status: ('A' for Active; 'I' for Inactive)
REMARK    1  A    between atoms: O_5  and  C_18
REMARK    2  A    between atoms: O_6  and  C_22
REMARK    3  A    between atoms: C_8  and  C_10
REMARK                            x       y       z     vdW  Elec       q    Type
REMARK                         _______ _______ _______ _____ _____    ______ ____
ROOT
ATOM      1  O   UNL     1     104.122 125.000 147.402  0.00  0.00    +0.000 OA
ATOM      2  O   UNL     1     105.073 123.920 145.760  0.00  0.00    +0.000 OA
ATOM      3  O   UNL     1     103.490 123.520 145.521  0.00  0.00    +0.000 OA
ATOM      4  O   UNL     1     102.099 123.597 145.891  0.00  0.00    +0.000 OA
ATOM      5  C   UNL     1     104.704 124.707 146.894  0.00  0.00    +0.000 C 
ATOM      6  C   UNL     1     104.493 124.214 146.268  0.00  0.00    +0.000 C 
ATOM      7  C   UNL     1     103.701 124.013 146.148  0.00  0.00    +0.000 C 
ATOM      8  C   UNL     1     103.121 124.307 146.655  0.00  0.00    +0.000 A 
ATOM      9  C   UNL     1     103.332 124.800 147.282  0.00  0.00    +0.000 A 
ATOM     10  C   UNL     1     102.299 124.090 146.520  0.00  0.00    +0.000 A 
ATOM     11  C   UNL     1     102.736 125.111 147.818  0.00  0.00    +0.000 A 
ATOM     12  C   UNL     1     101.910 124.907 147.698  0.00  0.00    +0.000 A 
ATOM     13  C   UNL     1     101.690 124.392 147.045  0.00  0.00    +0.000 A 
ENDROOT
BRANCH   5  15
ATOM     14  O   UNL     1     107.014 126.216 146.151  0.00  0.00    +0.000 OA
ATOM     15  C   UNL     1     105.495 124.907 147.014  0.00  0.00    +0.000 A 
ATOM     16  C   UNL     1     105.858 125.461 146.523  0.00  0.00    +0.000 A 
ATOM     17  C   UNL     1     105.923 124.552 147.624  0.00  0.00    +0.000 A 
ATOM     18  C   UNL     1     106.650 125.662 146.642  0.00  0.00    +0.000 A 
ATOM     19  C   UNL     1     106.714 124.752 147.743  0.00  0.00    +0.000 A 
ATOM     20  C   UNL     1     107.078 125.307 147.252  0.00  0.00    +0.000 A 
BRANCH  20  21
ATOM     21  O   UNL     1     107.870 125.507 147.371  0.00  0.00    +0.000 OA
ATOM     22  C   UNL     1     108.327 125.078 147.907  0.00  0.00    +0.000 C 
ENDBRANCH  20  21
ENDBRANCH   5  15
BRANCH  12  23
ATOM     23  O   UNL     1     101.331 125.201 148.207  0.00  0.00    +0.000 OA
ATOM     24  C   UNL     1     101.093 124.758 148.861  0.00  0.00    +0.000 C 
ENDBRANCH  12  23
TORSDOF 3
ENDMDL
MODEL 6
REMARK VINA RESULT:      -7.7     12.705     14.115
REMARK  Name = 11256019
REMARK  3 active torsions:
REMARK  status: ('A' for Active; 'I' for Inactive)
REMARK    1  A    between atoms: O_5  and  C_18
REMARK    2  A    between atoms: O_6  and  C_22
REMARK    3  A    between atoms: C_8  and  C_10
REMARK                            x       y       z     vdW  Elec       q    Type
REMARK                         _______ _______ _______ _____ _____    ______ ____
ROOT
ATOM      1  O   UNL     1     113.769 127.540 136.081  0.00  0.00    +0.000 OA
ATOM      2  O   UNL     1     112.759 127.236 137.993  0.00  0.00    +0.000 OA
ATOM      3  O   UNL     1     112.837 128.883 137.940  0.00  0.00    +0.000 OA
ATOM      4  O   UNL     1     113.218 130.109 137.282  0.00  0.00    +0.000 OA
ATOM      5  C   UNL     1     113.419 127.164 136.727  0.00  0.00    +0.000 C 
ATOM      6  C   UNL     1     113.109 127.611 137.347  0.00  0.00    +0.000 C 
ATOM      7  C   UNL     1     113.147 128.436 137.320  0.00  0.00    +0.000 C 
ATOM      8  C   UNL     1     113.497 128.811 136.674  0.00  0.00    +0.000 A 
ATOM      9  C   UNL     1     113.807 128.363 136.055  0.00  0.00    +0.000 A 
ATOM     10  C   UNL     1     113.531 129.670 136.659  0.00  0.00    +0.000 A 
ATOM     11  C   UNL     1     114.174 128.744 135.376  0.00  0.00    +0.000 A 
ATOM     12  C   UNL     1     114.217 129.601 135.343  0.00  0.00    +0.000 A 
ATOM     13  C   UNL     1     113.893 130.068 135.989  0.00  0.00    +0.000 A 
ENDROOT
BRANCH   5  15
ATOM     14  O   UNL     1     114.640 124.646 137.312  0.00  0.00    +0.000 OA
ATOM     15  C   UNL     1     113.381 126.341 136.754  0.00  0.00    +0.000 A 
ATOM     16  C   UNL     1     114.030 125.906 137.019  0.00  0.00    +0.000 A 
ATOM     17  C   UNL     1     112.694 125.951 136.515  0.00  0.00    +0.000 A 
ATOM     18  C   UNL     1     113.991 125.081 137.046  0.00  0.00    +0.000 A 
ATOM     19  C   UNL     1     112.655 125.128 136.542  0.00  0.00    +0.000 A 
ATOM     20  C   UNL     1     113.304 124.693 136.807  0.00  0.00    +0.000 A 
BRANCH  20  21
ATOM     21  O   UNL     1     113.265 123.869 136.834  0.00  0.00    +0.000 OA
ATOM     22  C   UNL     1     112.532 123.491 136.834  0.00  0.00    +0.000 C 
ENDBRANCH  20  21
ENDBRANCH   5  15
BRANCH  12  23
ATOM     23  O   UNL     1     114.567 129.974 134.696  0.00  0.00    +0.000 OA
ATOM     24  C   UNL     1     115.325 130.293 134.764  0.00  0.00    +0.000 C 
ENDBRANCH  12  23
TORSDOF 3
ENDMDL
MODEL 7
REMARK VINA RESULT:      -7.6     12.878     14.758
REMARK  Name = 11256019
REMARK  3 active torsions:
REMARK  status: ('A' for Active; 'I' for Inactive)
REMARK    1  A    between atoms: O_5  and  C_18
REMARK    2  A    between atoms: O_6  and  C_22
REMARK    3  A    between atoms: C_8  and  C_10
REMARK                            x       y       z     vdW  Elec       q    Type
REMARK                         _______ _______ _______ _____ _____    ______ ____
ROOT
ATOM      1  O   UNL     1     113.885 127.698 136.408  0.00  0.00    +0.000 OA
ATOM      2  O   UNL     1     112.367 128.845 135.339  0.00  0.00    +0.000 OA
ATOM      3  O   UNL     1     111.533 127.462 135.676  0.00  0.00    +0.000 OA
ATOM      4  O   UNL     1     111.455 126.143 136.254  0.00  0.00    +0.000 OA
ATOM      5  C   UNL     1     113.519 128.311 135.995  0.00  0.00    +0.000 C 
ATOM      6  C   UNL     1     112.734 128.233 135.752  0.00  0.00    +0.000 C 
ATOM      7  C   UNL     1     112.317 127.541 135.920  0.00  0.00    +0.000 C 
ATOM      8  C   UNL     1     112.684 126.928 136.332  0.00  0.00    +0.000 A 
ATOM      9  C   UNL     1     113.469 127.007 136.576  0.00  0.00    +0.000 A 
ATOM     10  C   UNL     1     112.238 126.212 136.502  0.00  0.00    +0.000 A 
ATOM     11  C   UNL     1     113.862 126.375 137.007  0.00  0.00    +0.000 A 
ATOM     12  C   UNL     1     113.433 125.652 137.185  0.00  0.00    +0.000 A 
ATOM     13  C   UNL     1     112.615 125.571 136.931  0.00  0.00    +0.000 A 
ENDROOT
BRANCH   5  15
ATOM     14  O   UNL     1     114.362 130.937 136.744  0.00  0.00    +0.000 OA
ATOM     15  C   UNL     1     113.935 129.002 135.827  0.00  0.00    +0.000 A 
ATOM     16  C   UNL     1     113.940 129.624 136.370  0.00  0.00    +0.000 A 
ATOM     17  C   UNL     1     114.348 129.073 135.116  0.00  0.00    +0.000 A 
ATOM     18  C   UNL     1     114.357 130.316 136.201  0.00  0.00    +0.000 A 
ATOM     19  C   UNL     1     114.765 129.764 134.947  0.00  0.00    +0.000 A 
ATOM     20  C   UNL     1     114.769 130.386 135.490  0.00  0.00    +0.000 A 
BRANCH  20  21
ATOM     21  O   UNL     1     115.186 131.078 135.322  0.00  0.00    +0.000 OA
ATOM     22  C   UNL     1     115.638 131.129 134.634  0.00  0.00    +0.000 C 
ENDBRANCH  20  21
ENDBRANCH   5  15
BRANCH  12  23
ATOM     23  O   UNL     1     113.802 125.041 137.597  0.00  0.00    +0.000 OA
ATOM     24  C   UNL     1     114.487 124.694 137.295  0.00  0.00    +0.000 C 
ENDBRANCH  12  23
TORSDOF 3
ENDMDL
MODEL 8
REMARK VINA RESULT:      -7.6     12.766     14.103
REMARK  Name = 11256019
REMARK  3 active torsions:
REMARK  status: ('A' for Active; 'I' for Inactive)
REMARK    1  A    between atoms: O_5  and  C_18
REMARK    2  A    between atoms: O_6  and  C_22
REMARK    3  A    between atoms: C_8  and  C_10
REMARK                            x       y       z     vdW  Elec       q    Type
REMARK                         _______ _______ _______ _____ _____    ______ ____
ROOT
ATOM      1  O   UNL     1     112.186 127.190 136.019  0.00  0.00    +0.000 OA
ATOM      2  O   UNL     1     114.094 126.758 136.986  0.00  0.00    +0.000 OA
ATOM      3  O   UNL     1     113.419 125.253 136.944  0.00  0.00    +0.000 OA
ATOM      4  O   UNL     1     112.337 124.364 136.600  0.00  0.00    +0.000 OA
ATOM      5  C   UNL     1     112.935 127.297 136.349  0.00  0.00    +0.000 C 
ATOM      6  C   UNL     1     113.346 126.652 136.657  0.00  0.00    +0.000 C 
ATOM      7  C   UNL     1     113.008 125.899 136.635  0.00  0.00    +0.000 C 
ATOM      8  C   UNL     1     112.259 125.792 136.306  0.00  0.00    +0.000 A 
ATOM      9  C   UNL     1     111.848 126.438 135.997  0.00  0.00    +0.000 A 
ATOM     10  C   UNL     1     111.918 125.003 136.289  0.00  0.00    +0.000 A 
ATOM     11  C   UNL     1     111.067 126.339 135.651  0.00  0.00    +0.000 A 
ATOM     12  C   UNL     1     110.711 125.558 135.626  0.00  0.00    +0.000 A 
ATOM     13  C   UNL     1     111.139 124.885 135.947  0.00  0.00    +0.000 A 
ENDROOT
BRANCH   5  15
ATOM     14  O   UNL     1     113.272 129.822 137.644  0.00  0.00    +0.000 OA
ATOM     15  C   UNL     1     113.272 128.049 136.370  0.00  0.00    +0.000 A 
ATOM     16  C   UNL     1     113.103 128.559 136.996  0.00  0.00    +0.000 A 
ATOM     17  C   UNL     1     113.779 128.292 135.766  0.00  0.00    +0.000 A 
ATOM     18  C   UNL     1     113.441 129.312 137.018  0.00  0.00    +0.000 A 
ATOM     19  C   UNL     1     114.116 129.044 135.787  0.00  0.00    +0.000 A 
ATOM     20  C   UNL     1     113.947 129.554 136.413  0.00  0.00    +0.000 A 
BRANCH  20  21
ATOM     21  O   UNL     1     114.285 130.307 136.435  0.00  0.00    +0.000 OA
ATOM     22  C   UNL     1     114.846 130.523 135.870  0.00  0.00    +0.000 C 
ENDBRANCH  20  21
ENDBRANCH   5  15
BRANCH  12  23
ATOM     23  O   UNL     1     109.962 125.454 135.296  0.00  0.00    +0.000 OA
ATOM     24  C   UNL     1     109.751 125.867 134.614  0.00  0.00    +0.000 C 
ENDBRANCH  12  23
TORSDOF 3
ENDMDL
MODEL 9
REMARK VINA RESULT:      -7.6      2.642      4.478
REMARK  Name = 11256019
REMARK  3 active torsions:
REMARK  status: ('A' for Active; 'I' for Inactive)
REMARK    1  A    between atoms: O_5  and  C_18
REMARK    2  A    between atoms: O_6  and  C_22
REMARK    3  A    between atoms: C_8  and  C_10
REMARK                            x       y       z     vdW  Elec       q    Type
REMARK                         _______ _______ _______ _____ _____    ______ ____
ROOT
ATOM      1  O   UNL     1     106.357 126.624 146.397  0.00  0.00    +0.000 OA
ATOM      2  O   UNL     1     106.315 124.522 145.807  0.00  0.00    +0.000 OA
ATOM      3  O   UNL     1     105.668 125.236 144.467  0.00  0.00    +0.000 OA
ATOM      4  O   UNL     1     105.240 126.407 143.742  0.00  0.00    +0.000 OA
ATOM      5  C   UNL     1     106.451 125.804 146.424  0.00  0.00    +0.000 C 
ATOM      6  C   UNL     1     106.222 125.342 145.781  0.00  0.00    +0.000 C 
ATOM      7  C   UNL     1     105.898 125.698 145.110  0.00  0.00    +0.000 C 
ATOM      8  C   UNL     1     105.804 126.517 145.085  0.00  0.00    +0.000 A 
ATOM      9  C   UNL     1     106.034 126.980 145.728  0.00  0.00    +0.000 A 
ATOM     10  C   UNL     1     105.466 126.877 144.380  0.00  0.00    +0.000 A 
ATOM     11  C   UNL     1     105.941 127.835 145.712  0.00  0.00    +0.000 A 
ATOM     12  C   UNL     1     105.605 128.212 145.017  0.00  0.00    +0.000 A 
ATOM     13  C   UNL     1     105.366 127.729 144.347  0.00  0.00    +0.000 A 
ENDROOT
BRANCH   5  15
ATOM     14  O   UNL     1     108.736 124.979 147.930  0.00  0.00    +0.000 OA
ATOM     15  C   UNL     1     106.774 125.448 147.094  0.00  0.00    +0.000 A 
ATOM     16  C   UNL     1     107.593 125.392 147.177  0.00  0.00    +0.000 A 
ATOM     17  C   UNL     1     106.280 125.146 147.681  0.00  0.00    +0.000 A 
ATOM     18  C   UNL     1     107.917 125.035 147.847  0.00  0.00    +0.000 A 
ATOM     19  C   UNL     1     106.603 124.790 148.351  0.00  0.00    +0.000 A 
ATOM     20  C   UNL     1     107.422 124.734 148.433  0.00  0.00    +0.000 A 
BRANCH  20  21
ATOM     21  O   UNL     1     107.746 124.377 149.104  0.00  0.00    +0.000 OA
ATOM     22  C   UNL     1     107.266 123.932 149.606  0.00  0.00    +0.000 C 
ENDBRANCH  20  21
ENDBRANCH   5  15
BRANCH  12  23
ATOM     23  O   UNL     1     105.512 129.031 144.993  0.00  0.00    +0.000 OA
ATOM     24  C   UNL     1     104.787 129.370 145.192  0.00  0.00    +0.000 C 
ENDBRANCH  12  23
TORSDOF 3
ENDMDL
MODEL 10
REMARK VINA RESULT:      -7.6      7.536      8.463
REMARK  Name = 11256019
REMARK  3 active torsions:
REMARK  status: ('A' for Active; 'I' for Inactive)
REMARK    1  A    between atoms: O_5  and  C_18
REMARK    2  A    between atoms: O_6  and  C_22
REMARK    3  A    between atoms: C_8  and  C_10
REMARK                            x       y       z     vdW  Elec       q    Type
REMARK                         _______ _______ _______ _____ _____    ______ ____
ROOT
ATOM      1  O   UNL     1     103.492 130.309 142.144  0.00  0.00    +0.000 OA
ATOM      2  O   UNL     1     102.282 130.214 140.330  0.00  0.00    +0.000 OA
ATOM      3  O   UNL     1     103.115 128.794 140.224  0.00  0.00    +0.000 OA
ATOM      4  O   UNL     1     104.078 127.853 140.742  0.00  0.00    +0.000 OA
ATOM      5  C   UNL     1     102.949 130.515 141.557  0.00  0.00    +0.000 C 
ATOM      6  C   UNL     1     102.824 130.010 140.917  0.00  0.00    +0.000 C 
ATOM      7  C   UNL     1     103.240 129.299 140.864  0.00  0.00    +0.000 C 
ATOM      8  C   UNL     1     103.782 129.095 141.452  0.00  0.00    +0.000 A 
ATOM      9  C   UNL     1     103.908 129.600 142.092  0.00  0.00    +0.000 A 
ATOM     10  C   UNL     1     104.210 128.351 141.385  0.00  0.00    +0.000 A 
ATOM     11  C   UNL     1     104.470 129.397 142.710  0.00  0.00    +0.000 A 
ATOM     12  C   UNL     1     104.906 128.659 142.660  0.00  0.00    +0.000 A 
ATOM     13  C   UNL     1     104.776 128.132 141.993  0.00  0.00    +0.000 A 
ENDROOT
BRANCH   5  15
ATOM     14  O   UNL     1     102.781 133.327 141.074  0.00  0.00    +0.000 OA
ATOM     15  C   UNL     1     102.533 131.225 141.610  0.00  0.00    +0.000 A 
ATOM     16  C   UNL     1     102.865 131.920 141.316  0.00  0.00    +0.000 A 
ATOM     17  C   UNL     1     101.784 131.240 141.956  0.00  0.00    +0.000 A 
ATOM     18  C   UNL     1     102.449 132.631 141.368  0.00  0.00    +0.000 A 
ATOM     19  C   UNL     1     101.368 131.950 142.009  0.00  0.00    +0.000 A 
ATOM     20  C   UNL     1     101.700 132.645 141.715  0.00  0.00    +0.000 A 
BRANCH  20  21
ATOM     21  O   UNL     1     101.284 133.356 141.767  0.00  0.00    +0.000 OA
ATOM     22  C   UNL     1     100.710 133.455 142.352  0.00  0.00    +0.000 C 
ENDBRANCH  20  21
ENDBRANCH   5  15
BRANCH  12  23
ATOM     23  O   UNL     1     105.448 128.456 143.249  0.00  0.00    +0.000 OA
ATOM     24  C   UNL     1     105.210 127.987 143.884  0.00  0.00    +0.000 C 
ENDBRANCH  12  23
TORSDOF 3
ENDMDL
