MODEL 1
REMARK VINA RESULT:      -9.0      0.000      0.000
REMARK  Name = 44258525
REMARK  11 active torsions:
REMARK  status: ('A' for Active; 'I' for Inactive)
REMARK    1  A    between atoms: O_1  and  C_18
REMARK    2  A    between atoms: O_1  and  C_21
REMARK    3  A    between atoms: O_7  and  C_27
REMARK    4  A    between atoms: O_7  and  C_30
REMARK    5  A    between atoms: O_12  and  C_31
REMARK    6  A    between atoms: O_14  and  C_34
REMARK    7  A    between atoms: O_16  and  C_44
REMARK    8  A    between atoms: O_17  and  C_46
REMARK    9  A    between atoms: C_20  and  C_28
REMARK   10  A    between atoms: C_26  and  C_29
REMARK   11  A    between atoms: C_37  and  C_40
REMARK                            x       y       z     vdW  Elec       q    Type
REMARK                         _______ _______ _______ _____ _____    ______ ____
ROOT
ATOM      1  O   UNL     1     112.898 127.463 138.178  0.00  0.00    +0.000 OA
ATOM      2  O   UNL     1     113.896 127.149 140.484  0.00  0.00    +0.000 OA
ATOM      3  C   UNL     1     113.100 129.553 138.869  0.00  0.00    +0.000 A 
ATOM      4  C   UNL     1     113.425 129.447 139.621  0.00  0.00    +0.000 A 
ATOM      5  C   UNL     1     112.928 128.898 138.398  0.00  0.00    +0.000 A 
ATOM      6  C   UNL     1     113.082 128.137 138.679  0.00  0.00    +0.000 A 
ATOM      7  C   UNL     1     113.578 128.687 139.900  0.00  0.00    +0.000 A 
ATOM      8  C   UNL     1     113.407 128.031 139.429  0.00  0.00    +0.000 A 
ATOM      9  C   UNL     1     113.571 127.244 139.732  0.00  0.00    +0.000 A 
ATOM     10  C   UNL     1     113.056 126.668 138.464  0.00  0.00    +0.000 A 
ATOM     11  C   UNL     1     113.394 126.558 139.246  0.00  0.00    +0.000 A 
ENDROOT
BRANCH  10  12
ATOM     12  C   UNL     1     112.883 126.014 137.991  0.00  0.00    +0.000 A 
ATOM     13  C   UNL     1     113.459 125.706 137.487  0.00  0.00    +0.000 A 
ATOM     14  C   UNL     1     112.134 125.669 138.021  0.00  0.00    +0.000 A 
ATOM     15  C   UNL     1     113.286 125.053 137.013  0.00  0.00    +0.000 A 
ATOM     16  C   UNL     1     111.962 125.016 137.548  0.00  0.00    +0.000 A 
ATOM     17  C   UNL     1     112.538 124.708 137.044  0.00  0.00    +0.000 A 
BRANCH  15  18
ATOM     18  O   UNL     1     113.862 124.745 136.509  0.00  0.00    +0.000 OA
ATOM     19  C   UNL     1     114.646 124.992 136.579  0.00  0.00    +0.000 C 
ENDBRANCH  15  18
BRANCH  17  20
ATOM     20  O   UNL     1     112.365 124.054 136.571  0.00  0.00    +0.000 OA
ATOM     21  C   UNL     1     111.586 123.798 136.490  0.00  0.00    +0.000 C 
ENDBRANCH  17  20
ENDBRANCH  10  12
BRANCH   4  22
ATOM     22  O   UNL     1     113.597 130.103 140.092  0.00  0.00    +0.000 OA
ATOM     23  C   UNL     1     114.358 130.420 140.095  0.00  0.00    +0.000 C 
ENDBRANCH   4  22
BRANCH   7  24
ATOM     24  O   UNL     1     113.903 128.582 140.651  0.00  0.00    +0.000 OA
ATOM     25  C   UNL     1     113.456 128.233 141.250  0.00  0.00    +0.000 C 
ENDBRANCH   7  24
BRANCH   3  26
ATOM     26  O   UNL     1     112.947 130.314 138.590  0.00  0.00    +0.000 OA
BRANCH  26  34
ATOM     27  O   UNL     1     111.541 130.433 138.811  0.00  0.00    +0.000 OA
ATOM     28  O   UNL     1     111.244 131.246 136.492  0.00  0.00    +0.000 OA
ATOM     29  O   UNL     1     112.750 130.856 137.044  0.00  0.00    +0.000 OA
ATOM     30  C   UNL     1     110.689 130.899 137.762  0.00  0.00    +0.000 C 
ATOM     31  C   UNL     1     111.344 130.975 137.265  0.00  0.00    +0.000 C 
ATOM     32  C   UNL     1     110.788 130.628 138.535  0.00  0.00    +0.000 C 
ATOM     33  C   UNL     1     112.096 130.780 137.541  0.00  0.00    +0.000 C 
ATOM     34  C   UNL     1     112.194 130.509 138.314  0.00  0.00    +0.000 C 
BRANCH  32  36
ATOM     35  O   UNL     1     110.206 130.721 139.837  0.00  0.00    +0.000 OA
ATOM     36  C   UNL     1     110.134 130.552 139.033  0.00  0.00    +0.000 C 
ENDBRANCH  32  36
BRANCH  30  37
ATOM     37  O   UNL     1     109.936 131.094 137.487  0.00  0.00    +0.000 OA
BRANCH  37  42
ATOM     38  O   UNL     1     109.738 129.758 137.022  0.00  0.00    +0.000 OA
ATOM     39  O   UNL     1     108.613 131.588 136.633  0.00  0.00    +0.000 OA
ATOM     40  O   UNL     1     107.753 130.497 135.742  0.00  0.00    +0.000 OA
ATOM     41  O   UNL     1     108.216 128.915 135.705  0.00  0.00    +0.000 OA
ATOM     42  C   UNL     1     109.507 130.550 137.042  0.00  0.00    +0.000 C 
ATOM     43  C   UNL     1     108.845 130.796 136.615  0.00  0.00    +0.000 C 
ATOM     44  C   UNL     1     108.414 130.251 136.169  0.00  0.00    +0.000 C 
ATOM     45  C   UNL     1     108.646 129.460 136.151  0.00  0.00    +0.000 C 
ATOM     46  C   UNL     1     109.308 129.213 136.577  0.00  0.00    +0.000 C 
BRANCH  46  48
ATOM     47  O   UNL     1     109.436 127.945 137.224  0.00  0.00    +0.000 OA
ATOM     48  C   UNL     1     109.539 128.422 136.559  0.00  0.00    +0.000 C 
ENDBRANCH  46  48
ENDBRANCH  37  42
ENDBRANCH  30  37
ENDBRANCH  26  34
ENDBRANCH   3  26
TORSDOF 11
ENDMDL
MODEL 2
REMARK VINA RESULT:      -8.9      2.497      3.820
REMARK  Name = 44258525
REMARK  11 active torsions:
REMARK  status: ('A' for Active; 'I' for Inactive)
REMARK    1  A    between atoms: O_1  and  C_18
REMARK    2  A    between atoms: O_1  and  C_21
REMARK    3  A    between atoms: O_7  and  C_27
REMARK    4  A    between atoms: O_7  and  C_30
REMARK    5  A    between atoms: O_12  and  C_31
REMARK    6  A    between atoms: O_14  and  C_34
REMARK    7  A    between atoms: O_16  and  C_44
REMARK    8  A    between atoms: O_17  and  C_46
REMARK    9  A    between atoms: C_20  and  C_28
REMARK   10  A    between atoms: C_26  and  C_29
REMARK   11  A    between atoms: C_37  and  C_40
REMARK                            x       y       z     vdW  Elec       q    Type
REMARK                         _______ _______ _______ _____ _____    ______ ____
ROOT
ATOM      1  O   UNL     1     111.423 127.676 137.198  0.00  0.00    +0.000 OA
ATOM      2  O   UNL     1     113.361 128.933 136.160  0.00  0.00    +0.000 OA
ATOM      3  C   UNL     1     111.047 129.739 137.897  0.00  0.00    +0.000 A 
ATOM      4  C   UNL     1     111.680 130.147 137.557  0.00  0.00    +0.000 A 
ATOM      5  C   UNL     1     110.966 128.927 137.776  0.00  0.00    +0.000 A 
ATOM      6  C   UNL     1     111.518 128.522 137.316  0.00  0.00    +0.000 A 
ATOM      7  C   UNL     1     112.231 129.741 137.097  0.00  0.00    +0.000 A 
ATOM      8  C   UNL     1     112.150 128.928 136.977  0.00  0.00    +0.000 A 
ATOM      9  C   UNL     1     112.732 128.518 136.495  0.00  0.00    +0.000 A 
ATOM     10  C   UNL     1     111.994 127.248 136.720  0.00  0.00    +0.000 A 
ATOM     11  C   UNL     1     112.653 127.672 136.367  0.00  0.00    +0.000 A 
ENDROOT
BRANCH  10  12
ATOM     12  C   UNL     1     111.911 126.436 136.601  0.00  0.00    +0.000 A 
ATOM     13  C   UNL     1     111.348 126.152 136.069  0.00  0.00    +0.000 A 
ATOM     14  C   UNL     1     112.392 125.907 137.014  0.00  0.00    +0.000 A 
ATOM     15  C   UNL     1     111.265 125.340 135.950  0.00  0.00    +0.000 A 
ATOM     16  C   UNL     1     112.309 125.095 136.895  0.00  0.00    +0.000 A 
ATOM     17  C   UNL     1     111.745 124.812 136.363  0.00  0.00    +0.000 A 
BRANCH  15  18
ATOM     18  O   UNL     1     110.702 125.057 135.418  0.00  0.00    +0.000 OA
ATOM     19  C   UNL     1     110.215 125.585 135.012  0.00  0.00    +0.000 C 
ENDBRANCH  15  18
BRANCH  17  20
ATOM     20  O   UNL     1     111.662 123.999 136.244  0.00  0.00    +0.000 OA
ATOM     21  C   UNL     1     112.050 123.468 136.741  0.00  0.00    +0.000 C 
ENDBRANCH  17  20
ENDBRANCH  10  12
BRANCH   4  22
ATOM     22  O   UNL     1     111.760 130.959 137.678  0.00  0.00    +0.000 OA
ATOM     23  C   UNL     1     111.459 131.489 137.124  0.00  0.00    +0.000 C 
ENDBRANCH   4  22
BRANCH   7  24
ATOM     24  O   UNL     1     112.863 130.148 136.758  0.00  0.00    +0.000 OA
ATOM     25  C   UNL     1     113.631 130.020 137.032  0.00  0.00    +0.000 C 
ENDBRANCH   7  24
BRANCH   3  26
ATOM     26  O   UNL     1     110.495 130.145 138.357  0.00  0.00    +0.000 OA
BRANCH  26  34
ATOM     27  O   UNL     1     110.762 129.602 139.651  0.00  0.00    +0.000 OA
ATOM     28  O   UNL     1     108.337 129.259 140.007  0.00  0.00    +0.000 OA
ATOM     29  O   UNL     1     108.878 129.917 138.594  0.00  0.00    +0.000 OA
ATOM     30  C   UNL     1     109.683 129.158 140.476  0.00  0.00    +0.000 C 
ATOM     31  C   UNL     1     109.145 129.373 139.888  0.00  0.00    +0.000 C 
ATOM     32  C   UNL     1     110.491 129.273 140.357  0.00  0.00    +0.000 C 
ATOM     33  C   UNL     1     109.416 129.702 139.181  0.00  0.00    +0.000 C 
ATOM     34  C   UNL     1     110.224 129.816 139.063  0.00  0.00    +0.000 C 
BRANCH  32  36
ATOM     35  O   UNL     1     111.718 129.498 141.054  0.00  0.00    +0.000 OA
ATOM     36  C   UNL     1     111.029 129.058 140.946  0.00  0.00    +0.000 C 
ENDBRANCH  32  36
BRANCH  30  37
ATOM     37  O   UNL     1     109.412 128.830 141.183  0.00  0.00    +0.000 OA
BRANCH  37  42
ATOM     38  O   UNL     1     109.492 127.511 140.638  0.00  0.00    +0.000 OA
ATOM     39  O   UNL     1     108.452 128.268 142.402  0.00  0.00    +0.000 OA
ATOM     40  O   UNL     1     108.052 126.669 142.467  0.00  0.00    +0.000 OA
ATOM     41  O   UNL     1     108.611 125.632 141.314  0.00  0.00    +0.000 OA
ATOM     42  C   UNL     1     109.212 128.030 141.215  0.00  0.00    +0.000 C 
ATOM     43  C   UNL     1     108.732 127.750 141.825  0.00  0.00    +0.000 C 
ATOM     44  C   UNL     1     108.532 126.949 141.857  0.00  0.00    +0.000 C 
ATOM     45  C   UNL     1     108.812 126.431 141.280  0.00  0.00    +0.000 C 
ATOM     46  C   UNL     1     109.292 126.712 140.671  0.00  0.00    +0.000 C 
BRANCH  46  48
ATOM     47  O   UNL     1     110.366 125.972 140.088  0.00  0.00    +0.000 OA
ATOM     48  C   UNL     1     109.571 126.193 140.095  0.00  0.00    +0.000 C 
ENDBRANCH  46  48
ENDBRANCH  37  42
ENDBRANCH  30  37
ENDBRANCH  26  34
ENDBRANCH   3  26
TORSDOF 11
ENDMDL
MODEL 3
REMARK VINA RESULT:      -8.9      1.436      4.484
REMARK  Name = 44258525
REMARK  11 active torsions:
REMARK  status: ('A' for Active; 'I' for Inactive)
REMARK    1  A    between atoms: O_1  and  C_18
REMARK    2  A    between atoms: O_1  and  C_21
REMARK    3  A    between atoms: O_7  and  C_27
REMARK    4  A    between atoms: O_7  and  C_30
REMARK    5  A    between atoms: O_12  and  C_31
REMARK    6  A    between atoms: O_14  and  C_34
REMARK    7  A    between atoms: O_16  and  C_44
REMARK    8  A    between atoms: O_17  and  C_46
REMARK    9  A    between atoms: C_20  and  C_28
REMARK   10  A    between atoms: C_26  and  C_29
REMARK   11  A    between atoms: C_37  and  C_40
REMARK                            x       y       z     vdW  Elec       q    Type
REMARK                         _______ _______ _______ _____ _____    ______ ____
ROOT
ATOM      1  O   UNL     1     111.264 127.417 136.436  0.00  0.00    +0.000 OA
ATOM      2  O   UNL     1     108.917 127.742 135.542  0.00  0.00    +0.000 OA
ATOM      3  C   UNL     1     111.259 129.576 135.960  0.00  0.00    +0.000 A 
ATOM      4  C   UNL     1     110.494 129.679 135.669  0.00  0.00    +0.000 A 
ATOM      5  C   UNL     1     111.508 128.830 136.211  0.00  0.00    +0.000 A 
ATOM      6  C   UNL     1     110.992 128.188 136.171  0.00  0.00    +0.000 A 
ATOM      7  C   UNL     1     109.978 129.036 135.629  0.00  0.00    +0.000 A 
ATOM      8  C   UNL     1     110.227 128.291 135.881  0.00  0.00    +0.000 A 
ATOM      9  C   UNL     1     109.680 127.629 135.834  0.00  0.00    +0.000 A 
ATOM     10  C   UNL     1     110.731 126.744 136.397  0.00  0.00    +0.000 A 
ATOM     11  C   UNL     1     109.934 126.851 136.094  0.00  0.00    +0.000 A 
ENDROOT
BRANCH  10  12
ATOM     12  C   UNL     1     110.983 126.000 136.649  0.00  0.00    +0.000 A 
ATOM     13  C   UNL     1     110.944 125.800 137.449  0.00  0.00    +0.000 A 
ATOM     14  C   UNL     1     111.274 125.456 136.102  0.00  0.00    +0.000 A 
ATOM     15  C   UNL     1     111.195 125.055 137.701  0.00  0.00    +0.000 A 
ATOM     16  C   UNL     1     111.526 124.711 136.354  0.00  0.00    +0.000 A 
ATOM     17  C   UNL     1     111.487 124.511 137.153  0.00  0.00    +0.000 A 
BRANCH  15  18
ATOM     18  O   UNL     1     111.156 124.855 138.500  0.00  0.00    +0.000 OA
ATOM     19  C   UNL     1     110.740 125.336 139.026  0.00  0.00    +0.000 C 
ENDBRANCH  15  18
BRANCH  17  20
ATOM     20  O   UNL     1     111.738 123.767 137.405  0.00  0.00    +0.000 OA
ATOM     21  C   UNL     1     112.175 123.286 136.898  0.00  0.00    +0.000 C 
ENDBRANCH  17  20
ENDBRANCH  10  12
BRANCH   4  22
ATOM     22  O   UNL     1     110.244 130.424 135.418  0.00  0.00    +0.000 OA
ATOM     23  C   UNL     1     110.229 130.604 134.613  0.00  0.00    +0.000 C 
ENDBRANCH   4  22
BRANCH   7  24
ATOM     24  O   UNL     1     109.213 129.139 135.338  0.00  0.00    +0.000 OA
ATOM     25  C   UNL     1     108.568 129.109 135.852  0.00  0.00    +0.000 C 
ENDBRANCH   7  24
BRANCH   3  26
ATOM     26  O   UNL     1     111.775 130.219 136.000  0.00  0.00    +0.000 OA
BRANCH  26  34
ATOM     27  O   UNL     1     111.743 130.563 137.385  0.00  0.00    +0.000 OA
ATOM     28  O   UNL     1     114.217 130.544 137.448  0.00  0.00    +0.000 OA
ATOM     29  O   UNL     1     113.424 130.206 136.041  0.00  0.00    +0.000 OA
ATOM     30  C   UNL     1     112.963 130.726 138.110  0.00  0.00    +0.000 C 
ATOM     31  C   UNL     1     113.392 130.550 137.427  0.00  0.00    +0.000 C 
ATOM     32  C   UNL     1     112.139 130.732 138.089  0.00  0.00    +0.000 C 
ATOM     33  C   UNL     1     112.996 130.381 136.723  0.00  0.00    +0.000 C 
ATOM     34  C   UNL     1     112.171 130.388 136.703  0.00  0.00    +0.000 C 
BRANCH  32  36
ATOM     35  O   UNL     1     111.031 131.373 138.724  0.00  0.00    +0.000 OA
ATOM     36  C   UNL     1     111.710 130.908 138.772  0.00  0.00    +0.000 C 
ENDBRANCH  32  36
BRANCH  30  37
ATOM     37  O   UNL     1     113.360 130.895 138.814  0.00  0.00    +0.000 OA
BRANCH  37  42
ATOM     38  O   UNL     1     113.324 129.521 139.203  0.00  0.00    +0.000 OA
ATOM     39  O   UNL     1     114.527 131.185 139.943  0.00  0.00    +0.000 OA
ATOM     40  O   UNL     1     115.076 129.956 140.897  0.00  0.00    +0.000 OA
ATOM     41  O   UNL     1     114.457 128.437 140.722  0.00  0.00    +0.000 OA
ATOM     42  C   UNL     1     113.634 130.281 139.290  0.00  0.00    +0.000 C 
ATOM     43  C   UNL     1     114.217 130.426 139.855  0.00  0.00    +0.000 C 
ATOM     44  C   UNL     1     114.492 129.811 140.333  0.00  0.00    +0.000 C 
ATOM     45  C   UNL     1     114.182 129.051 140.244  0.00  0.00    +0.000 C 
ATOM     46  C   UNL     1     113.598 128.906 139.680  0.00  0.00    +0.000 C 
BRANCH  46  48
ATOM     47  O   UNL     1     112.514 127.987 139.825  0.00  0.00    +0.000 OA
ATOM     48  C   UNL     1     113.289 128.147 139.592  0.00  0.00    +0.000 C 
ENDBRANCH  46  48
ENDBRANCH  37  42
ENDBRANCH  30  37
ENDBRANCH  26  34
ENDBRANCH   3  26
TORSDOF 11
ENDMDL
MODEL 4
REMARK VINA RESULT:      -8.9      1.555      4.207
REMARK  Name = 44258525
REMARK  11 active torsions:
REMARK  status: ('A' for Active; 'I' for Inactive)
REMARK    1  A    between atoms: O_1  and  C_18
REMARK    2  A    between atoms: O_1  and  C_21
REMARK    3  A    between atoms: O_7  and  C_27
REMARK    4  A    between atoms: O_7  and  C_30
REMARK    5  A    between atoms: O_12  and  C_31
REMARK    6  A    between atoms: O_14  and  C_34
REMARK    7  A    between atoms: O_16  and  C_44
REMARK    8  A    between atoms: O_17  and  C_46
REMARK    9  A    between atoms: C_20  and  C_28
REMARK   10  A    between atoms: C_26  and  C_29
REMARK   11  A    between atoms: C_37  and  C_40
REMARK                            x       y       z     vdW  Elec       q    Type
REMARK                         _______ _______ _______ _____ _____    ______ ____
ROOT
ATOM      1  O   UNL     1     111.348 127.244 138.708  0.00  0.00    +0.000 OA
ATOM      2  O   UNL     1     113.293 125.717 138.161  0.00  0.00    +0.000 OA
ATOM      3  C   UNL     1     110.773 126.480 136.715  0.00  0.00    +0.000 A 
ATOM      4  C   UNL     1     111.409 125.983 136.539  0.00  0.00    +0.000 A 
ATOM      5  C   UNL     1     110.757 126.893 137.429  0.00  0.00    +0.000 A 
ATOM      6  C   UNL     1     111.377 126.808 137.967  0.00  0.00    +0.000 A 
ATOM      7  C   UNL     1     112.027 125.899 137.078  0.00  0.00    +0.000 A 
ATOM      8  C   UNL     1     112.011 126.312 137.792  0.00  0.00    +0.000 A 
ATOM      9  C   UNL     1     112.662 126.216 138.345  0.00  0.00    +0.000 A 
ATOM     10  C   UNL     1     111.990 127.161 139.273  0.00  0.00    +0.000 A 
ATOM     11  C   UNL     1     112.651 126.643 139.091  0.00  0.00    +0.000 A 
ENDROOT
BRANCH  10  12
ATOM     12  C   UNL     1     111.971 127.575 139.987  0.00  0.00    +0.000 A 
ATOM     13  C   UNL     1     112.143 128.382 140.000  0.00  0.00    +0.000 A 
ATOM     14  C   UNL     1     111.781 127.182 140.687  0.00  0.00    +0.000 A 
ATOM     15  C   UNL     1     112.125 128.795 140.714  0.00  0.00    +0.000 A 
ATOM     16  C   UNL     1     111.762 127.596 141.400  0.00  0.00    +0.000 A 
ATOM     17  C   UNL     1     111.934 128.403 141.414  0.00  0.00    +0.000 A 
BRANCH  15  18
ATOM     18  O   UNL     1     112.297 129.602 140.727  0.00  0.00    +0.000 OA
ATOM     19  C   UNL     1     112.597 129.972 140.053  0.00  0.00    +0.000 C 
ENDBRANCH  15  18
BRANCH  17  20
ATOM     20  O   UNL     1     111.916 128.816 142.127  0.00  0.00    +0.000 OA
ATOM     21  C   UNL     1     111.619 128.455 142.806  0.00  0.00    +0.000 C 
ENDBRANCH  17  20
ENDBRANCH  10  12
BRANCH   4  22
ATOM     22  O   UNL     1     111.425 125.570 135.825  0.00  0.00    +0.000 OA
ATOM     23  C   UNL     1     111.147 124.795 135.791  0.00  0.00    +0.000 C 
ENDBRANCH   4  22
BRANCH   7  24
ATOM     24  O   UNL     1     112.662 125.403 136.902  0.00  0.00    +0.000 OA
ATOM     25  C   UNL     1     113.405 125.723 136.742  0.00  0.00    +0.000 C 
ENDBRANCH   7  24
BRANCH   3  26
ATOM     26  O   UNL     1     110.155 126.564 136.175  0.00  0.00    +0.000 OA
BRANCH  26  34
ATOM     27  O   UNL     1     110.405 127.906 135.755  0.00  0.00    +0.000 OA
ATOM     28  O   UNL     1     107.979 128.387 135.845  0.00  0.00    +0.000 OA
ATOM     29  O   UNL     1     108.537 126.884 136.235  0.00  0.00    +0.000 OA
ATOM     30  C   UNL     1     109.318 128.818 135.590  0.00  0.00    +0.000 C 
ATOM     31  C   UNL     1     108.788 128.226 135.815  0.00  0.00    +0.000 C 
ATOM     32  C   UNL     1     110.126 128.657 135.560  0.00  0.00    +0.000 C 
ATOM     33  C   UNL     1     109.067 127.475 136.010  0.00  0.00    +0.000 C 
ATOM     34  C   UNL     1     109.876 127.315 135.980  0.00  0.00    +0.000 C 
BRANCH  32  36
ATOM     35  O   UNL     1     111.305 129.062 134.861  0.00  0.00    +0.000 OA
ATOM     36  C   UNL     1     110.656 129.249 135.335  0.00  0.00    +0.000 C 
ENDBRANCH  32  36
BRANCH  30  37
ATOM     37  O   UNL     1     109.039 129.570 135.395  0.00  0.00    +0.000 OA
BRANCH  37  42
ATOM     38  O   UNL     1     109.131 129.982 136.760  0.00  0.00    +0.000 OA
ATOM     39  O   UNL     1     108.144 130.912 135.049  0.00  0.00    +0.000 OA
ATOM     40  O   UNL     1     107.789 131.996 136.242  0.00  0.00    +0.000 OA
ATOM     41  O   UNL     1     108.328 131.737 137.779  0.00  0.00    +0.000 OA
ATOM     42  C   UNL     1     108.861 130.111 135.990  0.00  0.00    +0.000 C 
ATOM     43  C   UNL     1     108.414 130.782 135.818  0.00  0.00    +0.000 C 
ATOM     44  C   UNL     1     108.236 131.325 136.415  0.00  0.00    +0.000 C 
ATOM     45  C   UNL     1     108.506 131.195 137.183  0.00  0.00    +0.000 C 
ATOM     46  C   UNL     1     108.954 130.523 137.356  0.00  0.00    +0.000 C 
BRANCH  46  48
ATOM     47  O   UNL     1     108.862 129.823 138.598  0.00  0.00    +0.000 OA
ATOM     48  C   UNL     1     109.223 130.394 138.124  0.00  0.00    +0.000 C 
ENDBRANCH  46  48
ENDBRANCH  37  42
ENDBRANCH  30  37
ENDBRANCH  26  34
ENDBRANCH   3  26
TORSDOF 11
ENDMDL
MODEL 5
REMARK VINA RESULT:      -8.9      2.058      4.506
REMARK  Name = 44258525
REMARK  11 active torsions:
REMARK  status: ('A' for Active; 'I' for Inactive)
REMARK    1  A    between atoms: O_1  and  C_18
REMARK    2  A    between atoms: O_1  and  C_21
REMARK    3  A    between atoms: O_7  and  C_27
REMARK    4  A    between atoms: O_7  and  C_30
REMARK    5  A    between atoms: O_12  and  C_31
REMARK    6  A    between atoms: O_14  and  C_34
REMARK    7  A    between atoms: O_16  and  C_44
REMARK    8  A    between atoms: O_17  and  C_46
REMARK    9  A    between atoms: C_20  and  C_28
REMARK   10  A    between atoms: C_26  and  C_29
REMARK   11  A    between atoms: C_37  and  C_40
REMARK                            x       y       z     vdW  Elec       q    Type
REMARK                         _______ _______ _______ _____ _____    ______ ____
ROOT
ATOM      1  O   UNL     1     110.238 126.891 138.228  0.00  0.00    +0.000 OA
ATOM      2  O   UNL     1     111.254 124.781 137.263  0.00  0.00    +0.000 OA
ATOM      3  C   UNL     1     109.718 127.079 136.087  0.00  0.00    +0.000 A 
ATOM      4  C   UNL     1     110.050 126.390 135.775  0.00  0.00    +0.000 A 
ATOM      5  C   UNL     1     109.782 127.239 136.893  0.00  0.00    +0.000 A 
ATOM      6  C   UNL     1     110.178 126.711 137.388  0.00  0.00    +0.000 A 
ATOM      7  C   UNL     1     110.446 125.863 136.271  0.00  0.00    +0.000 A 
ATOM      8  C   UNL     1     110.510 126.024 137.078  0.00  0.00    +0.000 A 
ATOM      9  C   UNL     1     110.925 125.466 137.583  0.00  0.00    +0.000 A 
ATOM     10  C   UNL     1     110.649 126.345 138.748  0.00  0.00    +0.000 A 
ATOM     11  C   UNL     1     110.995 125.628 138.424  0.00  0.00    +0.000 A 
ENDROOT
BRANCH  10  12
ATOM     12  C   UNL     1     110.712 126.508 139.555  0.00  0.00    +0.000 A 
ATOM     13  C   UNL     1     110.116 126.267 140.072  0.00  0.00    +0.000 A 
ATOM     14  C   UNL     1     111.371 126.912 139.844  0.00  0.00    +0.000 A 
ATOM     15  C   UNL     1     110.179 126.431 140.878  0.00  0.00    +0.000 A 
ATOM     16  C   UNL     1     111.433 127.075 140.650  0.00  0.00    +0.000 A 
ATOM     17  C   UNL     1     110.837 126.834 141.167  0.00  0.00    +0.000 A 
BRANCH  15  18
ATOM     18  O   UNL     1     109.582 126.190 141.395  0.00  0.00    +0.000 OA
ATOM     19  C   UNL     1     108.855 125.938 141.098  0.00  0.00    +0.000 C 
ENDBRANCH  15  18
BRANCH  17  20
ATOM     20  O   UNL     1     110.900 126.998 141.973  0.00  0.00    +0.000 OA
ATOM     21  C   UNL     1     111.404 127.595 142.235  0.00  0.00    +0.000 C 
ENDBRANCH  17  20
ENDBRANCH  10  12
BRANCH   4  22
ATOM     22  O   UNL     1     109.986 126.229 134.968  0.00  0.00    +0.000 OA
ATOM     23  C   UNL     1     109.383 125.740 134.693  0.00  0.00    +0.000 C 
ENDBRANCH   4  22
BRANCH   7  24
ATOM     24  O   UNL     1     110.778 125.175 135.959  0.00  0.00    +0.000 OA
ATOM     25  C   UNL     1     111.591 125.047 136.015  0.00  0.00    +0.000 C 
ENDBRANCH   7  24
BRANCH   3  26
ATOM     26  O   UNL     1     109.321 127.606 135.591  0.00  0.00    +0.000 OA
BRANCH  26  34
ATOM     27  O   UNL     1     110.237 128.701 135.543  0.00  0.00    +0.000 OA
ATOM     28  O   UNL     1     108.383 130.272 136.012  0.00  0.00    +0.000 OA
ATOM     29  O   UNL     1     108.085 128.653 135.904  0.00  0.00    +0.000 OA
ATOM     30  C   UNL     1     109.769 130.034 135.753  0.00  0.00    +0.000 C 
ATOM     31  C   UNL     1     109.001 129.748 135.856  0.00  0.00    +0.000 C 
ATOM     32  C   UNL     1     110.386 129.510 135.597  0.00  0.00    +0.000 C 
ATOM     33  C   UNL     1     108.852 128.938 135.802  0.00  0.00    +0.000 C 
ATOM     34  C   UNL     1     109.470 128.415 135.645  0.00  0.00    +0.000 C 
BRANCH  32  36
ATOM     35  O   UNL     1     111.668 129.418 134.973  0.00  0.00    +0.000 OA
ATOM     36  C   UNL     1     111.154 129.797 135.495  0.00  0.00    +0.000 C 
ENDBRANCH  32  36
BRANCH  30  37
ATOM     37  O   UNL     1     109.918 130.844 135.808  0.00  0.00    +0.000 OA
BRANCH  37  42
ATOM     38  O   UNL     1     110.136 130.725 137.215  0.00  0.00    +0.000 OA
ATOM     39  O   UNL     1     109.900 132.488 135.949  0.00  0.00    +0.000 OA
ATOM     40  O   UNL     1     110.110 133.191 137.427  0.00  0.00    +0.000 OA
ATOM     41  O   UNL     1     110.337 132.250 138.762  0.00  0.00    +0.000 OA
ATOM     42  C   UNL     1     110.023 131.195 136.546  0.00  0.00    +0.000 C 
ATOM     43  C   UNL     1     110.014 132.017 136.617  0.00  0.00    +0.000 C 
ATOM     44  C   UNL     1     110.119 132.369 137.356  0.00  0.00    +0.000 C 
ATOM     45  C   UNL     1     110.233 131.898 138.024  0.00  0.00    +0.000 C 
ATOM     46  C   UNL     1     110.241 131.076 137.953  0.00  0.00    +0.000 C 
BRANCH  46  48
ATOM     47  O   UNL     1     111.057 130.182 138.713  0.00  0.00    +0.000 OA
ATOM     48  C   UNL     1     110.355 130.607 138.621  0.00  0.00    +0.000 C 
ENDBRANCH  46  48
ENDBRANCH  37  42
ENDBRANCH  30  37
ENDBRANCH  26  34
ENDBRANCH   3  26
TORSDOF 11
ENDMDL
MODEL 6
REMARK VINA RESULT:      -8.9      2.246      4.113
REMARK  Name = 44258525
REMARK  11 active torsions:
REMARK  status: ('A' for Active; 'I' for Inactive)
REMARK    1  A    between atoms: O_1  and  C_18
REMARK    2  A    between atoms: O_1  and  C_21
REMARK    3  A    between atoms: O_7  and  C_27
REMARK    4  A    between atoms: O_7  and  C_30
REMARK    5  A    between atoms: O_12  and  C_31
REMARK    6  A    between atoms: O_14  and  C_34
REMARK    7  A    between atoms: O_16  and  C_44
REMARK    8  A    between atoms: O_17  and  C_46
REMARK    9  A    between atoms: C_20  and  C_28
REMARK   10  A    between atoms: C_26  and  C_29
REMARK   11  A    between atoms: C_37  and  C_40
REMARK                            x       y       z     vdW  Elec       q    Type
REMARK                         _______ _______ _______ _____ _____    ______ ____
ROOT
ATOM      1  O   UNL     1     112.703 128.048 137.050  0.00  0.00    +0.000 OA
ATOM      2  O   UNL     1     114.268 128.810 135.211  0.00  0.00    +0.000 OA
ATOM      3  C   UNL     1     113.040 130.164 137.595  0.00  0.00    +0.000 A 
ATOM      4  C   UNL     1     113.551 130.410 136.994  0.00  0.00    +0.000 A 
ATOM      5  C   UNL     1     112.764 129.387 137.609  0.00  0.00    +0.000 A 
ATOM      6  C   UNL     1     112.998 128.855 137.023  0.00  0.00    +0.000 A 
ATOM      7  C   UNL     1     113.784 129.878 136.408  0.00  0.00    +0.000 A 
ATOM      8  C   UNL     1     113.508 129.100 136.423  0.00  0.00    +0.000 A 
ATOM      9  C   UNL     1     113.759 128.556 135.807  0.00  0.00    +0.000 A 
ATOM     10  C   UNL     1     112.943 127.489 136.443  0.00  0.00    +0.000 A 
ATOM     11  C   UNL     1     113.474 127.745 135.818  0.00  0.00    +0.000 A 
ENDROOT
BRANCH  10  12
ATOM     12  C   UNL     1     112.665 126.713 136.461  0.00  0.00    +0.000 A 
ATOM     13  C   UNL     1     111.945 126.524 136.105  0.00  0.00    +0.000 A 
ATOM     14  C   UNL     1     113.108 126.125 136.833  0.00  0.00    +0.000 A 
ATOM     15  C   UNL     1     111.667 125.748 136.123  0.00  0.00    +0.000 A 
ATOM     16  C   UNL     1     112.830 125.348 136.850  0.00  0.00    +0.000 A 
ATOM     17  C   UNL     1     112.110 125.159 136.495  0.00  0.00    +0.000 A 
BRANCH  15  18
ATOM     18  O   UNL     1     110.947 125.559 135.767  0.00  0.00    +0.000 OA
ATOM     19  C   UNL     1     110.567 126.111 135.287  0.00  0.00    +0.000 C 
ENDBRANCH  15  18
BRANCH  17  20
ATOM     20  O   UNL     1     111.832 124.383 136.513  0.00  0.00    +0.000 OA
ATOM     21  C   UNL     1     112.285 123.791 136.864  0.00  0.00    +0.000 C 
ENDBRANCH  17  20
ENDBRANCH  10  12
BRANCH   4  22
ATOM     22  O   UNL     1     113.827 131.187 136.979  0.00  0.00    +0.000 OA
ATOM     23  C   UNL     1     113.434 131.756 136.529  0.00  0.00    +0.000 C 
ENDBRANCH   4  22
BRANCH   7  24
ATOM     24  O   UNL     1     114.294 130.123 135.808  0.00  0.00    +0.000 OA
ATOM     25  C   UNL     1     115.061 129.823 135.769  0.00  0.00    +0.000 C 
ENDBRANCH   7  24
BRANCH   3  26
ATOM     26  O   UNL     1     112.807 130.697 138.180  0.00  0.00    +0.000 OA
BRANCH  26  34
ATOM     27  O   UNL     1     113.410 130.103 139.330  0.00  0.00    +0.000 OA
ATOM     28  O   UNL     1     111.304 130.411 140.594  0.00  0.00    +0.000 OA
ATOM     29  O   UNL     1     111.403 130.902 139.022  0.00  0.00    +0.000 OA
ATOM     30  C   UNL     1     112.659 129.960 140.538  0.00  0.00    +0.000 C 
ATOM     31  C   UNL     1     112.006 130.308 140.172  0.00  0.00    +0.000 C 
ATOM     32  C   UNL     1     113.361 129.858 140.116  0.00  0.00    +0.000 C 
ATOM     33  C   UNL     1     112.055 130.554 139.386  0.00  0.00    +0.000 C 
ATOM     34  C   UNL     1     112.758 130.451 138.966  0.00  0.00    +0.000 C 
BRANCH  32  36
ATOM     35  O   UNL     1     114.771 129.806 140.342  0.00  0.00    +0.000 OA
ATOM     36  C   UNL     1     114.014 129.509 140.482  0.00  0.00    +0.000 C 
ENDBRANCH  32  36
BRANCH  30  37
ATOM     37  O   UNL     1     112.610 129.714 141.324  0.00  0.00    +0.000 OA
BRANCH  37  42
ATOM     38  O   UNL     1     112.111 128.432 140.941  0.00  0.00    +0.000 OA
ATOM     39  O   UNL     1     112.026 129.486 142.850  0.00  0.00    +0.000 OA
ATOM     40  O   UNL     1     111.235 128.088 143.230  0.00  0.00    +0.000 OA
ATOM     41  O   UNL     1     111.028 126.921 142.084  0.00  0.00    +0.000 OA
ATOM     42  C   UNL     1     112.215 129.016 141.513  0.00  0.00    +0.000 C 
ATOM     43  C   UNL     1     111.923 128.902 142.277  0.00  0.00    +0.000 C 
ATOM     44  C   UNL     1     111.527 128.203 142.467  0.00  0.00    +0.000 C 
ATOM     45  C   UNL     1     111.423 127.619 141.893  0.00  0.00    +0.000 C 
ATOM     46  C   UNL     1     111.715 127.734 141.130  0.00  0.00    +0.000 C 
BRANCH  46  48
ATOM     47  O   UNL     1     112.262 126.729 140.273  0.00  0.00    +0.000 OA
ATOM     48  C   UNL     1     111.611 127.150 140.557  0.00  0.00    +0.000 C 
ENDBRANCH  46  48
ENDBRANCH  37  42
ENDBRANCH  30  37
ENDBRANCH  26  34
ENDBRANCH   3  26
TORSDOF 11
ENDMDL
MODEL 7
REMARK VINA RESULT:      -8.8      1.212      1.991
REMARK  Name = 44258525
REMARK  11 active torsions:
REMARK  status: ('A' for Active; 'I' for Inactive)
REMARK    1  A    between atoms: O_1  and  C_18
REMARK    2  A    between atoms: O_1  and  C_21
REMARK    3  A    between atoms: O_7  and  C_27
REMARK    4  A    between atoms: O_7  and  C_30
REMARK    5  A    between atoms: O_12  and  C_31
REMARK    6  A    between atoms: O_14  and  C_34
REMARK    7  A    between atoms: O_16  and  C_44
REMARK    8  A    between atoms: O_17  and  C_46
REMARK    9  A    between atoms: C_20  and  C_28
REMARK   10  A    between atoms: C_26  and  C_29
REMARK   11  A    between atoms: C_37  and  C_40
REMARK                            x       y       z     vdW  Elec       q    Type
REMARK                         _______ _______ _______ _____ _____    ______ ____
ROOT
ATOM      1  O   UNL     1     111.889 128.176 139.413  0.00  0.00    +0.000 OA
ATOM      2  O   UNL     1     114.108 128.277 140.630  0.00  0.00    +0.000 OA
ATOM      3  C   UNL     1     111.819 130.196 140.310  0.00  0.00    +0.000 A 
ATOM      4  C   UNL     1     112.543 130.226 140.706  0.00  0.00    +0.000 A 
ATOM      5  C   UNL     1     111.608 129.520 139.886  0.00  0.00    +0.000 A 
ATOM      6  C   UNL     1     112.121 128.874 139.859  0.00  0.00    +0.000 A 
ATOM      7  C   UNL     1     113.055 129.580 140.677  0.00  0.00    +0.000 A 
ATOM      8  C   UNL     1     112.844 128.904 140.254  0.00  0.00    +0.000 A 
ATOM      9  C   UNL     1     113.387 128.238 140.232  0.00  0.00    +0.000 A 
ATOM     10  C   UNL     1     112.419 127.500 139.380  0.00  0.00    +0.000 A 
ATOM     11  C   UNL     1     113.172 127.532 139.792  0.00  0.00    +0.000 A 
ENDROOT
BRANCH  10  12
ATOM     12  C   UNL     1     112.205 126.826 138.956  0.00  0.00    +0.000 A 
ATOM     13  C   UNL     1     111.534 126.398 139.172  0.00  0.00    +0.000 A 
ATOM     14  C   UNL     1     112.663 126.580 138.315  0.00  0.00    +0.000 A 
ATOM     15  C   UNL     1     111.320 125.723 138.747  0.00  0.00    +0.000 A 
ATOM     16  C   UNL     1     112.449 125.905 137.891  0.00  0.00    +0.000 A 
ATOM     17  C   UNL     1     111.778 125.477 138.107  0.00  0.00    +0.000 A 
BRANCH  15  18
ATOM     18  O   UNL     1     110.649 125.295 138.963  0.00  0.00    +0.000 OA
ATOM     19  C   UNL     1     110.058 125.654 139.415  0.00  0.00    +0.000 C 
ENDBRANCH  15  18
BRANCH  17  20
ATOM     20  O   UNL     1     111.564 124.803 137.682  0.00  0.00    +0.000 OA
ATOM     21  C   UNL     1     112.031 124.547 137.053  0.00  0.00    +0.000 C 
ENDBRANCH  17  20
ENDBRANCH  10  12
BRANCH   4  22
ATOM     22  O   UNL     1     112.754 130.901 141.130  0.00  0.00    +0.000 OA
ATOM     23  C   UNL     1     112.627 130.933 141.944  0.00  0.00    +0.000 C 
ENDBRANCH   4  22
BRANCH   7  24
ATOM     24  O   UNL     1     113.778 129.610 141.073  0.00  0.00    +0.000 OA
ATOM     25  C   UNL     1     114.481 129.673 140.645  0.00  0.00    +0.000 C 
ENDBRANCH   7  24
BRANCH   3  26
ATOM     26  O   UNL     1     111.307 130.842 140.339  0.00  0.00    +0.000 OA
BRANCH  26  34
ATOM     27  O   UNL     1     111.263 131.212 138.960  0.00  0.00    +0.000 OA
ATOM     28  O   UNL     1     108.797 131.385 139.084  0.00  0.00    +0.000 OA
ATOM     29  O   UNL     1     109.663 130.957 140.422  0.00  0.00    +0.000 OA
ATOM     30  C   UNL     1     110.009 131.484 138.332  0.00  0.00    +0.000 C 
ATOM     31  C   UNL     1     109.619 131.328 139.043  0.00  0.00    +0.000 C 
ATOM     32  C   UNL     1     110.830 131.426 138.291  0.00  0.00    +0.000 C 
ATOM     33  C   UNL     1     110.052 131.113 139.712  0.00  0.00    +0.000 C 
ATOM     34  C   UNL     1     110.874 131.056 139.670  0.00  0.00    +0.000 C 
BRANCH  32  36
ATOM     35  O   UNL     1     111.975 131.913 137.589  0.00  0.00    +0.000 OA
ATOM     36  C   UNL     1     111.220 131.583 137.580  0.00  0.00    +0.000 C 
ENDBRANCH  32  36
BRANCH  30  37
ATOM     37  O   UNL     1     109.576 131.698 137.663  0.00  0.00    +0.000 OA
BRANCH  37  42
ATOM     38  O   UNL     1     109.484 130.332 137.255  0.00  0.00    +0.000 OA
ATOM     39  O   UNL     1     108.396 132.101 136.582  0.00  0.00    +0.000 OA
ATOM     40  O   UNL     1     107.714 130.936 135.633  0.00  0.00    +0.000 OA
ATOM     41  O   UNL     1     108.212 129.370 135.765  0.00  0.00    +0.000 OA
ATOM     42  C   UNL     1     109.235 131.116 137.189  0.00  0.00    +0.000 C 
ATOM     43  C   UNL     1     108.645 131.318 136.649  0.00  0.00    +0.000 C 
ATOM     44  C   UNL     1     108.304 130.735 136.174  0.00  0.00    +0.000 C 
ATOM     45  C   UNL     1     108.553 129.951 136.240  0.00  0.00    +0.000 C 
ATOM     46  C   UNL     1     109.143 129.750 136.781  0.00  0.00    +0.000 C 
BRANCH  46  48
ATOM     47  O   UNL     1     109.154 128.511 137.492  0.00  0.00    +0.000 OA
ATOM     48  C   UNL     1     109.391 128.967 136.846  0.00  0.00    +0.000 C 
ENDBRANCH  46  48
ENDBRANCH  37  42
ENDBRANCH  30  37
ENDBRANCH  26  34
ENDBRANCH   3  26
TORSDOF 11
ENDMDL
MODEL 8
REMARK VINA RESULT:      -8.8      1.400      4.059
REMARK  Name = 44258525
REMARK  11 active torsions:
REMARK  status: ('A' for Active; 'I' for Inactive)
REMARK    1  A    between atoms: O_1  and  C_18
REMARK    2  A    between atoms: O_1  and  C_21
REMARK    3  A    between atoms: O_7  and  C_27
REMARK    4  A    between atoms: O_7  and  C_30
REMARK    5  A    between atoms: O_12  and  C_31
REMARK    6  A    between atoms: O_14  and  C_34
REMARK    7  A    between atoms: O_16  and  C_44
REMARK    8  A    between atoms: O_17  and  C_46
REMARK    9  A    between atoms: C_20  and  C_28
REMARK   10  A    between atoms: C_26  and  C_29
REMARK   11  A    between atoms: C_37  and  C_40
REMARK                            x       y       z     vdW  Elec       q    Type
REMARK                         _______ _______ _______ _____ _____    ______ ____
ROOT
ATOM      1  O   UNL     1     112.842 129.175 139.244  0.00  0.00    +0.000 OA
ATOM      2  O   UNL     1     113.731 126.863 139.770  0.00  0.00    +0.000 OA
ATOM      3  C   UNL     1     112.567 128.137 137.311  0.00  0.00    +0.000 A 
ATOM      4  C   UNL     1     112.857 127.384 137.486  0.00  0.00    +0.000 A 
ATOM      5  C   UNL     1     112.563 128.723 137.892  0.00  0.00    +0.000 A 
ATOM      6  C   UNL     1     112.851 128.556 138.647  0.00  0.00    +0.000 A 
ATOM      7  C   UNL     1     113.144 127.218 138.241  0.00  0.00    +0.000 A 
ATOM      8  C   UNL     1     113.141 127.804 138.822  0.00  0.00    +0.000 A 
ATOM      9  C   UNL     1     113.443 127.618 139.605  0.00  0.00    +0.000 A 
ATOM     10  C   UNL     1     113.139 129.008 140.032  0.00  0.00    +0.000 A 
ATOM     11  C   UNL     1     113.442 128.224 140.213  0.00  0.00    +0.000 A 
ENDROOT
BRANCH  10  12
ATOM     12  C   UNL     1     113.135 129.596 140.611  0.00  0.00    +0.000 A 
ATOM     13  C   UNL     1     113.766 130.124 140.668  0.00  0.00    +0.000 A 
ATOM     14  C   UNL     1     112.499 129.655 141.133  0.00  0.00    +0.000 A 
ATOM     15  C   UNL     1     113.762 130.711 141.247  0.00  0.00    +0.000 A 
ATOM     16  C   UNL     1     112.494 130.243 141.712  0.00  0.00    +0.000 A 
ATOM     17  C   UNL     1     113.126 130.771 141.769  0.00  0.00    +0.000 A 
BRANCH  15  18
ATOM     18  O   UNL     1     114.393 131.239 141.304  0.00  0.00    +0.000 OA
ATOM     19  C   UNL     1     115.095 131.088 140.898  0.00  0.00    +0.000 C 
ENDBRANCH  15  18
BRANCH  17  20
ATOM     20  O   UNL     1     113.121 131.359 142.348  0.00  0.00    +0.000 OA
ATOM     21  C   UNL     1     112.456 131.465 142.823  0.00  0.00    +0.000 C 
ENDBRANCH  17  20
ENDBRANCH  10  12
BRANCH   4  22
ATOM     22  O   UNL     1     112.861 126.798 136.905  0.00  0.00    +0.000 OA
ATOM     23  C   UNL     1     113.544 126.657 136.466  0.00  0.00    +0.000 C 
ENDBRANCH   4  22
BRANCH   7  24
ATOM     24  O   UNL     1     113.434 126.466 138.415  0.00  0.00    +0.000 OA
ATOM     25  C   UNL     1     113.004 125.960 138.903  0.00  0.00    +0.000 C 
ENDBRANCH   7  24
BRANCH   3  26
ATOM     26  O   UNL     1     112.280 128.303 136.556  0.00  0.00    +0.000 OA
BRANCH  26  34
ATOM     27  O   UNL     1     110.877 128.322 136.821  0.00  0.00    +0.000 OA
ATOM     28  O   UNL     1     110.648 130.382 135.468  0.00  0.00    +0.000 OA
ATOM     29  O   UNL     1     112.128 129.676 135.654  0.00  0.00    +0.000 OA
ATOM     30  C   UNL     1     110.060 129.362 136.278  0.00  0.00    +0.000 C 
ATOM     31  C   UNL     1     110.725 129.696 135.919  0.00  0.00    +0.000 C 
ATOM     32  C   UNL     1     110.137 128.675 136.729  0.00  0.00    +0.000 C 
ATOM     33  C   UNL     1     111.465 129.343 136.012  0.00  0.00    +0.000 C 
ATOM     34  C   UNL     1     111.540 128.656 136.463  0.00  0.00    +0.000 C 
BRANCH  32  36
ATOM     35  O   UNL     1     109.408 127.522 137.154  0.00  0.00    +0.000 OA
ATOM     36  C   UNL     1     109.472 128.342 137.088  0.00  0.00    +0.000 C 
ENDBRANCH  32  36
BRANCH  30  37
ATOM     37  O   UNL     1     109.320 129.715 136.185  0.00  0.00    +0.000 OA
BRANCH  37  42
ATOM     38  O   UNL     1     109.578 130.572 137.300  0.00  0.00    +0.000 OA
ATOM     39  O   UNL     1     107.962 130.583 135.832  0.00  0.00    +0.000 OA
ATOM     40  O   UNL     1     107.541 131.873 136.770  0.00  0.00    +0.000 OA
ATOM     41  O   UNL     1     108.477 132.295 138.060  0.00  0.00    +0.000 OA
ATOM     42  C   UNL     1     109.110 130.360 136.654  0.00  0.00    +0.000 C 
ATOM     43  C   UNL     1     108.431 130.794 136.478  0.00  0.00    +0.000 C 
ATOM     44  C   UNL     1     108.220 131.439 136.947  0.00  0.00    +0.000 C 
ATOM     45  C   UNL     1     108.688 131.650 137.592  0.00  0.00    +0.000 C 
ATOM     46  C   UNL     1     109.367 131.216 137.769  0.00  0.00    +0.000 C 
BRANCH  46  48
ATOM     47  O   UNL     1     109.875 130.935 139.074  0.00  0.00    +0.000 OA
ATOM     48  C   UNL     1     109.835 131.428 138.414  0.00  0.00    +0.000 C 
ENDBRANCH  46  48
ENDBRANCH  37  42
ENDBRANCH  30  37
ENDBRANCH  26  34
ENDBRANCH   3  26
TORSDOF 11
ENDMDL
MODEL 9
REMARK VINA RESULT:      -8.7      2.129      3.663
REMARK  Name = 44258525
REMARK  11 active torsions:
REMARK  status: ('A' for Active; 'I' for Inactive)
REMARK    1  A    between atoms: O_1  and  C_18
REMARK    2  A    between atoms: O_1  and  C_21
REMARK    3  A    between atoms: O_7  and  C_27
REMARK    4  A    between atoms: O_7  and  C_30
REMARK    5  A    between atoms: O_12  and  C_31
REMARK    6  A    between atoms: O_14  and  C_34
REMARK    7  A    between atoms: O_16  and  C_44
REMARK    8  A    between atoms: O_17  and  C_46
REMARK    9  A    between atoms: C_20  and  C_28
REMARK   10  A    between atoms: C_26  and  C_29
REMARK   11  A    between atoms: C_37  and  C_40
REMARK                            x       y       z     vdW  Elec       q    Type
REMARK                         _______ _______ _______ _____ _____    ______ ____
ROOT
ATOM      1  O   UNL     1     111.483 127.467 138.486  0.00  0.00    +0.000 OA
ATOM      2  O   UNL     1     109.266 127.680 139.692  0.00  0.00    +0.000 OA
ATOM      3  C   UNL     1     111.705 129.422 139.494  0.00  0.00    +0.000 A 
ATOM      4  C   UNL     1     110.982 129.488 139.886  0.00  0.00    +0.000 A 
ATOM      5  C   UNL     1     111.866 128.756 139.035  0.00  0.00    +0.000 A 
ATOM      6  C   UNL     1     111.303 128.156 138.968  0.00  0.00    +0.000 A 
ATOM      7  C   UNL     1     110.420 128.888 139.818  0.00  0.00    +0.000 A 
ATOM      8  C   UNL     1     110.580 128.222 139.359  0.00  0.00    +0.000 A 
ATOM      9  C   UNL     1     109.986 127.604 139.297  0.00  0.00    +0.000 A 
ATOM     10  C   UNL     1     110.901 126.839 138.412  0.00  0.00    +0.000 A 
ATOM     11  C   UNL     1     110.148 126.908 138.820  0.00  0.00    +0.000 A 
ENDROOT
BRANCH  10  12
ATOM     12  C   UNL     1     111.065 126.174 137.952  0.00  0.00    +0.000 A 
ATOM     13  C   UNL     1     110.772 126.122 137.182  0.00  0.00    +0.000 A 
ATOM     14  C   UNL     1     111.521 125.560 138.262  0.00  0.00    +0.000 A 
ATOM     15  C   UNL     1     110.936 125.457 136.722  0.00  0.00    +0.000 A 
ATOM     16  C   UNL     1     111.684 124.895 137.802  0.00  0.00    +0.000 A 
ATOM     17  C   UNL     1     111.392 124.843 137.032  0.00  0.00    +0.000 A 
BRANCH  15  18
ATOM     18  O   UNL     1     110.643 125.406 135.952  0.00  0.00    +0.000 OA
ATOM     19  C   UNL     1     110.337 126.076 135.582  0.00  0.00    +0.000 C 
ENDBRANCH  15  18
BRANCH  17  20
ATOM     20  O   UNL     1     111.555 124.178 136.572  0.00  0.00    +0.000 OA
ATOM     21  C   UNL     1     111.997 123.558 136.887  0.00  0.00    +0.000 C 
ENDBRANCH  17  20
ENDBRANCH  10  12
BRANCH   4  22
ATOM     22  O   UNL     1     110.821 130.155 140.345  0.00  0.00    +0.000 OA
ATOM     23  C   UNL     1     110.968 130.141 141.156  0.00  0.00    +0.000 C 
ENDBRANCH   4  22
BRANCH   7  24
ATOM     24  O   UNL     1     109.697 128.955 140.210  0.00  0.00    +0.000 OA
ATOM     25  C   UNL     1     109.006 129.097 139.781  0.00  0.00    +0.000 C 
ENDBRANCH   7  24
BRANCH   3  26
ATOM     26  O   UNL     1     112.267 130.022 139.562  0.00  0.00    +0.000 OA
BRANCH  26  34
ATOM     27  O   UNL     1     112.230 130.587 138.251  0.00  0.00    +0.000 OA
ATOM     28  O   UNL     1     114.703 130.542 138.161  0.00  0.00    +0.000 OA
ATOM     29  O   UNL     1     113.916 129.991 139.502  0.00  0.00    +0.000 OA
ATOM     30  C   UNL     1     113.448 130.848 137.550  0.00  0.00    +0.000 C 
ATOM     31  C   UNL     1     113.879 130.557 138.191  0.00  0.00    +0.000 C 
ATOM     32  C   UNL     1     112.624 130.863 137.580  0.00  0.00    +0.000 C 
ATOM     33  C   UNL     1     113.485 130.282 138.862  0.00  0.00    +0.000 C 
ATOM     34  C   UNL     1     112.661 130.297 138.891  0.00  0.00    +0.000 C 
BRANCH  32  36
ATOM     35  O   UNL     1     111.510 131.598 137.069  0.00  0.00    +0.000 OA
ATOM     36  C   UNL     1     112.193 131.153 136.939  0.00  0.00    +0.000 C 
ENDBRANCH  32  36
BRANCH  30  37
ATOM     37  O   UNL     1     113.842 131.123 136.879  0.00  0.00    +0.000 OA
BRANCH  37  42
ATOM     38  O   UNL     1     113.858 129.806 136.324  0.00  0.00    +0.000 OA
ATOM     39  O   UNL     1     114.928 131.617 135.739  0.00  0.00    +0.000 OA
ATOM     40  O   UNL     1     115.487 130.548 134.614  0.00  0.00    +0.000 OA
ATOM     41  O   UNL     1     114.960 128.985 134.629  0.00  0.00    +0.000 OA
ATOM     42  C   UNL     1     114.121 130.588 136.317  0.00  0.00    +0.000 C 
ATOM     43  C   UNL     1     114.664 130.836 135.747  0.00  0.00    +0.000 C 
ATOM     44  C   UNL     1     114.944 130.300 135.184  0.00  0.00    +0.000 C 
ATOM     45  C   UNL     1     114.680 129.519 135.191  0.00  0.00    +0.000 C 
ATOM     46  C   UNL     1     114.137 129.272 135.761  0.00  0.00    +0.000 C 
BRANCH  46  48
ATOM     47  O   UNL     1     113.082 128.320 135.613  0.00  0.00    +0.000 OA
ATOM     48  C   UNL     1     113.874 128.491 135.768  0.00  0.00    +0.000 C 
ENDBRANCH  46  48
ENDBRANCH  37  42
ENDBRANCH  30  37
ENDBRANCH  26  34
ENDBRANCH   3  26
TORSDOF 11
ENDMDL
MODEL 10
REMARK VINA RESULT:      -8.6      2.180      4.606
REMARK  Name = 44258525
REMARK  11 active torsions:
REMARK  status: ('A' for Active; 'I' for Inactive)
REMARK    1  A    between atoms: O_1  and  C_18
REMARK    2  A    between atoms: O_1  and  C_21
REMARK    3  A    between atoms: O_7  and  C_27
REMARK    4  A    between atoms: O_7  and  C_30
REMARK    5  A    between atoms: O_12  and  C_31
REMARK    6  A    between atoms: O_14  and  C_34
REMARK    7  A    between atoms: O_16  and  C_44
REMARK    8  A    between atoms: O_17  and  C_46
REMARK    9  A    between atoms: C_20  and  C_28
REMARK   10  A    between atoms: C_26  and  C_29
REMARK   11  A    between atoms: C_37  and  C_40
REMARK                            x       y       z     vdW  Elec       q    Type
REMARK                         _______ _______ _______ _____ _____    ______ ____
ROOT
ATOM      1  O   UNL     1     112.105 127.589 137.329  0.00  0.00    +0.000 OA
ATOM      2  O   UNL     1     113.587 128.754 135.638  0.00  0.00    +0.000 OA
ATOM      3  C   UNL     1     112.110 129.665 138.090  0.00  0.00    +0.000 A 
ATOM      4  C   UNL     1     112.594 130.042 137.537  0.00  0.00    +0.000 A 
ATOM      5  C   UNL     1     111.952 128.858 138.017  0.00  0.00    +0.000 A 
ATOM      6  C   UNL     1     112.278 128.429 137.393  0.00  0.00    +0.000 A 
ATOM      7  C   UNL     1     112.919 129.612 136.912  0.00  0.00    +0.000 A 
ATOM      8  C   UNL     1     112.761 128.805 136.840  0.00  0.00    +0.000 A 
ATOM      9  C   UNL     1     113.106 128.369 136.185  0.00  0.00    +0.000 A 
ATOM     10  C   UNL     1     112.441 127.136 136.681  0.00  0.00    +0.000 A 
ATOM     11  C   UNL     1     112.944 127.529 136.105  0.00  0.00    +0.000 A 
ENDROOT
BRANCH  10  12
ATOM     12  C   UNL     1     112.281 126.330 136.611  0.00  0.00    +0.000 A 
ATOM     13  C   UNL     1     111.625 126.075 136.181  0.00  0.00    +0.000 A 
ATOM     14  C   UNL     1     112.778 125.778 136.972  0.00  0.00    +0.000 A 
ATOM     15  C   UNL     1     111.466 125.268 136.111  0.00  0.00    +0.000 A 
ATOM     16  C   UNL     1     112.618 124.972 136.902  0.00  0.00    +0.000 A 
ATOM     17  C   UNL     1     111.962 124.717 136.472  0.00  0.00    +0.000 A 
BRANCH  15  18
ATOM     18  O   UNL     1     110.810 125.013 135.681  0.00  0.00    +0.000 OA
ATOM     19  C   UNL     1     110.357 125.557 135.257  0.00  0.00    +0.000 C 
ENDBRANCH  15  18
BRANCH  17  20
ATOM     20  O   UNL     1     111.802 123.910 136.402  0.00  0.00    +0.000 OA
ATOM     21  C   UNL     1     112.194 123.369 136.885  0.00  0.00    +0.000 C 
ENDBRANCH  17  20
ENDBRANCH  10  12
BRANCH   4  22
ATOM     22  O   UNL     1     112.752 130.849 137.609  0.00  0.00    +0.000 OA
ATOM     23  C   UNL     1     112.294 131.397 137.196  0.00  0.00    +0.000 C 
ENDBRANCH   4  22
BRANCH   7  24
ATOM     24  O   UNL     1     113.402 129.989 136.360  0.00  0.00    +0.000 OA
ATOM     25  C   UNL     1     114.208 129.816 136.330  0.00  0.00    +0.000 C 
ENDBRANCH   7  24
BRANCH   3  26
ATOM     26  O   UNL     1     111.785 130.095 138.714  0.00  0.00    +0.000 OA
BRANCH  26  34
ATOM     27  O   UNL     1     112.571 129.657 139.823  0.00  0.00    +0.000 OA
ATOM     28  O   UNL     1     110.505 129.234 141.119  0.00  0.00    +0.000 OA
ATOM     29  O   UNL     1     110.408 129.814 139.577  0.00  0.00    +0.000 OA
ATOM     30  C   UNL     1     111.931 129.226 141.026  0.00  0.00    +0.000 C 
ATOM     31  C   UNL     1     111.193 129.375 140.687  0.00  0.00    +0.000 C 
ATOM     32  C   UNL     1     112.619 129.367 140.594  0.00  0.00    +0.000 C 
ATOM     33  C   UNL     1     111.145 129.665 139.916  0.00  0.00    +0.000 C 
ATOM     34  C   UNL     1     111.834 129.806 139.485  0.00  0.00    +0.000 C 
BRANCH  32  36
ATOM     35  O   UNL     1     114.013 129.084 140.451  0.00  0.00    +0.000 OA
ATOM     36  C   UNL     1     113.357 129.218 140.934  0.00  0.00    +0.000 C 
ENDBRANCH  32  36
BRANCH  30  37
ATOM     37  O   UNL     1     111.979 128.936 141.797  0.00  0.00    +0.000 OA
BRANCH  37  42
ATOM     38  O   UNL     1     112.044 130.262 142.327  0.00  0.00    +0.000 OA
ATOM     39  O   UNL     1     111.609 128.355 143.296  0.00  0.00    +0.000 OA
ATOM     40  O   UNL     1     111.488 129.389 144.576  0.00  0.00    +0.000 OA
ATOM     41  O   UNL     1     111.737 131.005 144.356  0.00  0.00    +0.000 OA
ATOM     42  C   UNL     1     111.919 129.453 142.436  0.00  0.00    +0.000 C 
ATOM     43  C   UNL     1     111.734 129.162 143.186  0.00  0.00    +0.000 C 
ATOM     44  C   UNL     1     111.673 129.680 143.826  0.00  0.00    +0.000 C 
ATOM     45  C   UNL     1     111.798 130.488 143.716  0.00  0.00    +0.000 C 
ATOM     46  C   UNL     1     111.983 130.779 142.966  0.00  0.00    +0.000 C 
BRANCH  46  48
ATOM     47  O   UNL     1     111.536 132.045 142.479  0.00  0.00    +0.000 OA
ATOM     48  C   UNL     1     112.108 131.586 142.857  0.00  0.00    +0.000 C 
ENDBRANCH  46  48
ENDBRANCH  37  42
ENDBRANCH  30  37
ENDBRANCH  26  34
ENDBRANCH   3  26
TORSDOF 11
ENDMDL
