MODEL 1
REMARK VINA RESULT:      -8.9      0.000      0.000
REMARK  Name = 74978422
REMARK  6 active torsions:
REMARK  status: ('A' for Active; 'I' for Inactive)
REMARK    1  A    between atoms: O_2  and  C_17
REMARK    2  A    between atoms: O_2  and  C_19
REMARK    3  A    between atoms: O_8  and  C_24
REMARK    4  A    between atoms: O_9  and  C_26
REMARK    5  A    between atoms: C_16  and  C_18
REMARK    6  A    between atoms: C_27  and  C_28
REMARK                            x       y       z     vdW  Elec       q    Type
REMARK                         _______ _______ _______ _____ _____    ______ ____
ROOT
ATOM      1  O   UNL     1     113.669 127.371 136.286  0.00  0.00    +0.000 OA
ATOM      2  O   UNL     1     112.223 128.470 137.969  0.00  0.00    +0.000 OA
ATOM      3  C   UNL     1     112.960 129.407 136.818  0.00  0.00    +0.000 A 
ATOM      4  C   UNL     1     113.080 128.555 136.828  0.00  0.00    +0.000 A 
ATOM      5  C   UNL     1     113.347 129.882 136.217  0.00  0.00    +0.000 A 
ATOM      6  C   UNL     1     113.562 128.190 136.267  0.00  0.00    +0.000 A 
ATOM      7  C   UNL     1     112.705 128.104 137.408  0.00  0.00    +0.000 A 
ATOM      8  C   UNL     1     113.849 129.501 135.633  0.00  0.00    +0.000 A 
ATOM      9  C   UNL     1     113.957 128.649 135.658  0.00  0.00    +0.000 A 
ATOM     10  C   UNL     1     112.812 127.286 137.427  0.00  0.00    +0.000 A 
ATOM     11  C   UNL     1     113.294 126.920 136.866  0.00  0.00    +0.000 A 
ENDROOT
BRANCH  11  14
ATOM     12  O   UNL     1     114.852 124.644 137.614  0.00  0.00    +0.000 OA
ATOM     13  O   UNL     1     113.720 123.648 136.944  0.00  0.00    +0.000 OA
ATOM     14  C   UNL     1     113.401 126.102 136.886  0.00  0.00    +0.000 A 
ATOM     15  C   UNL     1     114.073 125.782 137.240  0.00  0.00    +0.000 A 
ATOM     16  C   UNL     1     112.834 125.605 136.551  0.00  0.00    +0.000 A 
ATOM     17  C   UNL     1     114.179 124.964 137.260  0.00  0.00    +0.000 A 
ATOM     18  C   UNL     1     112.941 124.787 136.570  0.00  0.00    +0.000 A 
ATOM     19  C   UNL     1     113.613 124.466 136.925  0.00  0.00    +0.000 A 
ENDBRANCH  11  14
BRANCH   8  20
ATOM     20  O   UNL     1     114.225 129.949 135.051  0.00  0.00    +0.000 OA
ATOM     21  C   UNL     1     114.989 130.232 135.177  0.00  0.00    +0.000 C 
ENDBRANCH   8  20
BRANCH  10  22
ATOM     22  O   UNL     1     112.438 126.835 138.007  0.00  0.00    +0.000 OA
ATOM     23  C   UNL     1     112.256 127.170 138.738  0.00  0.00    +0.000 C 
ENDBRANCH  10  22
BRANCH   3  24
ATOM     24  O   UNL     1     112.476 129.764 137.383  0.00  0.00    +0.000 OA
BRANCH  24  33
ATOM     25  O   UNL     1     111.355 130.118 136.570  0.00  0.00    +0.000 OA
ATOM     26  O   UNL     1     111.309 132.363 137.611  0.00  0.00    +0.000 OA
ATOM     27  O   UNL     1     110.205 131.968 136.452  0.00  0.00    +0.000 OA
ATOM     28  O   UNL     1     112.446 131.261 138.077  0.00  0.00    +0.000 OA
ATOM     29  C   UNL     1     111.325 131.615 137.264  0.00  0.00    +0.000 C 
ATOM     30  C   UNL     1     110.772 131.417 136.684  0.00  0.00    +0.000 C 
ATOM     31  C   UNL     1     111.893 131.063 137.497  0.00  0.00    +0.000 C 
ATOM     32  C   UNL     1     110.788 130.669 136.338  0.00  0.00    +0.000 C 
ATOM     33  C   UNL     1     111.909 130.315 137.150  0.00  0.00    +0.000 C 
BRANCH  32  35
ATOM     34  O   UNL     1     109.899 129.718 135.747  0.00  0.00    +0.000 OA
ATOM     35  C   UNL     1     110.235 130.472 135.758  0.00  0.00    +0.000 C 
ENDBRANCH  32  35
ENDBRANCH  24  33
ENDBRANCH   3  24
TORSDOF 6
ENDMDL
MODEL 2
REMARK VINA RESULT:      -8.8      2.310      5.393
REMARK  Name = 74978422
REMARK  6 active torsions:
REMARK  status: ('A' for Active; 'I' for Inactive)
REMARK    1  A    between atoms: O_2  and  C_17
REMARK    2  A    between atoms: O_2  and  C_19
REMARK    3  A    between atoms: O_8  and  C_24
REMARK    4  A    between atoms: O_9  and  C_26
REMARK    5  A    between atoms: C_16  and  C_18
REMARK    6  A    between atoms: C_27  and  C_28
REMARK                            x       y       z     vdW  Elec       q    Type
REMARK                         _______ _______ _______ _____ _____    ______ ____
ROOT
ATOM      1  O   UNL     1     113.286 129.218 138.900  0.00  0.00    +0.000 OA
ATOM      2  O   UNL     1     113.079 126.923 139.803  0.00  0.00    +0.000 OA
ATOM      3  C   UNL     1     112.533 127.227 138.269  0.00  0.00    +0.000 A 
ATOM      4  C   UNL     1     112.881 127.857 138.739  0.00  0.00    +0.000 A 
ATOM      5  C   UNL     1     112.254 127.397 137.474  0.00  0.00    +0.000 A 
ATOM      6  C   UNL     1     112.950 128.622 138.438  0.00  0.00    +0.000 A 
ATOM      7  C   UNL     1     113.148 127.688 139.501  0.00  0.00    +0.000 A 
ATOM      8  C   UNL     1     112.326 128.194 137.161  0.00  0.00    +0.000 A 
ATOM      9  C   UNL     1     112.676 128.810 137.646  0.00  0.00    +0.000 A 
ATOM     10  C   UNL     1     113.484 128.284 139.963  0.00  0.00    +0.000 A 
ATOM     11  C   UNL     1     113.552 129.049 139.662  0.00  0.00    +0.000 A 
ENDROOT
BRANCH  11  14
ATOM     12  O   UNL     1     113.292 131.081 141.654  0.00  0.00    +0.000 OA
ATOM     13  O   UNL     1     114.897 131.431 141.507  0.00  0.00    +0.000 OA
ATOM     14  C   UNL     1     113.888 129.645 140.124  0.00  0.00    +0.000 A 
ATOM     15  C   UNL     1     113.423 130.065 140.658  0.00  0.00    +0.000 A 
ATOM     16  C   UNL     1     114.691 129.820 140.050  0.00  0.00    +0.000 A 
ATOM     17  C   UNL     1     113.759 130.661 141.119  0.00  0.00    +0.000 A 
ATOM     18  C   UNL     1     115.027 130.415 140.511  0.00  0.00    +0.000 A 
ATOM     19  C   UNL     1     114.561 130.836 141.046  0.00  0.00    +0.000 A 
ENDBRANCH  11  14
BRANCH   8  20
ATOM     20  O   UNL     1     112.060 128.367 136.399  0.00  0.00    +0.000 OA
ATOM     21  C   UNL     1     112.602 128.494 135.792  0.00  0.00    +0.000 C 
ENDBRANCH   8  20
BRANCH  10  22
ATOM     22  O   UNL     1     113.750 128.114 140.725  0.00  0.00    +0.000 OA
ATOM     23  C   UNL     1     113.996 127.351 140.916  0.00  0.00    +0.000 C 
ENDBRANCH  10  22
BRANCH   3  24
ATOM     24  O   UNL     1     112.469 126.465 138.578  0.00  0.00    +0.000 OA
BRANCH  24  33
ATOM     25  O   UNL     1     113.383 125.706 137.785  0.00  0.00    +0.000 OA
ATOM     26  O   UNL     1     111.597 124.062 137.300  0.00  0.00    +0.000 OA
ATOM     27  O   UNL     1     113.106 123.851 136.669  0.00  0.00    +0.000 OA
ATOM     28  O   UNL     1     111.278 125.369 138.255  0.00  0.00    +0.000 OA
ATOM     29  C   UNL     1     112.192 124.610 137.461  0.00  0.00    +0.000 C 
ATOM     30  C   UNL     1     112.947 124.505 137.146  0.00  0.00    +0.000 C 
ATOM     31  C   UNL     1     112.033 125.264 137.939  0.00  0.00    +0.000 C 
ATOM     32  C   UNL     1     113.543 125.052 137.308  0.00  0.00    +0.000 C 
ATOM     33  C   UNL     1     112.628 125.812 138.101  0.00  0.00    +0.000 C 
BRANCH  32  35
ATOM     34  O   UNL     1     114.962 125.042 137.471  0.00  0.00    +0.000 OA
ATOM     35  C   UNL     1     114.297 124.947 136.992  0.00  0.00    +0.000 C 
ENDBRANCH  32  35
ENDBRANCH  24  33
ENDBRANCH   3  24
TORSDOF 6
ENDMDL
MODEL 3
REMARK VINA RESULT:      -8.7      3.079      4.372
REMARK  Name = 74978422
REMARK  6 active torsions:
REMARK  status: ('A' for Active; 'I' for Inactive)
REMARK    1  A    between atoms: O_2  and  C_17
REMARK    2  A    between atoms: O_2  and  C_19
REMARK    3  A    between atoms: O_8  and  C_24
REMARK    4  A    between atoms: O_9  and  C_26
REMARK    5  A    between atoms: C_16  and  C_18
REMARK    6  A    between atoms: C_27  and  C_28
REMARK                            x       y       z     vdW  Elec       q    Type
REMARK                         _______ _______ _______ _____ _____    ______ ____
ROOT
ATOM      1  O   UNL     1     113.439 126.634 139.030  0.00  0.00    +0.000 OA
ATOM      2  O   UNL     1     111.161 125.682 139.202  0.00  0.00    +0.000 OA
ATOM      3  C   UNL     1     111.685 126.713 140.388  0.00  0.00    +0.000 A 
ATOM      4  C   UNL     1     112.198 126.514 139.727  0.00  0.00    +0.000 A 
ATOM      5  C   UNL     1     111.968 127.249 140.997  0.00  0.00    +0.000 A 
ATOM      6  C   UNL     1     112.957 126.832 139.670  0.00  0.00    +0.000 A 
ATOM      7  C   UNL     1     111.920 126.000 139.145  0.00  0.00    +0.000 A 
ATOM      8  C   UNL     1     112.759 127.579 140.937  0.00  0.00    +0.000 A 
ATOM      9  C   UNL     1     113.256 127.369 140.269  0.00  0.00    +0.000 A 
ATOM     10  C   UNL     1     112.403 125.801 138.505  0.00  0.00    +0.000 A 
ATOM     11  C   UNL     1     113.162 126.119 138.448  0.00  0.00    +0.000 A 
ENDROOT
BRANCH  11  14
ATOM     12  O   UNL     1     115.112 124.403 137.255  0.00  0.00    +0.000 OA
ATOM     13  O   UNL     1     115.090 125.328 135.889  0.00  0.00    +0.000 OA
ATOM     14  C   UNL     1     113.645 125.921 137.808  0.00  0.00    +0.000 A 
ATOM     15  C   UNL     1     114.137 125.261 137.851  0.00  0.00    +0.000 A 
ATOM     16  C   UNL     1     113.633 126.383 137.125  0.00  0.00    +0.000 A 
ATOM     17  C   UNL     1     114.619 125.064 137.212  0.00  0.00    +0.000 A 
ATOM     18  C   UNL     1     114.115 126.185 136.486  0.00  0.00    +0.000 A 
ATOM     19  C   UNL     1     114.608 125.526 136.528  0.00  0.00    +0.000 A 
ENDBRANCH  11  14
BRANCH   8  20
ATOM     20  O   UNL     1     113.039 128.094 141.517  0.00  0.00    +0.000 OA
ATOM     21  C   UNL     1     113.076 128.904 141.368  0.00  0.00    +0.000 C 
ENDBRANCH   8  20
BRANCH  10  22
ATOM     22  O   UNL     1     112.125 125.287 137.924  0.00  0.00    +0.000 OA
ATOM     23  C   UNL     1     111.316 125.158 137.838  0.00  0.00    +0.000 C 
ENDBRANCH  10  22
BRANCH   3  24
ATOM     24  O   UNL     1     110.927 126.391 140.437  0.00  0.00    +0.000 OA
BRANCH  24  33
ATOM     25  O   UNL     1     110.130 127.546 140.168  0.00  0.00    +0.000 OA
ATOM     26  O   UNL     1     108.667 126.982 142.083  0.00  0.00    +0.000 OA
ATOM     27  O   UNL     1     108.358 128.325 141.176  0.00  0.00    +0.000 OA
ATOM     28  O   UNL     1     109.951 126.015 141.713  0.00  0.00    +0.000 OA
ATOM     29  C   UNL     1     109.155 127.170 141.445  0.00  0.00    +0.000 C 
ATOM     30  C   UNL     1     109.001 127.842 140.991  0.00  0.00    +0.000 C 
ATOM     31  C   UNL     1     109.797 126.686 141.260  0.00  0.00    +0.000 C 
ATOM     32  C   UNL     1     109.488 128.030 140.353  0.00  0.00    +0.000 C 
ATOM     33  C   UNL     1     110.285 126.874 140.622  0.00  0.00    +0.000 C 
BRANCH  32  35
ATOM     34  O   UNL     1     109.354 128.657 139.076  0.00  0.00    +0.000 OA
ATOM     35  C   UNL     1     109.334 128.701 139.900  0.00  0.00    +0.000 C 
ENDBRANCH  32  35
ENDBRANCH  24  33
ENDBRANCH   3  24
TORSDOF 6
ENDMDL
MODEL 4
REMARK VINA RESULT:      -8.6      2.337      5.554
REMARK  Name = 74978422
REMARK  6 active torsions:
REMARK  status: ('A' for Active; 'I' for Inactive)
REMARK    1  A    between atoms: O_2  and  C_17
REMARK    2  A    between atoms: O_2  and  C_19
REMARK    3  A    between atoms: O_8  and  C_24
REMARK    4  A    between atoms: O_9  and  C_26
REMARK    5  A    between atoms: C_16  and  C_18
REMARK    6  A    between atoms: C_27  and  C_28
REMARK                            x       y       z     vdW  Elec       q    Type
REMARK                         _______ _______ _______ _____ _____    ______ ____
ROOT
ATOM      1  O   UNL     1     109.993 130.525 135.680  0.00  0.00    +0.000 OA
ATOM      2  O   UNL     1     111.205 131.943 137.307  0.00  0.00    +0.000 OA
ATOM      3  C   UNL     1     111.866 130.488 136.872  0.00  0.00    +0.000 A 
ATOM      4  C   UNL     1     111.116 130.743 136.537  0.00  0.00    +0.000 A 
ATOM      5  C   UNL     1     112.199 129.731 136.639  0.00  0.00    +0.000 A 
ATOM      6  C   UNL     1     110.713 130.269 135.995  0.00  0.00    +0.000 A 
ATOM      7  C   UNL     1     110.802 131.470 136.765  0.00  0.00    +0.000 A 
ATOM      8  C   UNL     1     111.778 129.239 136.074  0.00  0.00    +0.000 A 
ATOM      9  C   UNL     1     111.030 129.510 135.750  0.00  0.00    +0.000 A 
ATOM     10  C   UNL     1     110.082 131.726 136.451  0.00  0.00    +0.000 A 
ATOM     11  C   UNL     1     109.679 131.252 135.908  0.00  0.00    +0.000 A 
ENDROOT
BRANCH  11  14
ATOM     12  O   UNL     1     106.822 131.304 135.983  0.00  0.00    +0.000 OA
ATOM     13  O   UNL     1     106.805 132.275 134.650  0.00  0.00    +0.000 OA
ATOM     14  C   UNL     1     108.959 131.508 135.594  0.00  0.00    +0.000 A 
ATOM     15  C   UNL     1     108.250 131.278 135.945  0.00  0.00    +0.000 A 
ATOM     16  C   UNL     1     108.951 131.994 134.927  0.00  0.00    +0.000 A 
ATOM     17  C   UNL     1     107.532 131.534 135.631  0.00  0.00    +0.000 A 
ATOM     18  C   UNL     1     108.233 132.249 134.612  0.00  0.00    +0.000 A 
ATOM     19  C   UNL     1     107.523 132.020 134.964  0.00  0.00    +0.000 A 
ENDBRANCH  11  14
BRANCH   8  20
ATOM     20  O   UNL     1     112.090 128.511 135.844  0.00  0.00    +0.000 OA
ATOM     21  C   UNL     1     111.744 127.811 136.108  0.00  0.00    +0.000 C 
ENDBRANCH   8  20
BRANCH  10  22
ATOM     22  O   UNL     1     109.768 132.453 136.678  0.00  0.00    +0.000 OA
ATOM     23  C   UNL     1     110.115 132.879 137.293  0.00  0.00    +0.000 C 
ENDBRANCH  10  22
BRANCH   3  24
ATOM     24  O   UNL     1     112.263 130.968 137.414  0.00  0.00    +0.000 OA
BRANCH  24  33
ATOM     25  O   UNL     1     112.149 130.208 138.619  0.00  0.00    +0.000 OA
ATOM     26  O   UNL     1     114.576 130.480 139.020  0.00  0.00    +0.000 OA
ATOM     27  O   UNL     1     113.653 129.631 140.091  0.00  0.00    +0.000 OA
ATOM     28  O   UNL     1     113.881 131.149 137.681  0.00  0.00    +0.000 OA
ATOM     29  C   UNL     1     113.767 130.390 138.886  0.00  0.00    +0.000 C 
ATOM     30  C   UNL     1     113.305 129.965 139.422  0.00  0.00    +0.000 C 
ATOM     31  C   UNL     1     113.419 130.724 138.216  0.00  0.00    +0.000 C 
ATOM     32  C   UNL     1     112.496 129.874 139.288  0.00  0.00    +0.000 C 
ATOM     33  C   UNL     1     112.610 130.634 138.083  0.00  0.00    +0.000 C 
BRANCH  32  35
ATOM     34  O   UNL     1     111.282 129.719 140.025  0.00  0.00    +0.000 OA
ATOM     35  C   UNL     1     112.035 129.450 139.823  0.00  0.00    +0.000 C 
ENDBRANCH  32  35
ENDBRANCH  24  33
ENDBRANCH   3  24
TORSDOF 6
ENDMDL
MODEL 5
REMARK VINA RESULT:      -8.5      9.265     11.010
REMARK  Name = 74978422
REMARK  6 active torsions:
REMARK  status: ('A' for Active; 'I' for Inactive)
REMARK    1  A    between atoms: O_2  and  C_17
REMARK    2  A    between atoms: O_2  and  C_19
REMARK    3  A    between atoms: O_8  and  C_24
REMARK    4  A    between atoms: O_9  and  C_26
REMARK    5  A    between atoms: C_16  and  C_18
REMARK    6  A    between atoms: C_27  and  C_28
REMARK                            x       y       z     vdW  Elec       q    Type
REMARK                         _______ _______ _______ _____ _____    ______ ____
ROOT
ATOM      1  O   UNL     1     107.070 126.891 146.943  0.00  0.00    +0.000 OA
ATOM      2  O   UNL     1     106.124 125.863 144.900  0.00  0.00    +0.000 OA
ATOM      3  C   UNL     1     106.326 127.506 144.943  0.00  0.00    +0.000 A 
ATOM      4  C   UNL     1     106.547 127.023 145.619  0.00  0.00    +0.000 A 
ATOM      5  C   UNL     1     106.436 128.358 144.978  0.00  0.00    +0.000 A 
ATOM      6  C   UNL     1     106.862 127.366 146.300  0.00  0.00    +0.000 A 
ATOM      7  C   UNL     1     106.439 126.206 145.580  0.00  0.00    +0.000 A 
ATOM      8  C   UNL     1     106.765 128.714 145.687  0.00  0.00    +0.000 A 
ATOM      9  C   UNL     1     106.979 128.215 146.352  0.00  0.00    +0.000 A 
ATOM     10  C   UNL     1     106.647 125.731 146.223  0.00  0.00    +0.000 A 
ATOM     11  C   UNL     1     106.962 126.074 146.903  0.00  0.00    +0.000 A 
ENDROOT
BRANCH  11  14
ATOM     12  O   UNL     1     106.281 124.826 149.383  0.00  0.00    +0.000 OA
ATOM     13  O   UNL     1     107.795 124.175 149.471  0.00  0.00    +0.000 OA
ATOM     14  C   UNL     1     107.170 125.599 147.546  0.00  0.00    +0.000 A 
ATOM     15  C   UNL     1     106.622 125.450 148.143  0.00  0.00    +0.000 A 
ATOM     16  C   UNL     1     107.927 125.274 147.589  0.00  0.00    +0.000 A 
ATOM     17  C   UNL     1     106.830 124.975 148.785  0.00  0.00    +0.000 A 
ATOM     18  C   UNL     1     108.135 124.799 148.231  0.00  0.00    +0.000 A 
ATOM     19  C   UNL     1     107.587 124.650 148.829  0.00  0.00    +0.000 A 
ENDBRANCH  11  14
BRANCH   8  20
ATOM     20  O   UNL     1     106.874 129.531 145.729  0.00  0.00    +0.000 OA
ATOM     21  C   UNL     1     106.286 130.011 146.051  0.00  0.00    +0.000 C 
ENDBRANCH   8  20
BRANCH  10  22
ATOM     22  O   UNL     1     106.539 124.915 146.184  0.00  0.00    +0.000 OA
ATOM     23  C   UNL     1     105.951 124.598 145.701  0.00  0.00    +0.000 C 
ENDBRANCH  10  22
BRANCH   3  24
ATOM     24  O   UNL     1     106.012 127.155 144.266  0.00  0.00    +0.000 OA
BRANCH  24  33
ATOM     25  O   UNL     1     107.065 127.381 143.328  0.00  0.00    +0.000 OA
ATOM     26  O   UNL     1     105.413 128.173 141.664  0.00  0.00    +0.000 OA
ATOM     27  O   UNL     1     107.016 128.135 141.280  0.00  0.00    +0.000 OA
ATOM     28  O   UNL     1     104.910 127.683 143.158  0.00  0.00    +0.000 OA
ATOM     29  C   UNL     1     105.963 127.909 142.219  0.00  0.00    +0.000 C 
ATOM     30  C   UNL     1     106.765 127.890 142.027  0.00  0.00    +0.000 C 
ATOM     31  C   UNL     1     105.712 127.664 142.966  0.00  0.00    +0.000 C 
ATOM     32  C   UNL     1     107.316 127.626 142.582  0.00  0.00    +0.000 C 
ATOM     33  C   UNL     1     106.263 127.400 143.520  0.00  0.00    +0.000 C 
BRANCH  32  35
ATOM     34  O   UNL     1     108.547 126.908 142.478  0.00  0.00    +0.000 OA
ATOM     35  C   UNL     1     108.118 127.606 142.389  0.00  0.00    +0.000 C 
ENDBRANCH  32  35
ENDBRANCH  24  33
ENDBRANCH   3  24
TORSDOF 6
ENDMDL
MODEL 6
REMARK VINA RESULT:      -8.5      9.214     10.991
REMARK  Name = 74978422
REMARK  6 active torsions:
REMARK  status: ('A' for Active; 'I' for Inactive)
REMARK    1  A    between atoms: O_2  and  C_17
REMARK    2  A    between atoms: O_2  and  C_19
REMARK    3  A    between atoms: O_8  and  C_24
REMARK    4  A    between atoms: O_9  and  C_26
REMARK    5  A    between atoms: C_16  and  C_18
REMARK    6  A    between atoms: C_27  and  C_28
REMARK                            x       y       z     vdW  Elec       q    Type
REMARK                         _______ _______ _______ _____ _____    ______ ____
ROOT
ATOM      1  O   UNL     1     106.490 124.984 145.955  0.00  0.00    +0.000 OA
ATOM      2  O   UNL     1     106.321 127.425 145.581  0.00  0.00    +0.000 OA
ATOM      3  C   UNL     1     105.854 126.399 144.367  0.00  0.00    +0.000 A 
ATOM      4  C   UNL     1     106.149 126.086 145.111  0.00  0.00    +0.000 A 
ATOM      5  C   UNL     1     105.615 125.857 143.745  0.00  0.00    +0.000 A 
ATOM      6  C   UNL     1     106.205 125.272 145.235  0.00  0.00    +0.000 A 
ATOM      7  C   UNL     1     106.377 126.611 145.705  0.00  0.00    +0.000 A 
ATOM      8  C   UNL     1     105.673 125.010 143.875  0.00  0.00    +0.000 A 
ATOM      9  C   UNL     1     105.971 124.715 144.625  0.00  0.00    +0.000 A 
ATOM     10  C   UNL     1     106.662 126.323 146.424  0.00  0.00    +0.000 A 
ATOM     11  C   UNL     1     106.718 125.509 146.548  0.00  0.00    +0.000 A 
ENDROOT
BRANCH  11  14
ATOM     12  O   UNL     1     106.238 124.365 149.123  0.00  0.00    +0.000 OA
ATOM     13  O   UNL     1     107.860 124.357 149.422  0.00  0.00    +0.000 OA
ATOM     14  C   UNL     1     107.004 125.221 147.267  0.00  0.00    +0.000 A 
ATOM     15  C   UNL     1     106.479 124.937 147.836  0.00  0.00    +0.000 A 
ATOM     16  C   UNL     1     107.815 125.217 147.416  0.00  0.00    +0.000 A 
ATOM     17  C   UNL     1     106.764 124.649 148.554  0.00  0.00    +0.000 A 
ATOM     18  C   UNL     1     108.100 124.929 148.135  0.00  0.00    +0.000 A 
ATOM     19  C   UNL     1     107.575 124.645 148.704  0.00  0.00    +0.000 A 
ENDBRANCH  11  14
BRANCH   8  20
ATOM     20  O   UNL     1     105.446 124.482 143.283  0.00  0.00    +0.000 OA
ATOM     21  C   UNL     1     105.967 124.297 142.671  0.00  0.00    +0.000 C 
ENDBRANCH   8  20
BRANCH  10  22
ATOM     22  O   UNL     1     106.890 126.848 147.017  0.00  0.00    +0.000 OA
ATOM     23  C   UNL     1     106.556 127.600 147.054  0.00  0.00    +0.000 C 
ENDBRANCH  10  22
BRANCH   3  24
ATOM     24  O   UNL     1     105.801 127.214 144.251  0.00  0.00    +0.000 OA
BRANCH  24  33
ATOM     25  O   UNL     1     106.848 127.448 143.307  0.00  0.00    +0.000 OA
ATOM     26  O   UNL     1     105.285 128.750 141.897  0.00  0.00    +0.000 OA
ATOM     27  O   UNL     1     106.852 128.550 141.424  0.00  0.00    +0.000 OA
ATOM     28  O   UNL     1     104.759 128.082 143.311  0.00  0.00    +0.000 OA
ATOM     29  C   UNL     1     105.806 128.316 142.367  0.00  0.00    +0.000 C 
ATOM     30  C   UNL     1     106.589 128.216 142.131  0.00  0.00    +0.000 C 
ATOM     31  C   UNL     1     105.543 127.982 143.075  0.00  0.00    +0.000 C 
ATOM     32  C   UNL     1     107.110 127.782 142.601  0.00  0.00    +0.000 C 
ATOM     33  C   UNL     1     106.064 127.548 143.545  0.00  0.00    +0.000 C 
BRANCH  32  35
ATOM     34  O   UNL     1     108.499 127.690 142.924  0.00  0.00    +0.000 OA
ATOM     35  C   UNL     1     107.894 127.682 142.364  0.00  0.00    +0.000 C 
ENDBRANCH  32  35
ENDBRANCH  24  33
ENDBRANCH   3  24
TORSDOF 6
ENDMDL
MODEL 7
REMARK VINA RESULT:      -8.4      1.555      2.700
REMARK  Name = 74978422
REMARK  6 active torsions:
REMARK  status: ('A' for Active; 'I' for Inactive)
REMARK    1  A    between atoms: O_2  and  C_17
REMARK    2  A    between atoms: O_2  and  C_19
REMARK    3  A    between atoms: O_8  and  C_24
REMARK    4  A    between atoms: O_9  and  C_26
REMARK    5  A    between atoms: C_16  and  C_18
REMARK    6  A    between atoms: C_27  and  C_28
REMARK                            x       y       z     vdW  Elec       q    Type
REMARK                         _______ _______ _______ _____ _____    ______ ____
ROOT
ATOM      1  O   UNL     1     111.778 126.555 135.998  0.00  0.00    +0.000 OA
ATOM      2  O   UNL     1     114.010 127.513 136.475  0.00  0.00    +0.000 OA
ATOM      3  C   UNL     1     112.909 128.432 135.645  0.00  0.00    +0.000 A 
ATOM      4  C   UNL     1     112.705 127.638 135.904  0.00  0.00    +0.000 A 
ATOM      5  C   UNL     1     112.330 128.899 135.215  0.00  0.00    +0.000 A 
ATOM      6  C   UNL     1     111.961 127.319 135.744  0.00  0.00    +0.000 A 
ATOM      7  C   UNL     1     113.266 127.194 136.316  0.00  0.00    +0.000 A 
ATOM      8  C   UNL     1     111.556 128.566 135.050  0.00  0.00    +0.000 A 
ATOM      9  C   UNL     1     111.370 127.771 135.316  0.00  0.00    +0.000 A 
ATOM     10  C   UNL     1     113.082 126.430 136.569  0.00  0.00    +0.000 A 
ATOM     11  C   UNL     1     112.338 126.111 136.410  0.00  0.00    +0.000 A 
ENDROOT
BRANCH  11  14
ATOM     12  O   UNL     1     111.204 124.354 138.358  0.00  0.00    +0.000 OA
ATOM     13  O   UNL     1     111.606 123.057 137.422  0.00  0.00    +0.000 OA
ATOM     14  C   UNL     1     112.155 125.347 136.664  0.00  0.00    +0.000 A 
ATOM     15  C   UNL     1     111.771 125.232 137.384  0.00  0.00    +0.000 A 
ATOM     16  C   UNL     1     112.356 124.699 136.195  0.00  0.00    +0.000 A 
ATOM     17  C   UNL     1     111.588 124.469 137.637  0.00  0.00    +0.000 A 
ATOM     18  C   UNL     1     112.173 123.935 136.448  0.00  0.00    +0.000 A 
ATOM     19  C   UNL     1     111.789 123.820 137.169  0.00  0.00    +0.000 A 
ENDBRANCH  11  14
BRANCH   8  20
ATOM     20  O   UNL     1     110.993 129.007 134.638  0.00  0.00    +0.000 OA
ATOM     21  C   UNL     1     110.330 129.301 135.030  0.00  0.00    +0.000 C 
ENDBRANCH   8  20
BRANCH  10  22
ATOM     22  O   UNL     1     113.642 125.987 136.981  0.00  0.00    +0.000 OA
ATOM     23  C   UNL     1     114.444 126.070 136.808  0.00  0.00    +0.000 C 
ENDBRANCH  10  22
BRANCH   3  24
ATOM     24  O   UNL     1     113.656 128.743 135.809  0.00  0.00    +0.000 OA
BRANCH  24  33
ATOM     25  O   UNL     1     113.304 129.769 136.739  0.00  0.00    +0.000 OA
ATOM     26  O   UNL     1     114.798 131.351 135.560  0.00  0.00    +0.000 OA
ATOM     27  O   UNL     1     113.948 131.849 136.883  0.00  0.00    +0.000 OA
ATOM     28  O   UNL     1     114.652 129.798 135.023  0.00  0.00    +0.000 OA
ATOM     29  C   UNL     1     114.300 130.824 135.953  0.00  0.00    +0.000 C 
ATOM     30  C   UNL     1     113.875 131.072 136.615  0.00  0.00    +0.000 C 
ATOM     31  C   UNL     1     114.227 130.047 135.684  0.00  0.00    +0.000 C 
ATOM     32  C   UNL     1     113.376 130.545 137.008  0.00  0.00    +0.000 C 
ATOM     33  C   UNL     1     113.729 129.519 136.077  0.00  0.00    +0.000 C 
BRANCH  32  35
ATOM     34  O   UNL     1     112.882 130.300 138.326  0.00  0.00    +0.000 OA
ATOM     35  C   UNL     1     112.952 130.794 137.669  0.00  0.00    +0.000 C 
ENDBRANCH  32  35
ENDBRANCH  24  33
ENDBRANCH   3  24
TORSDOF 6
ENDMDL
MODEL 8
REMARK VINA RESULT:      -8.4      2.116      2.960
REMARK  Name = 74978422
REMARK  6 active torsions:
REMARK  status: ('A' for Active; 'I' for Inactive)
REMARK    1  A    between atoms: O_2  and  C_17
REMARK    2  A    between atoms: O_2  and  C_19
REMARK    3  A    between atoms: O_8  and  C_24
REMARK    4  A    between atoms: O_9  and  C_26
REMARK    5  A    between atoms: C_16  and  C_18
REMARK    6  A    between atoms: C_27  and  C_28
REMARK                            x       y       z     vdW  Elec       q    Type
REMARK                         _______ _______ _______ _____ _____    ______ ____
ROOT
ATOM      1  O   UNL     1     111.406 127.456 136.327  0.00  0.00    +0.000 OA
ATOM      2  O   UNL     1     109.023 128.049 136.017  0.00  0.00    +0.000 OA
ATOM      3  C   UNL     1     110.157 129.255 135.962  0.00  0.00    +0.000 A 
ATOM      4  C   UNL     1     110.395 128.440 136.096  0.00  0.00    +0.000 A 
ATOM      5  C   UNL     1     110.754 129.872 135.936  0.00  0.00    +0.000 A 
ATOM      6  C   UNL     1     111.190 128.243 136.200  0.00  0.00    +0.000 A 
ATOM      7  C   UNL     1     109.817 127.852 136.121  0.00  0.00    +0.000 A 
ATOM      8  C   UNL     1     111.581 129.666 136.044  0.00  0.00    +0.000 A 
ATOM      9  C   UNL     1     111.800 128.846 136.176  0.00  0.00    +0.000 A 
ATOM     10  C   UNL     1     110.033 127.066 136.249  0.00  0.00    +0.000 A 
ATOM     11  C   UNL     1     110.828 126.869 136.352  0.00  0.00    +0.000 A 
ENDROOT
BRANCH  11  14
ATOM     12  O   UNL     1     111.391 124.715 138.145  0.00  0.00    +0.000 OA
ATOM     13  O   UNL     1     111.691 123.724 136.860  0.00  0.00    +0.000 OA
ATOM     14  C   UNL     1     111.044 126.082 136.480  0.00  0.00    +0.000 A 
ATOM     15  C   UNL     1     111.109 125.792 137.248  0.00  0.00    +0.000 A 
ATOM     16  C   UNL     1     111.194 125.587 135.837  0.00  0.00    +0.000 A 
ATOM     17  C   UNL     1     111.325 125.006 137.375  0.00  0.00    +0.000 A 
ATOM     18  C   UNL     1     111.409 124.801 135.964  0.00  0.00    +0.000 A 
ATOM     19  C   UNL     1     111.475 124.510 136.733  0.00  0.00    +0.000 A 
ENDBRANCH  11  14
BRANCH   8  20
ATOM     20  O   UNL     1     112.162 130.252 136.020  0.00  0.00    +0.000 OA
ATOM     21  C   UNL     1     112.546 130.481 136.712  0.00  0.00    +0.000 C 
ENDBRANCH   8  20
BRANCH  10  22
ATOM     22  O   UNL     1     109.455 126.478 136.273  0.00  0.00    +0.000 OA
ATOM     23  C   UNL     1     108.700 126.629 135.978  0.00  0.00    +0.000 C 
ENDBRANCH  10  22
BRANCH   3  24
ATOM     24  O   UNL     1     109.360 129.443 135.860  0.00  0.00    +0.000 OA
BRANCH  24  33
ATOM     25  O   UNL     1     109.109 130.127 137.090  0.00  0.00    +0.000 OA
ATOM     26  O   UNL     1     107.886 131.892 135.859  0.00  0.00    +0.000 OA
ATOM     27  O   UNL     1     108.043 131.987 137.498  0.00  0.00    +0.000 OA
ATOM     28  O   UNL     1     108.545 130.620 135.040  0.00  0.00    +0.000 OA
ATOM     29  C   UNL     1     108.294 131.304 136.269  0.00  0.00    +0.000 C 
ATOM     30  C   UNL     1     108.373 131.351 137.089  0.00  0.00    +0.000 C 
ATOM     31  C   UNL     1     108.623 130.667 135.859  0.00  0.00    +0.000 C 
ATOM     32  C   UNL     1     108.780 130.763 137.499  0.00  0.00    +0.000 C 
ATOM     33  C   UNL     1     109.031 130.079 136.270  0.00  0.00    +0.000 C 
BRANCH  32  35
ATOM     34  O   UNL     1     108.721 130.145 138.786  0.00  0.00    +0.000 OA
ATOM     35  C   UNL     1     108.859 130.810 138.318  0.00  0.00    +0.000 C 
ENDBRANCH  32  35
ENDBRANCH  24  33
ENDBRANCH   3  24
TORSDOF 6
ENDMDL
MODEL 9
REMARK VINA RESULT:      -8.3      1.654      5.374
REMARK  Name = 74978422
REMARK  6 active torsions:
REMARK  status: ('A' for Active; 'I' for Inactive)
REMARK    1  A    between atoms: O_2  and  C_17
REMARK    2  A    between atoms: O_2  and  C_19
REMARK    3  A    between atoms: O_8  and  C_24
REMARK    4  A    between atoms: O_9  and  C_26
REMARK    5  A    between atoms: C_16  and  C_18
REMARK    6  A    between atoms: C_27  and  C_28
REMARK                            x       y       z     vdW  Elec       q    Type
REMARK                         _______ _______ _______ _____ _____    ______ ____
ROOT
ATOM      1  O   UNL     1     111.786 130.139 136.993  0.00  0.00    +0.000 OA
ATOM      2  O   UNL     1     110.036 128.452 136.525  0.00  0.00    +0.000 OA
ATOM      3  C   UNL     1     111.620 128.054 136.249  0.00  0.00    +0.000 A 
ATOM      4  C   UNL     1     111.414 128.832 136.549  0.00  0.00    +0.000 A 
ATOM      5  C   UNL     1     112.445 127.859 136.109  0.00  0.00    +0.000 A 
ATOM      6  C   UNL     1     111.997 129.394 136.705  0.00  0.00    +0.000 A 
ATOM      7  C   UNL     1     110.620 129.014 136.681  0.00  0.00    +0.000 A 
ATOM      8  C   UNL     1     113.053 128.444 136.272  0.00  0.00    +0.000 A 
ATOM      9  C   UNL     1     112.827 129.217 136.571  0.00  0.00    +0.000 A 
ATOM     10  C   UNL     1     110.409 129.758 136.969  0.00  0.00    +0.000 A 
ATOM     11  C   UNL     1     110.993 130.320 137.125  0.00  0.00    +0.000 A 
ENDROOT
BRANCH  11  14
ATOM     12  O   UNL     1     110.391 132.045 139.323  0.00  0.00    +0.000 OA
ATOM     13  O   UNL     1     110.148 133.296 138.274  0.00  0.00    +0.000 OA
ATOM     14  C   UNL     1     110.781 131.064 137.413  0.00  0.00    +0.000 A 
ATOM     15  C   UNL     1     110.692 131.183 138.223  0.00  0.00    +0.000 A 
ATOM     16  C   UNL     1     110.660 131.689 136.888  0.00  0.00    +0.000 A 
ATOM     17  C   UNL     1     110.481 131.926 138.511  0.00  0.00    +0.000 A 
ATOM     18  C   UNL     1     110.449 132.433 137.176  0.00  0.00    +0.000 A 
ATOM     19  C   UNL     1     110.359 132.552 137.987  0.00  0.00    +0.000 A 
ENDBRANCH  11  14
BRANCH   8  20
ATOM     20  O   UNL     1     113.848 128.266 136.141  0.00  0.00    +0.000 OA
ATOM     21  C   UNL     1     114.246 128.599 135.501  0.00  0.00    +0.000 C 
ENDBRANCH   8  20
BRANCH  10  22
ATOM     22  O   UNL     1     109.615 129.939 137.101  0.00  0.00    +0.000 OA
ATOM     23  C   UNL     1     109.029 129.577 136.649  0.00  0.00    +0.000 C 
ENDBRANCH  10  22
BRANCH   3  24
ATOM     24  O   UNL     1     111.030 127.498 136.096  0.00  0.00    +0.000 OA
BRANCH  24  33
ATOM     25  O   UNL     1     111.270 126.572 137.158  0.00  0.00    +0.000 OA
ATOM     26  O   UNL     1     111.066 124.690 135.564  0.00  0.00    +0.000 OA
ATOM     27  O   UNL     1     111.374 124.393 137.156  0.00  0.00    +0.000 OA
ATOM     28  O   UNL     1     110.894 126.243 135.033  0.00  0.00    +0.000 OA
ATOM     29  C   UNL     1     111.134 125.317 136.095  0.00  0.00    +0.000 C 
ATOM     30  C   UNL     1     111.288 125.169 136.892  0.00  0.00    +0.000 C 
ATOM     31  C   UNL     1     111.048 126.094 135.830  0.00  0.00    +0.000 C 
ATOM     32  C   UNL     1     111.356 125.796 137.423  0.00  0.00    +0.000 C 
ATOM     33  C   UNL     1     111.116 126.722 136.361  0.00  0.00    +0.000 C 
BRANCH  32  35
ATOM     34  O   UNL     1     111.085 126.045 138.804  0.00  0.00    +0.000 OA
ATOM     35  C   UNL     1     111.510 125.647 138.219  0.00  0.00    +0.000 C 
ENDBRANCH  32  35
ENDBRANCH  24  33
ENDBRANCH   3  24
TORSDOF 6
ENDMDL
MODEL 10
REMARK VINA RESULT:      -8.2      1.043      5.547
REMARK  Name = 74978422
REMARK  6 active torsions:
REMARK  status: ('A' for Active; 'I' for Inactive)
REMARK    1  A    between atoms: O_2  and  C_17
REMARK    2  A    between atoms: O_2  and  C_19
REMARK    3  A    between atoms: O_8  and  C_24
REMARK    4  A    between atoms: O_9  and  C_26
REMARK    5  A    between atoms: C_16  and  C_18
REMARK    6  A    between atoms: C_27  and  C_28
REMARK                            x       y       z     vdW  Elec       q    Type
REMARK                         _______ _______ _______ _____ _____    ______ ____
ROOT
ATOM      1  O   UNL     1     112.078 128.989 138.236  0.00  0.00    +0.000 OA
ATOM      2  O   UNL     1     113.395 127.735 136.557  0.00  0.00    +0.000 OA
ATOM      3  C   UNL     1     113.021 126.994 137.990  0.00  0.00    +0.000 A 
ATOM      4  C   UNL     1     112.761 127.799 137.836  0.00  0.00    +0.000 A 
ATOM      5  C   UNL     1     112.821 126.621 138.737  0.00  0.00    +0.000 A 
ATOM      6  C   UNL     1     112.322 128.217 138.396  0.00  0.00    +0.000 A 
ATOM      7  C   UNL     1     112.956 128.152 137.117  0.00  0.00    +0.000 A 
ATOM      8  C   UNL     1     112.364 127.056 139.320  0.00  0.00    +0.000 A 
ATOM      9  C   UNL     1     112.113 127.859 139.148  0.00  0.00    +0.000 A 
ATOM     10  C   UNL     1     112.712 128.925 136.956  0.00  0.00    +0.000 A 
ATOM     11  C   UNL     1     112.273 129.342 137.516  0.00  0.00    +0.000 A 
ENDROOT
BRANCH  11  14
ATOM     12  O   UNL     1     110.274 131.168 136.601  0.00  0.00    +0.000 OA
ATOM     13  O   UNL     1     111.301 132.430 136.877  0.00  0.00    +0.000 OA
ATOM     14  C   UNL     1     112.030 130.115 137.356  0.00  0.00    +0.000 A 
ATOM     15  C   UNL     1     111.274 130.256 137.059  0.00  0.00    +0.000 A 
ATOM     16  C   UNL     1     112.543 130.745 137.494  0.00  0.00    +0.000 A 
ATOM     17  C   UNL     1     111.031 131.027 136.899  0.00  0.00    +0.000 A 
ATOM     18  C   UNL     1     112.300 131.517 137.334  0.00  0.00    +0.000 A 
ATOM     19  C   UNL     1     111.544 131.659 137.036  0.00  0.00    +0.000 A 
ENDBRANCH  11  14
BRANCH   8  20
ATOM     20  O   UNL     1     112.167 126.705 140.041  0.00  0.00    +0.000 OA
ATOM     21  C   UNL     1     112.646 126.820 140.701  0.00  0.00    +0.000 C 
ENDBRANCH   8  20
BRANCH  10  22
ATOM     22  O   UNL     1     112.908 129.278 136.237  0.00  0.00    +0.000 OA
ATOM     23  C   UNL     1     113.032 128.812 135.569  0.00  0.00    +0.000 C 
ENDBRANCH  10  22
BRANCH   3  24
ATOM     24  O   UNL     1     113.460 126.584 137.425  0.00  0.00    +0.000 OA
BRANCH  24  33
ATOM     25  O   UNL     1     112.525 125.598 136.981  0.00  0.00    +0.000 OA
ATOM     26  O   UNL     1     114.239 123.838 137.280  0.00  0.00    +0.000 OA
ATOM     27  O   UNL     1     112.734 123.440 136.736  0.00  0.00    +0.000 OA
ATOM     28  O   UNL     1     114.602 125.410 137.624  0.00  0.00    +0.000 OA
ATOM     29  C   UNL     1     113.668 124.425 137.180  0.00  0.00    +0.000 C 
ATOM     30  C   UNL     1     112.915 124.226 136.908  0.00  0.00    +0.000 C 
ATOM     31  C   UNL     1     113.849 125.212 137.352  0.00  0.00    +0.000 C 
ATOM     32  C   UNL     1     112.343 124.813 136.809  0.00  0.00    +0.000 C 
ATOM     33  C   UNL     1     113.278 125.798 137.253  0.00  0.00    +0.000 C 
BRANCH  32  35
ATOM     34  O   UNL     1     111.202 125.105 136.000  0.00  0.00    +0.000 OA
ATOM     35  C   UNL     1     111.591 124.614 136.537  0.00  0.00    +0.000 C 
ENDBRANCH  32  35
ENDBRANCH  24  33
ENDBRANCH   3  24
TORSDOF 6
ENDMDL
