MODEL 1
REMARK VINA RESULT:     -11.5      0.000      0.000
REMARK  Name = 5488716
REMARK  8 active torsions:
REMARK  status: ('A' for Active; 'I' for Inactive)
REMARK    1  A    between atoms: O_2  and  C_26
REMARK    2  A    between atoms: O_2  and  C_30
REMARK    3  A    between atoms: O_5  and  C_28
REMARK    4  A    between atoms: O_5  and  C_39
REMARK    5  A    between atoms: O_12  and  C_36
REMARK    6  A    between atoms: O_12  and  C_42
REMARK    7  A    between atoms: C_21  and  C_30
REMARK    8  A    between atoms: C_40  and  C_48
REMARK                            x       y       z     vdW  Elec       q    Type
REMARK                         _______ _______ _______ _____ _____    ______ ____
ROOT
ATOM      1  O   UNL     1     113.421 126.249 138.775  0.00  0.00    +0.000 OA
ATOM      2  O   UNL     1     111.019 125.783 138.401  0.00  0.00    +0.000 OA
ATOM      3  O   UNL     1     110.679 126.361 139.679  0.00  0.00    +0.000 OA
ATOM      4  C   UNL     1     112.375 125.728 137.953  0.00  0.00    +0.000 A 
ATOM      5  C   UNL     1     113.175 125.883 138.078  0.00  0.00    +0.000 A 
ATOM      6  C   UNL     1     111.819 125.938 138.526  0.00  0.00    +0.000 A 
ATOM      7  C   UNL     1     112.561 127.063 140.670  0.00  0.00    +0.000 A 
ATOM      8  C   UNL     1     112.065 126.305 139.223  0.00  0.00    +0.000 A 
ATOM      9  C   UNL     1     112.866 126.460 139.348  0.00  0.00    +0.000 A 
ATOM     10  C   UNL     1     113.134 126.841 140.070  0.00  0.00    +0.000 A 
ATOM     11  C   UNL     1     111.727 126.902 140.541  0.00  0.00    +0.000 A 
ATOM     12  C   UNL     1     111.478 126.520 139.812  0.00  0.00    +0.000 A 
ENDROOT
BRANCH   5  15
ATOM     13  O   UNL     1     114.912 126.610 135.928  0.00  0.00    +0.000 OA
ATOM     14  O   UNL     1     115.395 125.039 135.786  0.00  0.00    +0.000 OA
ATOM     15  C   UNL     1     113.730 125.672 137.506  0.00  0.00    +0.000 A 
ATOM     16  C   UNL     1     114.043 126.246 137.003  0.00  0.00    +0.000 A 
ATOM     17  C   UNL     1     113.972 124.886 137.434  0.00  0.00    +0.000 A 
ATOM     18  C   UNL     1     114.599 126.035 136.430  0.00  0.00    +0.000 A 
ATOM     19  C   UNL     1     114.526 124.675 136.862  0.00  0.00    +0.000 A 
ATOM     20  C   UNL     1     114.840 125.250 136.360  0.00  0.00    +0.000 A 
ENDBRANCH   5  15
BRANCH   4  21
ATOM     21  O   UNL     1     112.128 125.361 137.257  0.00  0.00    +0.000 OA
BRANCH  21  30
ATOM     22  O   UNL     1     111.556 126.572 136.760  0.00  0.00    +0.000 OA
ATOM     23  O   UNL     1     110.043 126.912 135.223  0.00  0.00    +0.000 OA
ATOM     24  O   UNL     1     110.145 125.265 135.201  0.00  0.00    +0.000 OA
ATOM     25  O   UNL     1     111.188 124.490 136.217  0.00  0.00    +0.000 OA
ATOM     26  C   UNL     1     111.034 126.959 136.251  0.00  0.00    +0.000 C 
ATOM     27  C   UNL     1     110.564 126.524 135.732  0.00  0.00    +0.000 C 
ATOM     28  C   UNL     1     110.616 125.700 135.720  0.00  0.00    +0.000 C 
ATOM     29  C   UNL     1     111.137 125.313 136.229  0.00  0.00    +0.000 C 
ATOM     30  C   UNL     1     111.607 125.749 136.748  0.00  0.00    +0.000 C 
BRANCH  26  31
ATOM     31  C   UNL     1     110.982 127.783 136.262  0.00  0.00    +0.000 C 
BRANCH  31  32
ATOM     32  O   UNL     1     111.665 128.241 136.194  0.00  0.00    +0.000 OA
BRANCH  32  38
ATOM     33  O   UNL     1     111.237 129.118 137.238  0.00  0.00    +0.000 OA
ATOM     34  O   UNL     1     112.720 129.391 135.660  0.00  0.00    +0.000 OA
ATOM     35  O   UNL     1     112.819 130.844 136.435  0.00  0.00    +0.000 OA
ATOM     36  O   UNL     1     111.864 131.146 137.746  0.00  0.00    +0.000 OA
ATOM     37  C   UNL     1     112.242 129.542 136.315  0.00  0.00    +0.000 C 
ATOM     38  C   UNL     1     111.714 128.967 136.583  0.00  0.00    +0.000 C 
ATOM     39  C   UNL     1     112.292 130.269 136.703  0.00  0.00    +0.000 C 
ATOM     40  C   UNL     1     111.814 130.420 137.359  0.00  0.00    +0.000 C 
ATOM     41  C   UNL     1     111.286 129.845 137.626  0.00  0.00    +0.000 C 
ATOM     42  C   UNL     1     110.809 129.996 138.281  0.00  0.00    +0.000 C 
ENDBRANCH  32  38
ENDBRANCH  31  32
ENDBRANCH  26  31
ENDBRANCH  21  30
ENDBRANCH   4  21
BRANCH   7  43
ATOM     43  O   UNL     1     112.809 127.429 141.367  0.00  0.00    +0.000 OA
BRANCH  43  52
ATOM     44  O   UNL     1     113.350 128.650 140.857  0.00  0.00    +0.000 OA
ATOM     45  O   UNL     1     112.115 129.918 142.587  0.00  0.00    +0.000 OA
ATOM     46  O   UNL     1     113.066 130.717 141.501  0.00  0.00    +0.000 OA
ATOM     47  O   UNL     1     111.986 128.275 142.520  0.00  0.00    +0.000 OA
ATOM     48  C   UNL     1     112.527 129.495 142.010  0.00  0.00    +0.000 C 
ATOM     49  C   UNL     1     113.002 129.895 141.467  0.00  0.00    +0.000 C 
ATOM     50  C   UNL     1     112.462 128.674 141.977  0.00  0.00    +0.000 C 
ATOM     51  C   UNL     1     113.414 129.472 140.890  0.00  0.00    +0.000 C 
ATOM     52  C   UNL     1     112.873 128.251 141.400  0.00  0.00    +0.000 C 
ATOM     53  C   UNL     1     113.889 129.871 140.347  0.00  0.00    +0.000 C 
ENDBRANCH  43  52
ENDBRANCH   7  43
TORSDOF 8
ENDMDL
MODEL 2
REMARK VINA RESULT:     -11.2      1.789      5.549
REMARK  Name = 5488716
REMARK  8 active torsions:
REMARK  status: ('A' for Active; 'I' for Inactive)
REMARK    1  A    between atoms: O_2  and  C_26
REMARK    2  A    between atoms: O_2  and  C_30
REMARK    3  A    between atoms: O_5  and  C_28
REMARK    4  A    between atoms: O_5  and  C_39
REMARK    5  A    between atoms: O_12  and  C_36
REMARK    6  A    between atoms: O_12  and  C_42
REMARK    7  A    between atoms: C_21  and  C_30
REMARK    8  A    between atoms: C_40  and  C_48
REMARK                            x       y       z     vdW  Elec       q    Type
REMARK                         _______ _______ _______ _____ _____    ______ ____
ROOT
ATOM      1  O   UNL     1     112.870 128.517 138.105  0.00  0.00    +0.000 OA
ATOM      2  O   UNL     1     113.850 128.470 140.378  0.00  0.00    +0.000 OA
ATOM      3  O   UNL     1     113.396 127.115 140.576  0.00  0.00    +0.000 OA
ATOM      4  C   UNL     1     113.589 129.164 139.156  0.00  0.00    +0.000 A 
ATOM      5  C   UNL     1     113.263 129.180 138.398  0.00  0.00    +0.000 A 
ATOM      6  C   UNL     1     113.523 128.486 139.620  0.00  0.00    +0.000 A 
ATOM      7  C   UNL     1     112.318 126.443 138.731  0.00  0.00    +0.000 A 
ATOM      8  C   UNL     1     113.129 127.822 139.327  0.00  0.00    +0.000 A 
ATOM      9  C   UNL     1     112.803 127.838 138.569  0.00  0.00    +0.000 A 
ATOM     10  C   UNL     1     112.391 127.154 138.252  0.00  0.00    +0.000 A 
ATOM     11  C   UNL     1     112.658 126.427 139.520  0.00  0.00    +0.000 A 
ATOM     12  C   UNL     1     113.067 127.122 139.820  0.00  0.00    +0.000 A 
ENDROOT
BRANCH   5  15
ATOM     13  O   UNL     1     112.082 131.507 137.234  0.00  0.00    +0.000 OA
ATOM     14  O   UNL     1     113.529 131.895 136.542  0.00  0.00    +0.000 OA
ATOM     15  C   UNL     1     113.330 129.858 137.935  0.00  0.00    +0.000 A 
ATOM     16  C   UNL     1     112.673 130.343 137.817  0.00  0.00    +0.000 A 
ATOM     17  C   UNL     1     114.053 130.053 137.589  0.00  0.00    +0.000 A 
ATOM     18  C   UNL     1     112.739 131.023 137.352  0.00  0.00    +0.000 A 
ATOM     19  C   UNL     1     114.120 130.731 137.125  0.00  0.00    +0.000 A 
ATOM     20  C   UNL     1     113.463 131.216 137.007  0.00  0.00    +0.000 A 
ENDBRANCH   5  15
BRANCH   4  21
ATOM     21  O   UNL     1     113.983 129.827 139.450  0.00  0.00    +0.000 OA
BRANCH  21  30
ATOM     22  O   UNL     1     112.908 130.183 140.320  0.00  0.00    +0.000 OA
ATOM     23  O   UNL     1     112.894 131.316 142.186  0.00  0.00    +0.000 OA
ATOM     24  O   UNL     1     114.501 131.348 141.813  0.00  0.00    +0.000 OA
ATOM     25  O   UNL     1     115.045 130.603 140.445  0.00  0.00    +0.000 OA
ATOM     26  C   UNL     1     112.635 130.556 141.004  0.00  0.00    +0.000 C 
ATOM     27  C   UNL     1     113.166 130.944 141.502  0.00  0.00    +0.000 C 
ATOM     28  C   UNL     1     113.970 130.960 141.315  0.00  0.00    +0.000 C 
ATOM     29  C   UNL     1     114.243 130.587 140.631  0.00  0.00    +0.000 C 
ATOM     30  C   UNL     1     113.711 130.199 140.134  0.00  0.00    +0.000 C 
BRANCH  26  31
ATOM     31  C   UNL     1     111.832 130.540 141.191  0.00  0.00    +0.000 C 
BRANCH  31  32
ATOM     32  O   UNL     1     111.285 130.904 140.692  0.00  0.00    +0.000 OA
BRANCH  32  38
ATOM     33  O   UNL     1     110.405 129.779 140.739  0.00  0.00    +0.000 OA
ATOM     34  O   UNL     1     110.024 131.872 140.249  0.00  0.00    +0.000 OA
ATOM     35  O   UNL     1     108.514 131.231 140.076  0.00  0.00    +0.000 OA
ATOM     36  O   UNL     1     108.264 129.623 140.344  0.00  0.00    +0.000 OA
ATOM     37  C   UNL     1     109.899 131.067 140.384  0.00  0.00    +0.000 C 
ATOM     38  C   UNL     1     110.530 130.583 140.605  0.00  0.00    +0.000 C 
ATOM     39  C   UNL     1     109.144 130.747 140.297  0.00  0.00    +0.000 C 
ATOM     40  C   UNL     1     109.019 129.942 140.431  0.00  0.00    +0.000 C 
ATOM     41  C   UNL     1     109.649 129.458 140.653  0.00  0.00    +0.000 C 
ATOM     42  C   UNL     1     109.524 128.655 140.787  0.00  0.00    +0.000 C 
ENDBRANCH  32  38
ENDBRANCH  31  32
ENDBRANCH  26  31
ENDBRANCH  21  30
ENDBRANCH   4  21
BRANCH   7  43
ATOM     43  O   UNL     1     111.924 125.781 138.435  0.00  0.00    +0.000 OA
BRANCH  43  52
ATOM     44  O   UNL     1     113.103 125.210 137.864  0.00  0.00    +0.000 OA
ATOM     45  O   UNL     1     111.725 124.094 136.138  0.00  0.00    +0.000 OA
ATOM     46  O   UNL     1     113.363 123.895 136.142  0.00  0.00    +0.000 OA
ATOM     47  O   UNL     1     111.005 125.037 137.285  0.00  0.00    +0.000 OA
ATOM     48  C   UNL     1     112.184 124.466 136.713  0.00  0.00    +0.000 C 
ATOM     49  C   UNL     1     113.003 124.367 136.715  0.00  0.00    +0.000 C 
ATOM     50  C   UNL     1     111.824 124.938 137.286  0.00  0.00    +0.000 C 
ATOM     51  C   UNL     1     113.463 124.739 137.291  0.00  0.00    +0.000 C 
ATOM     52  C   UNL     1     112.284 125.310 137.862  0.00  0.00    +0.000 C 
ATOM     53  C   UNL     1     114.282 124.639 137.292  0.00  0.00    +0.000 C 
ENDBRANCH  43  52
ENDBRANCH   7  43
TORSDOF 8
ENDMDL
MODEL 3
REMARK VINA RESULT:     -11.0      2.253      5.115
REMARK  Name = 5488716
REMARK  8 active torsions:
REMARK  status: ('A' for Active; 'I' for Inactive)
REMARK    1  A    between atoms: O_2  and  C_26
REMARK    2  A    between atoms: O_2  and  C_30
REMARK    3  A    between atoms: O_5  and  C_28
REMARK    4  A    between atoms: O_5  and  C_39
REMARK    5  A    between atoms: O_12  and  C_36
REMARK    6  A    between atoms: O_12  and  C_42
REMARK    7  A    between atoms: C_21  and  C_30
REMARK    8  A    between atoms: C_40  and  C_48
REMARK                            x       y       z     vdW  Elec       q    Type
REMARK                         _______ _______ _______ _____ _____    ______ ____
ROOT
ATOM      1  O   UNL     1     111.954 130.178 136.616  0.00  0.00    +0.000 OA
ATOM      2  O   UNL     1     111.291 128.100 137.785  0.00  0.00    +0.000 OA
ATOM      3  O   UNL     1     110.040 128.694 138.191  0.00  0.00    +0.000 OA
ATOM      4  C   UNL     1     112.238 128.834 137.006  0.00  0.00    +0.000 A 
ATOM      5  C   UNL     1     112.459 129.527 136.616  0.00  0.00    +0.000 A 
ATOM      6  C   UNL     1     111.512 128.793 137.395  0.00  0.00    +0.000 A 
ATOM      7  C   UNL     1     109.952 130.788 137.402  0.00  0.00    +0.000 A 
ATOM      8  C   UNL     1     111.006 129.446 137.395  0.00  0.00    +0.000 A 
ATOM      9  C   UNL     1     111.227 130.138 137.005  0.00  0.00    +0.000 A 
ATOM     10  C   UNL     1     110.710 130.824 136.998  0.00  0.00    +0.000 A 
ATOM     11  C   UNL     1     109.722 130.067 137.808  0.00  0.00    +0.000 A 
ATOM     12  C   UNL     1     110.253 129.391 137.804  0.00  0.00    +0.000 A 
ENDROOT
BRANCH   5  15
ATOM     13  O   UNL     1     115.129 130.532 136.457  0.00  0.00    +0.000 OA
ATOM     14  O   UNL     1     115.364 129.688 135.058  0.00  0.00    +0.000 OA
ATOM     15  C   UNL     1     113.184 129.567 136.227  0.00  0.00    +0.000 A 
ATOM     16  C   UNL     1     113.793 130.029 136.536  0.00  0.00    +0.000 A 
ATOM     17  C   UNL     1     113.302 129.145 135.527  0.00  0.00    +0.000 A 
ATOM     18  C   UNL     1     114.520 130.070 136.147  0.00  0.00    +0.000 A 
ATOM     19  C   UNL     1     114.028 129.185 135.138  0.00  0.00    +0.000 A 
ATOM     20  C   UNL     1     114.637 129.648 135.448  0.00  0.00    +0.000 A 
ENDBRANCH   5  15
BRANCH   4  21
ATOM     21  O   UNL     1     112.742 128.181 137.006  0.00  0.00    +0.000 OA
BRANCH  21  30
ATOM     22  O   UNL     1     113.126 128.324 138.375  0.00  0.00    +0.000 OA
ATOM     23  O   UNL     1     113.694 126.831 139.863  0.00  0.00    +0.000 OA
ATOM     24  O   UNL     1     113.402 125.871 138.553  0.00  0.00    +0.000 OA
ATOM     25  O   UNL     1     112.926 126.546 137.125  0.00  0.00    +0.000 OA
ATOM     26  C   UNL     1     113.364 127.986 139.089  0.00  0.00    +0.000 C 
ATOM     27  C   UNL     1     113.456 127.168 139.149  0.00  0.00    +0.000 C 
ATOM     28  C   UNL     1     113.310 126.688 138.493  0.00  0.00    +0.000 C 
ATOM     29  C   UNL     1     113.072 127.026 137.779  0.00  0.00    +0.000 C 
ATOM     30  C   UNL     1     112.980 127.844 137.720  0.00  0.00    +0.000 C 
BRANCH  26  31
ATOM     31  C   UNL     1     113.510 128.465 139.744  0.00  0.00    +0.000 C 
BRANCH  31  32
ATOM     32  O   UNL     1     113.844 129.213 139.642  0.00  0.00    +0.000 OA
BRANCH  32  38
ATOM     33  O   UNL     1     113.167 129.766 140.773  0.00  0.00    +0.000 OA
ATOM     34  O   UNL     1     115.051 130.324 139.821  0.00  0.00    +0.000 OA
ATOM     35  O   UNL     1     114.977 131.433 141.041  0.00  0.00    +0.000 OA
ATOM     36  O   UNL     1     113.696 131.431 142.081  0.00  0.00    +0.000 OA
ATOM     37  C   UNL     1     114.410 130.323 140.342  0.00  0.00    +0.000 C 
ATOM     38  C   UNL     1     113.807 129.767 140.252  0.00  0.00    +0.000 C 
ATOM     39  C   UNL     1     114.373 130.878 140.951  0.00  0.00    +0.000 C 
ATOM     40  C   UNL     1     113.733 130.876 141.472  0.00  0.00    +0.000 C 
ATOM     41  C   UNL     1     113.129 130.321 141.383  0.00  0.00    +0.000 C 
ATOM     42  C   UNL     1     112.490 130.319 141.903  0.00  0.00    +0.000 C 
ENDBRANCH  32  38
ENDBRANCH  31  32
ENDBRANCH  26  31
ENDBRANCH  21  30
ENDBRANCH   4  21
BRANCH   7  43
ATOM     43  O   UNL     1     109.449 131.442 137.400  0.00  0.00    +0.000 OA
BRANCH  43  52
ATOM     44  O   UNL     1     109.141 131.505 136.006  0.00  0.00    +0.000 OA
ATOM     45  O   UNL     1     106.756 131.881 136.550  0.00  0.00    +0.000 OA
ATOM     46  O   UNL     1     107.243 131.819 134.975  0.00  0.00    +0.000 OA
ATOM     47  O   UNL     1     107.859 131.692 137.763  0.00  0.00    +0.000 OA
ATOM     48  C   UNL     1     107.551 131.755 136.369  0.00  0.00    +0.000 C 
ATOM     49  C   UNL     1     107.795 131.724 135.581  0.00  0.00    +0.000 C 
ATOM     50  C   UNL     1     108.102 131.661 136.975  0.00  0.00    +0.000 C 
ATOM     51  C   UNL     1     108.590 131.599 135.400  0.00  0.00    +0.000 C 
ATOM     52  C   UNL     1     108.897 131.536 136.794  0.00  0.00    +0.000 C 
ATOM     53  C   UNL     1     108.833 131.568 134.612  0.00  0.00    +0.000 C 
ENDBRANCH  43  52
ENDBRANCH   7  43
TORSDOF 8
ENDMDL
MODEL 4
REMARK VINA RESULT:     -11.0      1.507      4.796
REMARK  Name = 5488716
REMARK  8 active torsions:
REMARK  status: ('A' for Active; 'I' for Inactive)
REMARK    1  A    between atoms: O_2  and  C_26
REMARK    2  A    between atoms: O_2  and  C_30
REMARK    3  A    between atoms: O_5  and  C_28
REMARK    4  A    between atoms: O_5  and  C_39
REMARK    5  A    between atoms: O_12  and  C_36
REMARK    6  A    between atoms: O_12  and  C_42
REMARK    7  A    between atoms: C_21  and  C_30
REMARK    8  A    between atoms: C_40  and  C_48
REMARK                            x       y       z     vdW  Elec       q    Type
REMARK                         _______ _______ _______ _____ _____    ______ ____
ROOT
ATOM      1  O   UNL     1     112.040 130.567 138.885  0.00  0.00    +0.000 OA
ATOM      2  O   UNL     1     114.410 130.593 138.171  0.00  0.00    +0.000 OA
ATOM      3  O   UNL     1     114.835 130.118 139.467  0.00  0.00    +0.000 OA
ATOM      4  C   UNL     1     113.028 130.815 137.884  0.00  0.00    +0.000 A 
ATOM      5  C   UNL     1     112.238 130.807 138.122  0.00  0.00    +0.000 A 
ATOM      6  C   UNL     1     113.620 130.584 138.409  0.00  0.00    +0.000 A 
ATOM      7  C   UNL     1     113.025 129.846 140.758  0.00  0.00    +0.000 A 
ATOM      8  C   UNL     1     113.422 130.344 139.174  0.00  0.00    +0.000 A 
ATOM      9  C   UNL     1     112.632 130.336 139.412  0.00  0.00    +0.000 A 
ATOM     10  C   UNL     1     112.413 130.088 140.205  0.00  0.00    +0.000 A 
ATOM     11  C   UNL     1     113.847 129.855 140.510  0.00  0.00    +0.000 A 
ATOM     12  C   UNL     1     114.047 130.106 139.713  0.00  0.00    +0.000 A 
ENDROOT
BRANCH   5  15
ATOM     13  O   UNL     1     110.070 130.135 136.385  0.00  0.00    +0.000 OA
ATOM     14  O   UNL     1     109.871 131.731 136.016  0.00  0.00    +0.000 OA
ATOM     15  C   UNL     1     111.647 131.038 137.596  0.00  0.00    +0.000 A 
ATOM     16  C   UNL     1     111.155 130.471 137.254  0.00  0.00    +0.000 A 
ATOM     17  C   UNL     1     111.547 131.836 137.411  0.00  0.00    +0.000 A 
ATOM     18  C   UNL     1     110.562 130.702 136.727  0.00  0.00    +0.000 A 
ATOM     19  C   UNL     1     110.956 132.067 136.885  0.00  0.00    +0.000 A 
ATOM     20  C   UNL     1     110.463 131.500 136.543  0.00  0.00    +0.000 A 
ENDBRANCH   5  15
BRANCH   4  21
ATOM     21  O   UNL     1     113.227 131.055 137.120  0.00  0.00    +0.000 OA
BRANCH  21  30
ATOM     22  O   UNL     1     113.501 129.731 136.658  0.00  0.00    +0.000 OA
ATOM     23  O   UNL     1     114.876 129.009 135.123  0.00  0.00    +0.000 OA
ATOM     24  O   UNL     1     115.152 130.635 135.050  0.00  0.00    +0.000 OA
ATOM     25  O   UNL     1     114.327 131.657 136.048  0.00  0.00    +0.000 OA
ATOM     26  C   UNL     1     113.914 129.220 136.159  0.00  0.00    +0.000 C 
ATOM     27  C   UNL     1     114.464 129.521 135.622  0.00  0.00    +0.000 C 
ATOM     28  C   UNL     1     114.602 130.334 135.586  0.00  0.00    +0.000 C 
ATOM     29  C   UNL     1     114.189 130.845 136.085  0.00  0.00    +0.000 C 
ATOM     30  C   UNL     1     113.639 130.543 136.621  0.00  0.00    +0.000 C 
BRANCH  26  31
ATOM     31  C   UNL     1     113.777 128.408 136.195  0.00  0.00    +0.000 C 
BRANCH  31  32
ATOM     32  O   UNL     1     113.004 128.120 136.220  0.00  0.00    +0.000 OA
BRANCH  32  38
ATOM     33  O   UNL     1     113.384 126.920 136.896  0.00  0.00    +0.000 OA
ATOM     34  O   UNL     1     111.686 127.349 135.594  0.00  0.00    +0.000 OA
ATOM     35  O   UNL     1     111.407 125.764 135.958  0.00  0.00    +0.000 OA
ATOM     36  O   UNL     1     112.446 124.950 136.947  0.00  0.00    +0.000 OA
ATOM     37  C   UNL     1     112.206 126.942 136.089  0.00  0.00    +0.000 C 
ATOM     38  C   UNL     1     112.865 127.327 136.402  0.00  0.00    +0.000 C 
ATOM     39  C   UNL     1     112.066 126.149 136.271  0.00  0.00    +0.000 C 
ATOM     40  C   UNL     1     112.586 125.742 136.766  0.00  0.00    +0.000 C 
ATOM     41  C   UNL     1     113.245 126.127 137.079  0.00  0.00    +0.000 C 
ATOM     42  C   UNL     1     113.764 125.720 137.573  0.00  0.00    +0.000 C 
ENDBRANCH  32  38
ENDBRANCH  31  32
ENDBRANCH  26  31
ENDBRANCH  21  30
ENDBRANCH   4  21
BRANCH   7  43
ATOM     43  O   UNL     1     112.824 129.607 141.522  0.00  0.00    +0.000 OA
BRANCH  43  52
ATOM     44  O   UNL     1     112.634 128.224 141.219  0.00  0.00    +0.000 OA
ATOM     45  O   UNL     1     110.752 128.133 142.824  0.00  0.00    +0.000 OA
ATOM     46  O   UNL     1     111.189 126.779 141.988  0.00  0.00    +0.000 OA
ATOM     47  O   UNL     1     111.569 129.547 142.591  0.00  0.00    +0.000 OA
ATOM     48  C   UNL     1     111.379 128.163 142.289  0.00  0.00    +0.000 C 
ATOM     49  C   UNL     1     111.598 127.486 141.871  0.00  0.00    +0.000 C 
ATOM     50  C   UNL     1     111.788 128.870 142.173  0.00  0.00    +0.000 C 
ATOM     51  C   UNL     1     112.225 127.517 141.336  0.00  0.00    +0.000 C 
ATOM     52  C   UNL     1     112.415 128.900 141.638  0.00  0.00    +0.000 C 
ATOM     53  C   UNL     1     112.443 126.840 140.918  0.00  0.00    +0.000 C 
ENDBRANCH  43  52
ENDBRANCH   7  43
TORSDOF 8
ENDMDL
MODEL 5
REMARK VINA RESULT:     -11.0      1.605      4.971
REMARK  Name = 5488716
REMARK  8 active torsions:
REMARK  status: ('A' for Active; 'I' for Inactive)
REMARK    1  A    between atoms: O_2  and  C_26
REMARK    2  A    between atoms: O_2  and  C_30
REMARK    3  A    between atoms: O_5  and  C_28
REMARK    4  A    between atoms: O_5  and  C_39
REMARK    5  A    between atoms: O_12  and  C_36
REMARK    6  A    between atoms: O_12  and  C_42
REMARK    7  A    between atoms: C_21  and  C_30
REMARK    8  A    between atoms: C_40  and  C_48
REMARK                            x       y       z     vdW  Elec       q    Type
REMARK                         _______ _______ _______ _____ _____    ______ ____
ROOT
ATOM      1  O   UNL     1     112.602 128.390 139.794  0.00  0.00    +0.000 OA
ATOM      2  O   UNL     1     110.490 129.297 138.876  0.00  0.00    +0.000 OA
ATOM      3  O   UNL     1     110.110 127.993 138.387  0.00  0.00    +0.000 OA
ATOM      4  C   UNL     1     111.722 129.493 139.573  0.00  0.00    +0.000 A 
ATOM      5  C   UNL     1     112.426 129.191 139.878  0.00  0.00    +0.000 A 
ATOM      6  C   UNL     1     111.194 128.995 139.182  0.00  0.00    +0.000 A 
ATOM      7  C   UNL     1     111.722 126.532 138.918  0.00  0.00    +0.000 A 
ATOM      8  C   UNL     1     111.370 128.192 139.098  0.00  0.00    +0.000 A 
ATOM      9  C   UNL     1     112.074 127.890 139.404  0.00  0.00    +0.000 A 
ATOM     10  C   UNL     1     112.268 127.058 139.323  0.00  0.00    +0.000 A 
ATOM     11  C   UNL     1     110.989 126.846 138.599  0.00  0.00    +0.000 A 
ATOM     12  C   UNL     1     110.812 127.683 138.690  0.00  0.00    +0.000 A 
ENDROOT
BRANCH   5  15
ATOM     13  O   UNL     1     114.892 130.636 139.924  0.00  0.00    +0.000 OA
ATOM     14  O   UNL     1     114.539 131.190 141.438  0.00  0.00    +0.000 OA
ATOM     15  C   UNL     1     112.954 129.691 140.268  0.00  0.00    +0.000 A 
ATOM     16  C   UNL     1     113.658 129.913 139.901  0.00  0.00    +0.000 A 
ATOM     17  C   UNL     1     112.778 129.968 141.025  0.00  0.00    +0.000 A 
ATOM     18  C   UNL     1     114.187 130.413 140.291  0.00  0.00    +0.000 A 
ATOM     19  C   UNL     1     113.306 130.467 141.415  0.00  0.00    +0.000 A 
ATOM     20  C   UNL     1     114.010 130.690 141.048  0.00  0.00    +0.000 A 
ENDBRANCH   5  15
BRANCH   4  21
ATOM     21  O   UNL     1     111.546 130.295 139.656  0.00  0.00    +0.000 OA
BRANCH  21  30
ATOM     22  O   UNL     1     111.827 130.611 138.292  0.00  0.00    +0.000 OA
ATOM     23  O   UNL     1     111.011 132.157 136.985  0.00  0.00    +0.000 OA
ATOM     24  O   UNL     1     110.179 132.455 138.379  0.00  0.00    +0.000 OA
ATOM     25  O   UNL     1     110.447 131.524 139.714  0.00  0.00    +0.000 OA
ATOM     26  C   UNL     1     111.694 131.077 137.624  0.00  0.00    +0.000 C 
ATOM     27  C   UNL     1     111.144 131.691 137.653  0.00  0.00    +0.000 C 
ATOM     28  C   UNL     1     110.728 131.841 138.350  0.00  0.00    +0.000 C 
ATOM     29  C   UNL     1     110.862 131.375 139.018  0.00  0.00    +0.000 C 
ATOM     30  C   UNL     1     111.412 130.760 138.988  0.00  0.00    +0.000 C 
BRANCH  26  31
ATOM     31  C   UNL     1     112.109 130.928 136.927  0.00  0.00    +0.000 C 
BRANCH  31  32
ATOM     32  O   UNL     1     112.932 130.869 136.941  0.00  0.00    +0.000 OA
BRANCH  32  38
ATOM     33  O   UNL     1     112.925 129.842 135.948  0.00  0.00    +0.000 OA
ATOM     34  O   UNL     1     114.514 131.189 136.600  0.00  0.00    +0.000 OA
ATOM     35  O   UNL     1     115.298 130.322 135.436  0.00  0.00    +0.000 OA
ATOM     36  O   UNL     1     114.501 129.135 134.613  0.00  0.00    +0.000 OA
ATOM     37  C   UNL     1     114.114 130.595 136.188  0.00  0.00    +0.000 C 
ATOM     38  C   UNL     1     113.323 130.435 136.359  0.00  0.00    +0.000 C 
ATOM     39  C   UNL     1     114.507 130.162 135.606  0.00  0.00    +0.000 C 
ATOM     40  C   UNL     1     114.108 129.568 135.195  0.00  0.00    +0.000 C 
ATOM     41  C   UNL     1     113.317 129.408 135.366  0.00  0.00    +0.000 C 
ATOM     42  C   UNL     1     112.918 128.815 134.954  0.00  0.00    +0.000 C 
ENDBRANCH  32  38
ENDBRANCH  31  32
ENDBRANCH  26  31
ENDBRANCH  21  30
ENDBRANCH   4  21
BRANCH   7  43
ATOM     43  O   UNL     1     111.901 125.731 138.835  0.00  0.00    +0.000 OA
BRANCH  43  52
ATOM     44  O   UNL     1     112.937 125.844 137.858  0.00  0.00    +0.000 OA
ATOM     45  O   UNL     1     112.028 123.873 136.668  0.00  0.00    +0.000 OA
ATOM     46  O   UNL     1     113.367 124.642 136.087  0.00  0.00    +0.000 OA
ATOM     47  O   UNL     1     111.295 124.416 138.042  0.00  0.00    +0.000 OA
ATOM     48  C   UNL     1     112.331 124.530 137.065  0.00  0.00    +0.000 C 
ATOM     49  C   UNL     1     113.000 124.914 136.774  0.00  0.00    +0.000 C 
ATOM     50  C   UNL     1     111.964 124.801 137.751  0.00  0.00    +0.000 C 
ATOM     51  C   UNL     1     113.303 125.572 137.170  0.00  0.00    +0.000 C 
ATOM     52  C   UNL     1     112.267 125.458 138.148  0.00  0.00    +0.000 C 
ATOM     53  C   UNL     1     113.972 125.956 136.879  0.00  0.00    +0.000 C 
ENDBRANCH  43  52
ENDBRANCH   7  43
TORSDOF 8
ENDMDL
MODEL 6
REMARK VINA RESULT:     -11.0      1.824      3.108
REMARK  Name = 5488716
REMARK  8 active torsions:
REMARK  status: ('A' for Active; 'I' for Inactive)
REMARK    1  A    between atoms: O_2  and  C_26
REMARK    2  A    between atoms: O_2  and  C_30
REMARK    3  A    between atoms: O_5  and  C_28
REMARK    4  A    between atoms: O_5  and  C_39
REMARK    5  A    between atoms: O_12  and  C_36
REMARK    6  A    between atoms: O_12  and  C_42
REMARK    7  A    between atoms: C_21  and  C_30
REMARK    8  A    between atoms: C_40  and  C_48
REMARK                            x       y       z     vdW  Elec       q    Type
REMARK                         _______ _______ _______ _____ _____    ______ ____
ROOT
ATOM      1  O   UNL     1     111.845 126.200 138.696  0.00  0.00    +0.000 OA
ATOM      2  O   UNL     1     113.359 128.093 138.199  0.00  0.00    +0.000 OA
ATOM      3  O   UNL     1     113.042 128.716 139.462  0.00  0.00    +0.000 OA
ATOM      4  C   UNL     1     112.768 126.849 137.820  0.00  0.00    +0.000 A 
ATOM      5  C   UNL     1     112.263 126.218 137.985  0.00  0.00    +0.000 A 
ATOM      6  C   UNL     1     112.855 127.462 138.364  0.00  0.00    +0.000 A 
ATOM      7  C   UNL     1     111.576 127.418 140.550  0.00  0.00    +0.000 A 
ATOM      8  C   UNL     1     112.436 127.444 139.076  0.00  0.00    +0.000 A 
ATOM      9  C   UNL     1     111.931 126.813 139.241  0.00  0.00    +0.000 A 
ATOM     10  C   UNL     1     111.490 126.782 139.978  0.00  0.00    +0.000 A 
ATOM     11  C   UNL     1     112.102 128.075 140.378  0.00  0.00    +0.000 A 
ATOM     12  C   UNL     1     112.535 128.088 139.635  0.00  0.00    +0.000 A 
ENDROOT
BRANCH   5  15
ATOM     13  O   UNL     1     110.736 124.910 135.954  0.00  0.00    +0.000 OA
ATOM     14  O   UNL     1     111.916 123.767 135.803  0.00  0.00    +0.000 OA
ATOM     15  C   UNL     1     112.176 125.606 137.440  0.00  0.00    +0.000 A 
ATOM     16  C   UNL     1     111.500 125.565 136.970  0.00  0.00    +0.000 A 
ATOM     17  C   UNL     1     112.766 125.033 137.364  0.00  0.00    +0.000 A 
ATOM     18  C   UNL     1     111.413 124.951 136.424  0.00  0.00    +0.000 A 
ATOM     19  C   UNL     1     112.680 124.421 136.819  0.00  0.00    +0.000 A 
ATOM     20  C   UNL     1     112.003 124.380 136.349  0.00  0.00    +0.000 A 
ENDBRANCH   5  15
BRANCH   4  21
ATOM     21  O   UNL     1     113.186 126.868 137.109  0.00  0.00    +0.000 OA
BRANCH  21  30
ATOM     22  O   UNL     1     112.389 127.914 136.553  0.00  0.00    +0.000 OA
ATOM     23  O   UNL     1     112.870 129.446 135.073  0.00  0.00    +0.000 OA
ATOM     24  O   UNL     1     114.307 128.641 135.168  0.00  0.00    +0.000 OA
ATOM     25  O   UNL     1     114.465 127.352 136.186  0.00  0.00    +0.000 OA
ATOM     26  C   UNL     1     112.310 128.559 136.044  0.00  0.00    +0.000 C 
ATOM     27  C   UNL     1     112.949 128.801 135.582  0.00  0.00    +0.000 C 
ATOM     28  C   UNL     1     113.668 128.398 135.630  0.00  0.00    +0.000 C 
ATOM     29  C   UNL     1     113.747 127.754 136.139  0.00  0.00    +0.000 C 
ATOM     30  C   UNL     1     113.107 127.512 136.600  0.00  0.00    +0.000 C 
BRANCH  26  31
ATOM     31  C   UNL     1     111.592 128.962 135.996  0.00  0.00    +0.000 C 
BRANCH  31  32
ATOM     32  O   UNL     1     110.886 128.540 135.926  0.00  0.00    +0.000 OA
BRANCH  32  38
ATOM     33  O   UNL     1     110.149 129.602 136.535  0.00  0.00    +0.000 OA
ATOM     34  O   UNL     1     109.482 127.904 135.336  0.00  0.00    +0.000 OA
ATOM     35  O   UNL     1     108.043 128.648 135.650  0.00  0.00    +0.000 OA
ATOM     36  O   UNL     1     108.008 130.028 136.554  0.00  0.00    +0.000 OA
ATOM     37  C   UNL     1     109.465 128.595 135.788  0.00  0.00    +0.000 C 
ATOM     38  C   UNL     1     110.166 128.913 136.083  0.00  0.00    +0.000 C 
ATOM     39  C   UNL     1     108.745 128.966 135.945  0.00  0.00    +0.000 C 
ATOM     40  C   UNL     1     108.727 129.657 136.397  0.00  0.00    +0.000 C 
ATOM     41  C   UNL     1     109.429 129.975 136.692  0.00  0.00    +0.000 C 
ATOM     42  C   UNL     1     109.411 130.665 137.143  0.00  0.00    +0.000 C 
ENDBRANCH  32  38
ENDBRANCH  31  32
ENDBRANCH  26  31
ENDBRANCH  21  30
ENDBRANCH   4  21
BRANCH   7  43
ATOM     43  O   UNL     1     111.157 127.397 141.261  0.00  0.00    +0.000 OA
BRANCH  43  52
ATOM     44  O   UNL     1     110.086 128.271 140.898  0.00  0.00    +0.000 OA
ATOM     45  O   UNL     1     108.481 126.779 142.047  0.00  0.00    +0.000 OA
ATOM     46  O   UNL     1     107.944 128.150 141.302  0.00  0.00    +0.000 OA
ATOM     47  O   UNL     1     110.087 126.402 142.026  0.00  0.00    +0.000 OA
ATOM     48  C   UNL     1     109.016 127.276 141.664  0.00  0.00    +0.000 C 
ATOM     49  C   UNL     1     108.748 127.962 141.291  0.00  0.00    +0.000 C 
ATOM     50  C   UNL     1     109.818 127.088 141.654  0.00  0.00    +0.000 C 
ATOM     51  C   UNL     1     109.283 128.459 140.908  0.00  0.00    +0.000 C 
ATOM     52  C   UNL     1     110.354 127.585 141.271  0.00  0.00    +0.000 C 
ATOM     53  C   UNL     1     109.015 129.145 140.536  0.00  0.00    +0.000 C 
ENDBRANCH  43  52
ENDBRANCH   7  43
TORSDOF 8
ENDMDL
MODEL 7
REMARK VINA RESULT:     -10.8      1.338      4.559
REMARK  Name = 5488716
REMARK  8 active torsions:
REMARK  status: ('A' for Active; 'I' for Inactive)
REMARK    1  A    between atoms: O_2  and  C_26
REMARK    2  A    between atoms: O_2  and  C_30
REMARK    3  A    between atoms: O_5  and  C_28
REMARK    4  A    between atoms: O_5  and  C_39
REMARK    5  A    between atoms: O_12  and  C_36
REMARK    6  A    between atoms: O_12  and  C_42
REMARK    7  A    between atoms: C_21  and  C_30
REMARK    8  A    between atoms: C_40  and  C_48
REMARK                            x       y       z     vdW  Elec       q    Type
REMARK                         _______ _______ _______ _____ _____    ______ ____
ROOT
ATOM      1  O   UNL     1     111.302 128.705 136.287  0.00  0.00    +0.000 OA
ATOM      2  O   UNL     1     113.708 128.337 136.737  0.00  0.00    +0.000 OA
ATOM      3  O   UNL     1     113.864 129.703 137.177  0.00  0.00    +0.000 OA
ATOM      4  C   UNL     1     112.441 127.843 136.297  0.00  0.00    +0.000 A 
ATOM      5  C   UNL     1     111.639 127.966 136.147  0.00  0.00    +0.000 A 
ATOM      6  C   UNL     1     112.906 128.460 136.587  0.00  0.00    +0.000 A 
ATOM      7  C   UNL     1     111.882 130.735 137.022  0.00  0.00    +0.000 A 
ATOM      8  C   UNL     1     112.568 129.200 136.728  0.00  0.00    +0.000 A 
ATOM      9  C   UNL     1     111.766 129.323 136.578  0.00  0.00    +0.000 A 
ATOM     10  C   UNL     1     111.403 130.088 136.720  0.00  0.00    +0.000 A 
ATOM     11  C   UNL     1     112.717 130.607 137.178  0.00  0.00    +0.000 A 
ATOM     12  C   UNL     1     113.063 129.834 137.030  0.00  0.00    +0.000 A 
ENDROOT
BRANCH   5  15
ATOM     13  O   UNL     1     109.668 125.941 136.572  0.00  0.00    +0.000 OA
ATOM     14  O   UNL     1     109.782 125.498 134.986  0.00  0.00    +0.000 OA
ATOM     15  C   UNL     1     111.175 127.350 135.857  0.00  0.00    +0.000 A 
ATOM     16  C   UNL     1     110.654 126.954 136.359  0.00  0.00    +0.000 A 
ATOM     17  C   UNL     1     111.232 127.127 135.064  0.00  0.00    +0.000 A 
ATOM     18  C   UNL     1     110.189 126.337 136.069  0.00  0.00    +0.000 A 
ATOM     19  C   UNL     1     110.768 126.511 134.774  0.00  0.00    +0.000 A 
ATOM     20  C   UNL     1     110.246 126.115 135.277  0.00  0.00    +0.000 A 
ENDBRANCH   5  15
BRANCH   4  21
ATOM     21  O   UNL     1     112.779 127.104 136.157  0.00  0.00    +0.000 OA
BRANCH  21  30
ATOM     22  O   UNL     1     112.885 126.779 137.543  0.00  0.00    +0.000 OA
ATOM     23  O   UNL     1     114.285 125.485 138.606  0.00  0.00    +0.000 OA
ATOM     24  O   UNL     1     114.828 125.326 137.056  0.00  0.00    +0.000 OA
ATOM     25  O   UNL     1     114.075 126.135 135.831  0.00  0.00    +0.000 OA
ATOM     26  C   UNL     1     113.261 126.374 138.156  0.00  0.00    +0.000 C 
ATOM     27  C   UNL     1     113.909 125.889 137.994  0.00  0.00    +0.000 C 
ATOM     28  C   UNL     1     114.180 125.810 137.218  0.00  0.00    +0.000 C 
ATOM     29  C   UNL     1     113.804 126.215 136.606  0.00  0.00    +0.000 C 
ATOM     30  C   UNL     1     113.156 126.699 136.769  0.00  0.00    +0.000 C 
BRANCH  26  31
ATOM     31  C   UNL     1     112.990 126.453 138.931  0.00  0.00    +0.000 C 
BRANCH  31  32
ATOM     32  O   UNL     1     112.184 126.397 139.094  0.00  0.00    +0.000 OA
BRANCH  32  38
ATOM     33  O   UNL     1     112.290 127.187 140.281  0.00  0.00    +0.000 OA
ATOM     34  O   UNL     1     110.827 125.676 139.696  0.00  0.00    +0.000 OA
ATOM     35  O   UNL     1     110.255 126.105 141.183  0.00  0.00    +0.000 OA
ATOM     36  O   UNL     1     111.040 127.255 142.069  0.00  0.00    +0.000 OA
ATOM     37  C   UNL     1     111.220 126.252 140.139  0.00  0.00    +0.000 C 
ATOM     38  C   UNL     1     111.898 126.612 139.838  0.00  0.00    +0.000 C 
ATOM     39  C   UNL     1     110.934 126.465 140.883  0.00  0.00    +0.000 C 
ATOM     40  C   UNL     1     111.327 127.041 141.326  0.00  0.00    +0.000 C 
ATOM     41  C   UNL     1     112.005 127.401 141.025  0.00  0.00    +0.000 C 
ATOM     42  C   UNL     1     112.397 127.976 141.467  0.00  0.00    +0.000 C 
ENDBRANCH  32  38
ENDBRANCH  31  32
ENDBRANCH  26  31
ENDBRANCH  21  30
ENDBRANCH   4  21
BRANCH   7  43
ATOM     43  O   UNL     1     111.542 131.474 137.162  0.00  0.00    +0.000 OA
BRANCH  43  52
ATOM     44  O   UNL     1     111.178 131.206 138.517  0.00  0.00    +0.000 OA
ATOM     45  O   UNL     1     109.165 132.622 138.254  0.00  0.00    +0.000 OA
ATOM     46  O   UNL     1     109.471 131.884 139.697  0.00  0.00    +0.000 OA
ATOM     47  O   UNL     1     110.200 132.417 136.986  0.00  0.00    +0.000 OA
ATOM     48  C   UNL     1     109.836 132.150 138.342  0.00  0.00    +0.000 C 
ATOM     49  C   UNL     1     109.989 131.781 139.064  0.00  0.00    +0.000 C 
ATOM     50  C   UNL     1     110.353 132.048 137.708  0.00  0.00    +0.000 C 
ATOM     51  C   UNL     1     110.660 131.309 139.151  0.00  0.00    +0.000 C 
ATOM     52  C   UNL     1     111.024 131.576 137.796  0.00  0.00    +0.000 C 
ATOM     53  C   UNL     1     110.813 130.940 139.873  0.00  0.00    +0.000 C 
ENDBRANCH  43  52
ENDBRANCH   7  43
TORSDOF 8
ENDMDL
MODEL 8
REMARK VINA RESULT:     -10.8      2.338      5.811
REMARK  Name = 5488716
REMARK  8 active torsions:
REMARK  status: ('A' for Active; 'I' for Inactive)
REMARK    1  A    between atoms: O_2  and  C_26
REMARK    2  A    between atoms: O_2  and  C_30
REMARK    3  A    between atoms: O_5  and  C_28
REMARK    4  A    between atoms: O_5  and  C_39
REMARK    5  A    between atoms: O_12  and  C_36
REMARK    6  A    between atoms: O_12  and  C_42
REMARK    7  A    between atoms: C_21  and  C_30
REMARK    8  A    between atoms: C_40  and  C_48
REMARK                            x       y       z     vdW  Elec       q    Type
REMARK                         _______ _______ _______ _____ _____    ______ ____
ROOT
ATOM      1  O   UNL     1     112.027 130.138 136.246  0.00  0.00    +0.000 OA
ATOM      2  O   UNL     1     111.721 130.204 138.701  0.00  0.00    +0.000 OA
ATOM      3  O   UNL     1     110.292 130.068 138.555  0.00  0.00    +0.000 OA
ATOM      4  C   UNL     1     112.580 130.239 137.559  0.00  0.00    +0.000 A 
ATOM      5  C   UNL     1     112.682 130.216 136.740  0.00  0.00    +0.000 A 
ATOM      6  C   UNL     1     111.823 130.182 137.882  0.00  0.00    +0.000 A 
ATOM      7  C   UNL     1     109.804 129.939 136.372  0.00  0.00    +0.000 A 
ATOM      8  C   UNL     1     111.168 130.103 137.387  0.00  0.00    +0.000 A 
ATOM      9  C   UNL     1     111.269 130.081 136.568  0.00  0.00    +0.000 A 
ATOM     10  C   UNL     1     110.596 129.999 136.042  0.00  0.00    +0.000 A 
ATOM     11  C   UNL     1     109.698 129.962 137.225  0.00  0.00    +0.000 A 
ATOM     12  C   UNL     1     110.385 130.045 137.735  0.00  0.00    +0.000 A 
ENDROOT
BRANCH   5  15
ATOM     13  O   UNL     1     114.890 129.012 135.384  0.00  0.00    +0.000 OA
ATOM     14  O   UNL     1     115.710 130.443 135.448  0.00  0.00    +0.000 OA
ATOM     15  C   UNL     1     113.438 130.273 136.417  0.00  0.00    +0.000 A 
ATOM     16  C   UNL     1     113.785 129.614 136.062  0.00  0.00    +0.000 A 
ATOM     17  C   UNL     1     113.848 130.988 136.449  0.00  0.00    +0.000 A 
ATOM     18  C   UNL     1     114.543 129.671 135.739  0.00  0.00    +0.000 A 
ATOM     19  C   UNL     1     114.605 131.045 136.126  0.00  0.00    +0.000 A 
ATOM     20  C   UNL     1     114.952 130.386 135.771  0.00  0.00    +0.000 A 
ENDBRANCH   5  15
BRANCH   4  21
ATOM     21  O   UNL     1     113.234 130.318 138.054  0.00  0.00    +0.000 OA
BRANCH  21  30
ATOM     22  O   UNL     1     113.300 128.948 138.453  0.00  0.00    +0.000 OA
ATOM     23  O   UNL     1     113.843 128.040 140.363  0.00  0.00    +0.000 OA
ATOM     24  O   UNL     1     114.015 129.642 140.719  0.00  0.00    +0.000 OA
ATOM     25  O   UNL     1     113.711 130.781 139.565  0.00  0.00    +0.000 OA
ATOM     26  C   UNL     1     113.452 128.378 139.031  0.00  0.00    +0.000 C 
ATOM     27  C   UNL     1     113.691 128.609 139.786  0.00  0.00    +0.000 C 
ATOM     28  C   UNL     1     113.777 129.411 139.964  0.00  0.00    +0.000 C 
ATOM     29  C   UNL     1     113.625 129.980 139.387  0.00  0.00    +0.000 C 
ATOM     30  C   UNL     1     113.386 129.748 138.631  0.00  0.00    +0.000 C 
BRANCH  26  31
ATOM     31  C   UNL     1     113.366 127.577 138.853  0.00  0.00    +0.000 C 
BRANCH  31  32
ATOM     32  O   UNL     1     112.761 127.328 138.352  0.00  0.00    +0.000 OA
BRANCH  32  38
ATOM     33  O   UNL     1     113.484 126.172 137.923  0.00  0.00    +0.000 OA
ATOM     34  O   UNL     1     111.339 126.572 137.992  0.00  0.00    +0.000 OA
ATOM     35  O   UNL     1     111.351 125.038 137.384  0.00  0.00    +0.000 OA
ATOM     36  O   UNL     1     112.785 124.260 137.136  0.00  0.00    +0.000 OA
ATOM     37  C   UNL     1     112.057 126.183 137.868  0.00  0.00    +0.000 C 
ATOM     38  C   UNL     1     112.768 126.561 138.048  0.00  0.00    +0.000 C 
ATOM     39  C   UNL     1     112.062 125.416 137.564  0.00  0.00    +0.000 C 
ATOM     40  C   UNL     1     112.779 125.027 137.440  0.00  0.00    +0.000 C 
ATOM     41  C   UNL     1     113.490 125.405 137.619  0.00  0.00    +0.000 C 
ATOM     42  C   UNL     1     114.207 125.016 137.495  0.00  0.00    +0.000 C 
ENDBRANCH  32  38
ENDBRANCH  31  32
ENDBRANCH  26  31
ENDBRANCH  21  30
ENDBRANCH   4  21
BRANCH   7  43
ATOM     43  O   UNL     1     109.151 129.860 135.875  0.00  0.00    +0.000 OA
BRANCH  43  52
ATOM     44  O   UNL     1     109.104 131.166 135.296  0.00  0.00    +0.000 OA
ATOM     45  O   UNL     1     106.662 131.251 135.688  0.00  0.00    +0.000 OA
ATOM     46  O   UNL     1     107.428 132.528 134.978  0.00  0.00    +0.000 OA
ATOM     47  O   UNL     1     107.523 129.917 136.136  0.00  0.00    +0.000 OA
ATOM     48  C   UNL     1     107.476 131.223 135.557  0.00  0.00    +0.000 C 
ATOM     49  C   UNL     1     107.859 131.861 135.203  0.00  0.00    +0.000 C 
ATOM     50  C   UNL     1     107.906 130.556 135.782  0.00  0.00    +0.000 C 
ATOM     51  C   UNL     1     108.673 131.833 135.072  0.00  0.00    +0.000 C 
ATOM     52  C   UNL     1     108.720 130.527 135.651  0.00  0.00    +0.000 C 
ATOM     53  C   UNL     1     109.056 132.472 134.717  0.00  0.00    +0.000 C 
ENDBRANCH  43  52
ENDBRANCH   7  43
TORSDOF 8
ENDMDL
MODEL 9
REMARK VINA RESULT:     -10.8      1.194      1.580
REMARK  Name = 5488716
REMARK  8 active torsions:
REMARK  status: ('A' for Active; 'I' for Inactive)
REMARK    1  A    between atoms: O_2  and  C_26
REMARK    2  A    between atoms: O_2  and  C_30
REMARK    3  A    between atoms: O_5  and  C_28
REMARK    4  A    between atoms: O_5  and  C_39
REMARK    5  A    between atoms: O_12  and  C_36
REMARK    6  A    between atoms: O_12  and  C_42
REMARK    7  A    between atoms: C_21  and  C_30
REMARK    8  A    between atoms: C_40  and  C_48
REMARK                            x       y       z     vdW  Elec       q    Type
REMARK                         _______ _______ _______ _____ _____    ______ ____
ROOT
ATOM      1  O   UNL     1     111.766 125.831 138.898  0.00  0.00    +0.000 OA
ATOM      2  O   UNL     1     109.732 126.784 137.858  0.00  0.00    +0.000 OA
ATOM      3  O   UNL     1     109.340 127.386 139.110  0.00  0.00    +0.000 OA
ATOM      4  C   UNL     1     110.932 126.015 137.753  0.00  0.00    +0.000 A 
ATOM      5  C   UNL     1     111.610 125.697 138.100  0.00  0.00    +0.000 A 
ATOM      6  C   UNL     1     110.410 126.466 138.205  0.00  0.00    +0.000 A 
ATOM      7  C   UNL     1     110.879 126.885 140.658  0.00  0.00    +0.000 A 
ATOM      8  C   UNL     1     110.566 126.600 139.004  0.00  0.00    +0.000 A 
ATOM      9  C   UNL     1     111.244 126.283 139.351  0.00  0.00    +0.000 A 
ATOM     10  C   UNL     1     111.418 126.416 140.181  0.00  0.00    +0.000 A 
ATOM     11  C   UNL     1     110.173 127.216 140.297  0.00  0.00    +0.000 A 
ATOM     12  C   UNL     1     110.015 127.072 139.464  0.00  0.00    +0.000 A 
ENDROOT
BRANCH   5  15
ATOM     13  O   UNL     1     114.116 125.418 136.755  0.00  0.00    +0.000 OA
ATOM     14  O   UNL     1     113.697 123.891 136.290  0.00  0.00    +0.000 OA
ATOM     15  C   UNL     1     112.131 125.246 137.648  0.00  0.00    +0.000 A 
ATOM     16  C   UNL     1     112.862 125.558 137.428  0.00  0.00    +0.000 A 
ATOM     17  C   UNL     1     111.922 124.482 137.415  0.00  0.00    +0.000 A 
ATOM     18  C   UNL     1     113.385 125.106 136.975  0.00  0.00    +0.000 A 
ATOM     19  C   UNL     1     112.443 124.031 136.963  0.00  0.00    +0.000 A 
ATOM     20  C   UNL     1     113.174 124.343 136.743  0.00  0.00    +0.000 A 
ENDBRANCH   5  15
BRANCH   4  21
ATOM     21  O   UNL     1     110.775 125.881 136.955  0.00  0.00    +0.000 OA
BRANCH  21  30
ATOM     22  O   UNL     1     111.140 127.206 136.566  0.00  0.00    +0.000 OA
ATOM     23  O   UNL     1     110.498 128.428 134.875  0.00  0.00    +0.000 OA
ATOM     24  O   UNL     1     109.629 127.050 134.612  0.00  0.00    +0.000 OA
ATOM     25  O   UNL     1     109.768 125.777 135.652  0.00  0.00    +0.000 OA
ATOM     26  C   UNL     1     111.071 127.843 136.047  0.00  0.00    +0.000 C 
ATOM     27  C   UNL     1     110.567 127.791 135.395  0.00  0.00    +0.000 C 
ATOM     28  C   UNL     1     110.133 127.102 135.264  0.00  0.00    +0.000 C 
ATOM     29  C   UNL     1     110.202 126.465 135.783  0.00  0.00    +0.000 C 
ATOM     30  C   UNL     1     110.706 126.518 136.435  0.00  0.00    +0.000 C 
BRANCH  26  31
ATOM     31  C   UNL     1     111.505 128.532 136.178  0.00  0.00    +0.000 C 
BRANCH  31  32
ATOM     32  O   UNL     1     112.320 128.490 136.296  0.00  0.00    +0.000 OA
BRANCH  32  38
ATOM     33  O   UNL     1     112.364 129.622 137.167  0.00  0.00    +0.000 OA
ATOM     34  O   UNL     1     113.854 128.822 135.787  0.00  0.00    +0.000 OA
ATOM     35  O   UNL     1     114.666 130.119 136.404  0.00  0.00    +0.000 OA
ATOM     36  O   UNL     1     113.943 131.085 137.529  0.00  0.00    +0.000 OA
ATOM     37  C   UNL     1     113.492 129.305 136.350  0.00  0.00    +0.000 C 
ATOM     38  C   UNL     1     112.725 129.139 136.605  0.00  0.00    +0.000 C 
ATOM     39  C   UNL     1     113.899 129.954 136.658  0.00  0.00    +0.000 C 
ATOM     40  C   UNL     1     113.537 130.437 137.221  0.00  0.00    +0.000 C 
ATOM     41  C   UNL     1     112.770 130.271 137.476  0.00  0.00    +0.000 C 
ATOM     42  C   UNL     1     112.409 130.754 138.038  0.00  0.00    +0.000 C 
ENDBRANCH  32  38
ENDBRANCH  31  32
ENDBRANCH  26  31
ENDBRANCH  21  30
ENDBRANCH   4  21
BRANCH   7  43
ATOM     43  O   UNL     1     111.037 127.018 141.457  0.00  0.00    +0.000 OA
BRANCH  43  52
ATOM     44  O   UNL     1     112.097 127.962 141.284  0.00  0.00    +0.000 OA
ATOM     45  O   UNL     1     111.245 129.267 143.207  0.00  0.00    +0.000 OA
ATOM     46  O   UNL     1     112.587 129.776 142.394  0.00  0.00    +0.000 OA
ATOM     47  O   UNL     1     110.469 127.888 142.738  0.00  0.00    +0.000 OA
ATOM     48  C   UNL     1     111.529 128.832 142.566  0.00  0.00    +0.000 C 
ATOM     49  C   UNL     1     112.200 129.086 142.160  0.00  0.00    +0.000 C 
ATOM     50  C   UNL     1     111.141 128.143 142.332  0.00  0.00    +0.000 C 
ATOM     51  C   UNL     1     112.484 128.651 141.519  0.00  0.00    +0.000 C 
ATOM     52  C   UNL     1     111.425 127.708 141.691  0.00  0.00    +0.000 C 
ATOM     53  C   UNL     1     113.155 128.906 141.113  0.00  0.00    +0.000 C 
ENDBRANCH  43  52
ENDBRANCH   7  43
TORSDOF 8
ENDMDL
MODEL 10
REMARK VINA RESULT:     -10.8      1.636      5.575
REMARK  Name = 5488716
REMARK  8 active torsions:
REMARK  status: ('A' for Active; 'I' for Inactive)
REMARK    1  A    between atoms: O_2  and  C_26
REMARK    2  A    between atoms: O_2  and  C_30
REMARK    3  A    between atoms: O_5  and  C_28
REMARK    4  A    between atoms: O_5  and  C_39
REMARK    5  A    between atoms: O_12  and  C_36
REMARK    6  A    between atoms: O_12  and  C_42
REMARK    7  A    between atoms: C_21  and  C_30
REMARK    8  A    between atoms: C_40  and  C_48
REMARK                            x       y       z     vdW  Elec       q    Type
REMARK                         _______ _______ _______ _____ _____    ______ ____
ROOT
ATOM      1  O   UNL     1     110.874 128.870 136.804  0.00  0.00    +0.000 OA
ATOM      2  O   UNL     1     109.253 128.200 138.549  0.00  0.00    +0.000 OA
ATOM      3  O   UNL     1     109.407 126.809 138.199  0.00  0.00    +0.000 OA
ATOM      4  C   UNL     1     109.978 129.220 137.860  0.00  0.00    +0.000 A 
ATOM      5  C   UNL     1     110.519 129.443 137.278  0.00  0.00    +0.000 A 
ATOM      6  C   UNL     1     109.793 128.424 137.968  0.00  0.00    +0.000 A 
ATOM      7  C   UNL     1     110.879 126.653 136.518  0.00  0.00    +0.000 A 
ATOM      8  C   UNL     1     110.149 127.850 137.493  0.00  0.00    +0.000 A 
ATOM      9  C   UNL     1     110.690 128.073 136.911  0.00  0.00    +0.000 A 
ATOM     10  C   UNL     1     111.067 127.485 136.411  0.00  0.00    +0.000 A 
ATOM     11  C   UNL     1     110.316 126.421 137.124  0.00  0.00    +0.000 A 
ATOM     12  C   UNL     1     109.949 127.023 137.615  0.00  0.00    +0.000 A 
ENDROOT
BRANCH   5  15
ATOM     13  O   UNL     1     112.347 131.621 137.566  0.00  0.00    +0.000 OA
ATOM     14  O   UNL     1     111.258 132.631 136.848  0.00  0.00    +0.000 OA
ATOM     15  C   UNL     1     110.703 130.240 137.170  0.00  0.00    +0.000 A 
ATOM     16  C   UNL     1     111.433 130.531 137.422  0.00  0.00    +0.000 A 
ATOM     17  C   UNL     1     110.159 130.745 136.812  0.00  0.00    +0.000 A 
ATOM     18  C   UNL     1     111.618 131.329 137.315  0.00  0.00    +0.000 A 
ATOM     19  C   UNL     1     110.343 131.542 136.704  0.00  0.00    +0.000 A 
ATOM     20  C   UNL     1     111.073 131.833 136.956  0.00  0.00    +0.000 A 
ENDBRANCH   5  15
BRANCH   4  21
ATOM     21  O   UNL     1     109.622 129.793 138.334  0.00  0.00    +0.000 OA
BRANCH  21  30
ATOM     22  O   UNL     1     110.426 129.505 139.479  0.00  0.00    +0.000 OA
ATOM     23  O   UNL     1     109.994 129.688 141.611  0.00  0.00    +0.000 OA
ATOM     24  O   UNL     1     108.571 130.211 140.959  0.00  0.00    +0.000 OA
ATOM     25  O   UNL     1     108.386 130.264 139.320  0.00  0.00    +0.000 OA
ATOM     26  C   UNL     1     110.518 129.479 140.299  0.00  0.00    +0.000 C 
ATOM     27  C   UNL     1     109.901 129.714 140.792  0.00  0.00    +0.000 C 
ATOM     28  C   UNL     1     109.189 129.976 140.465  0.00  0.00    +0.000 C 
ATOM     29  C   UNL     1     109.096 130.002 139.646  0.00  0.00    +0.000 C 
ATOM     30  C   UNL     1     109.715 129.767 139.153  0.00  0.00    +0.000 C 
BRANCH  26  31
ATOM     31  C   UNL     1     111.229 129.218 140.626  0.00  0.00    +0.000 C 
BRANCH  31  32
ATOM     32  O   UNL     1     111.938 129.590 140.425  0.00  0.00    +0.000 OA
BRANCH  32  38
ATOM     33  O   UNL     1     112.671 128.378 140.613  0.00  0.00    +0.000 OA
ATOM     34  O   UNL     1     113.343 130.452 140.503  0.00  0.00    +0.000 OA
ATOM     35  O   UNL     1     114.778 129.671 140.730  0.00  0.00    +0.000 OA
ATOM     36  O   UNL     1     114.809 128.027 140.879  0.00  0.00    +0.000 OA
ATOM     37  C   UNL     1     113.358 129.630 140.578  0.00  0.00    +0.000 C 
ATOM     38  C   UNL     1     112.655 129.199 140.539  0.00  0.00    +0.000 C 
ATOM     39  C   UNL     1     114.076 129.240 140.691  0.00  0.00    +0.000 C 
ATOM     40  C   UNL     1     114.091 128.417 140.766  0.00  0.00    +0.000 C 
ATOM     41  C   UNL     1     113.388 127.987 140.727  0.00  0.00    +0.000 C 
ATOM     42  C   UNL     1     113.404 127.166 140.801  0.00  0.00    +0.000 C 
ENDBRANCH  32  38
ENDBRANCH  31  32
ENDBRANCH  26  31
ENDBRANCH  21  30
ENDBRANCH   4  21
BRANCH   7  43
ATOM     43  O   UNL     1     111.236 126.082 136.042  0.00  0.00    +0.000 OA
BRANCH  43  52
ATOM     44  O   UNL     1     112.506 125.999 136.693  0.00  0.00    +0.000 OA
ATOM     45  O   UNL     1     112.433 123.531 136.520  0.00  0.00    +0.000 OA
ATOM     46  O   UNL     1     113.727 124.271 137.228  0.00  0.00    +0.000 OA
ATOM     47  O   UNL     1     111.188 124.437 135.927  0.00  0.00    +0.000 OA
ATOM     48  C   UNL     1     112.457 124.354 136.577  0.00  0.00    +0.000 C 
ATOM     49  C   UNL     1     113.104 124.724 136.931  0.00  0.00    +0.000 C 
ATOM     50  C   UNL     1     111.835 124.806 136.281  0.00  0.00    +0.000 C 
ATOM     51  C   UNL     1     113.128 125.546 136.989  0.00  0.00    +0.000 C 
ATOM     52  C   UNL     1     111.859 125.629 136.338  0.00  0.00    +0.000 C 
ATOM     53  C   UNL     1     113.775 125.916 137.343  0.00  0.00    +0.000 C 
ENDBRANCH  43  52
ENDBRANCH   7  43
TORSDOF 8
ENDMDL
