MODEL 1
REMARK VINA RESULT:      -8.9      0.000      0.000
REMARK  Name = 44257571
REMARK  4 active torsions:
REMARK  status: ('A' for Active; 'I' for Inactive)
REMARK    1  A    between atoms: O_2  and  C_14
REMARK    2  A    between atoms: O_2  and  C_16
REMARK    3  A    between atoms: C_13  and  C_15
REMARK    4  A    between atoms: C_23  and  C_25
REMARK                            x       y       z     vdW  Elec       q    Type
REMARK                         _______ _______ _______ _____ _____    ______ ____
ROOT
ATOM      1  O   UNL     1     112.458 128.089 137.076  0.00  0.00    +0.000 OA
ATOM      2  O   UNL     1     114.614 129.386 135.442  0.00  0.00    +0.000 OA
ATOM      3  C   UNL     1     111.826 130.698 137.435  0.00  0.00    +0.000 A 
ATOM      4  C   UNL     1     111.789 129.659 137.504  0.00  0.00    +0.000 A 
ATOM      5  C   UNL     1     112.574 131.148 136.867  0.00  0.00    +0.000 A 
ATOM      6  C   UNL     1     112.500 129.085 137.005  0.00  0.00    +0.000 A 
ATOM      7  C   UNL     1     113.219 129.518 136.460  0.00  0.00    +0.000 A 
ATOM      8  C   UNL     1     113.275 130.555 136.377  0.00  0.00    +0.000 A 
ATOM      9  C   UNL     1     113.895 128.954 135.986  0.00  0.00    +0.000 A 
ATOM     10  C   UNL     1     113.135 127.525 136.602  0.00  0.00    +0.000 A 
ATOM     11  C   UNL     1     113.853 127.957 136.058  0.00  0.00    +0.000 A 
ENDROOT
BRANCH  10  13
ATOM     12  O   UNL     1     112.968 123.538 136.885  0.00  0.00    +0.000 OA
ATOM     13  C   UNL     1     113.093 126.528 136.673  0.00  0.00    +0.000 A 
ATOM     14  C   UNL     1     112.292 126.035 136.332  0.00  0.00    +0.000 A 
ATOM     15  C   UNL     1     113.852 126.024 137.084  0.00  0.00    +0.000 A 
ATOM     16  C   UNL     1     112.251 125.039 136.403  0.00  0.00    +0.000 A 
ATOM     17  C   UNL     1     113.811 125.027 137.155  0.00  0.00    +0.000 A 
ATOM     18  C   UNL     1     113.010 124.535 136.814  0.00  0.00    +0.000 A 
ENDBRANCH  10  13
BRANCH   3  19
ATOM     19  O   UNL     1     111.147 131.259 137.910  0.00  0.00    +0.000 OA
BRANCH  19  28
ATOM     20  O   UNL     1     110.057 131.146 136.569  0.00  0.00    +0.000 OA
ATOM     21  O   UNL     1     107.808 132.087 138.317  0.00  0.00    +0.000 OA
ATOM     22  O   UNL     1     107.468 131.660 136.393  0.00  0.00    +0.000 OA
ATOM     23  O   UNL     1     109.648 131.886 139.076  0.00  0.00    +0.000 OA
ATOM     24  C   UNL     1     108.558 131.773 137.735  0.00  0.00    +0.000 C 
ATOM     25  C   UNL     1     108.388 131.560 136.773  0.00  0.00    +0.000 C 
ATOM     26  C   UNL     1     109.478 131.673 138.114  0.00  0.00    +0.000 C 
ATOM     27  C   UNL     1     109.137 131.246 136.190  0.00  0.00    +0.000 C 
ATOM     28  C   UNL     1     110.227 131.359 137.531  0.00  0.00    +0.000 C 
BRANCH  27  30
ATOM     29  O   UNL     1     109.631 130.494 134.710  0.00  0.00    +0.000 OA
ATOM     30  C   UNL     1     108.967 131.033 135.228  0.00  0.00    +0.000 C 
ENDBRANCH  27  30
ENDBRANCH  19  28
ENDBRANCH   3  19
TORSDOF 4
ENDMDL
MODEL 2
REMARK VINA RESULT:      -8.8      8.877     11.564
REMARK  Name = 44257571
REMARK  4 active torsions:
REMARK  status: ('A' for Active; 'I' for Inactive)
REMARK    1  A    between atoms: O_2  and  C_14
REMARK    2  A    between atoms: O_2  and  C_16
REMARK    3  A    between atoms: C_13  and  C_15
REMARK    4  A    between atoms: C_23  and  C_25
REMARK                            x       y       z     vdW  Elec       q    Type
REMARK                         _______ _______ _______ _____ _____    ______ ____
ROOT
ATOM      1  O   UNL     1     104.524 128.881 143.207  0.00  0.00    +0.000 OA
ATOM      2  O   UNL     1     105.279 126.982 141.012  0.00  0.00    +0.000 OA
ATOM      3  C   UNL     1     106.332 127.340 144.509  0.00  0.00    +0.000 A 
ATOM      4  C   UNL     1     105.629 128.086 144.323  0.00  0.00    +0.000 A 
ATOM      5  C   UNL     1     106.594 126.681 143.746  0.00  0.00    +0.000 A 
ATOM      6  C   UNL     1     105.198 128.163 143.378  0.00  0.00    +0.000 A 
ATOM      7  C   UNL     1     105.449 127.529 142.646  0.00  0.00    +0.000 A 
ATOM      8  C   UNL     1     106.150 126.776 142.809  0.00  0.00    +0.000 A 
ATOM      9  C   UNL     1     105.027 127.615 141.744  0.00  0.00    +0.000 A 
ATOM     10  C   UNL     1     104.101 128.967 142.305  0.00  0.00    +0.000 A 
ATOM     11  C   UNL     1     104.353 128.333 141.574  0.00  0.00    +0.000 A 
ENDROOT
BRANCH  10  13
ATOM     12  O   UNL     1     101.405 131.841 141.621  0.00  0.00    +0.000 OA
ATOM     13  C   UNL     1     103.427 129.685 142.134  0.00  0.00    +0.000 A 
ATOM     14  C   UNL     1     102.980 129.750 141.242  0.00  0.00    +0.000 A 
ATOM     15  C   UNL     1     103.200 130.339 142.856  0.00  0.00    +0.000 A 
ATOM     16  C   UNL     1     102.306 130.469 141.071  0.00  0.00    +0.000 A 
ATOM     17  C   UNL     1     102.526 131.058 142.685  0.00  0.00    +0.000 A 
ATOM     18  C   UNL     1     102.079 131.123 141.793  0.00  0.00    +0.000 A 
ENDBRANCH  10  13
BRANCH   3  19
ATOM     19  O   UNL     1     106.752 127.258 145.413  0.00  0.00    +0.000 OA
BRANCH  19  28
ATOM     20  O   UNL     1     105.683 125.968 145.853  0.00  0.00    +0.000 OA
ATOM     21  O   UNL     1     107.567 125.154 148.041  0.00  0.00    +0.000 OA
ATOM     22  O   UNL     1     105.871 124.135 147.751  0.00  0.00    +0.000 OA
ATOM     23  O   UNL     1     108.008 126.715 146.872  0.00  0.00    +0.000 OA
ATOM     24  C   UNL     1     106.939 125.425 147.312  0.00  0.00    +0.000 C 
ATOM     25  C   UNL     1     106.091 124.916 147.167  0.00  0.00    +0.000 C 
ATOM     26  C   UNL     1     107.159 126.206 146.727  0.00  0.00    +0.000 C 
ATOM     27  C   UNL     1     105.463 125.187 146.437  0.00  0.00    +0.000 C 
ATOM     28  C   UNL     1     106.532 126.477 145.998  0.00  0.00    +0.000 C 
BRANCH  27  30
ATOM     29  O   UNL     1     104.161 124.705 145.402  0.00  0.00    +0.000 OA
ATOM     30  C   UNL     1     104.615 124.678 146.292  0.00  0.00    +0.000 C 
ENDBRANCH  27  30
ENDBRANCH  19  28
ENDBRANCH   3  19
TORSDOF 4
ENDMDL
MODEL 3
REMARK VINA RESULT:      -8.6      9.797     12.137
REMARK  Name = 44257571
REMARK  4 active torsions:
REMARK  status: ('A' for Active; 'I' for Inactive)
REMARK    1  A    between atoms: O_2  and  C_14
REMARK    2  A    between atoms: O_2  and  C_16
REMARK    3  A    between atoms: C_13  and  C_15
REMARK    4  A    between atoms: C_23  and  C_25
REMARK                            x       y       z     vdW  Elec       q    Type
REMARK                         _______ _______ _______ _____ _____    ______ ____
ROOT
ATOM      1  O   UNL     1     105.403 127.975 143.989  0.00  0.00    +0.000 OA
ATOM      2  O   UNL     1     105.673 130.342 145.812  0.00  0.00    +0.000 OA
ATOM      3  C   UNL     1     106.868 126.877 145.987  0.00  0.00    +0.000 A 
ATOM      4  C   UNL     1     106.338 126.974 145.095  0.00  0.00    +0.000 A 
ATOM      5  C   UNL     1     106.961 127.700 146.620  0.00  0.00    +0.000 A 
ATOM      6  C   UNL     1     105.910 127.890 144.848  0.00  0.00    +0.000 A 
ATOM      7  C   UNL     1     106.000 128.680 145.455  0.00  0.00    +0.000 A 
ATOM      8  C   UNL     1     106.524 128.606 146.352  0.00  0.00    +0.000 A 
ATOM      9  C   UNL     1     105.583 129.554 145.205  0.00  0.00    +0.000 A 
ATOM     10  C   UNL     1     104.986 128.849 143.739  0.00  0.00    +0.000 A 
ATOM     11  C   UNL     1     105.076 129.638 144.347  0.00  0.00    +0.000 A 
ENDROOT
BRANCH  10  13
ATOM     12  O   UNL     1     102.959 129.190 140.307  0.00  0.00    +0.000 OA
ATOM     13  C   UNL     1     104.480 128.934 142.881  0.00  0.00    +0.000 A 
ATOM     14  C   UNL     1     104.652 128.293 142.133  0.00  0.00    +0.000 A 
ATOM     15  C   UNL     1     103.801 129.660 142.772  0.00  0.00    +0.000 A 
ATOM     16  C   UNL     1     104.145 128.379 141.275  0.00  0.00    +0.000 A 
ATOM     17  C   UNL     1     103.294 129.745 141.914  0.00  0.00    +0.000 A 
ATOM     18  C   UNL     1     103.466 129.105 141.165  0.00  0.00    +0.000 A 
ENDBRANCH  10  13
BRANCH   3  19
ATOM     19  O   UNL     1     107.283 126.002 146.234  0.00  0.00    +0.000 OA
BRANCH  19  28
ATOM     20  O   UNL     1     106.021 125.400 147.256  0.00  0.00    +0.000 OA
ATOM     21  O   UNL     1     108.074 124.365 149.183  0.00  0.00    +0.000 OA
ATOM     22  O   UNL     1     106.128 124.108 149.562  0.00  0.00    +0.000 OA
ATOM     23  O   UNL     1     108.652 125.312 147.518  0.00  0.00    +0.000 OA
ATOM     24  C   UNL     1     107.390 124.710 148.540  0.00  0.00    +0.000 C 
ATOM     25  C   UNL     1     106.417 124.582 148.730  0.00  0.00    +0.000 C 
ATOM     26  C   UNL     1     107.679 125.184 147.708  0.00  0.00    +0.000 C 
ATOM     27  C   UNL     1     105.732 124.927 148.088  0.00  0.00    +0.000 C 
ATOM     28  C   UNL     1     106.994 125.528 147.066  0.00  0.00    +0.000 C 
BRANCH  27  30
ATOM     29  O   UNL     1     104.076 125.085 147.606  0.00  0.00    +0.000 OA
ATOM     30  C   UNL     1     104.759 124.798 148.278  0.00  0.00    +0.000 C 
ENDBRANCH  27  30
ENDBRANCH  19  28
ENDBRANCH   3  19
TORSDOF 4
ENDMDL
MODEL 4
REMARK VINA RESULT:      -8.5      8.346     11.089
REMARK  Name = 44257571
REMARK  4 active torsions:
REMARK  status: ('A' for Active; 'I' for Inactive)
REMARK    1  A    between atoms: O_2  and  C_14
REMARK    2  A    between atoms: O_2  and  C_16
REMARK    3  A    between atoms: C_13  and  C_15
REMARK    4  A    between atoms: C_23  and  C_25
REMARK                            x       y       z     vdW  Elec       q    Type
REMARK                         _______ _______ _______ _____ _____    ______ ____
ROOT
ATOM      1  O   UNL     1     104.556 128.462 142.638  0.00  0.00    +0.000 OA
ATOM      2  O   UNL     1     107.052 129.419 141.278  0.00  0.00    +0.000 OA
ATOM      3  C   UNL     1     106.280 126.503 143.367  0.00  0.00    +0.000 A 
ATOM      4  C   UNL     1     105.402 127.058 143.278  0.00  0.00    +0.000 A 
ATOM      5  C   UNL     1     107.147 126.836 142.895  0.00  0.00    +0.000 A 
ATOM      6  C   UNL     1     105.403 127.936 142.719  0.00  0.00    +0.000 A 
ATOM      7  C   UNL     1     106.235 128.255 142.265  0.00  0.00    +0.000 A 
ATOM      8  C   UNL     1     107.124 127.717 142.340  0.00  0.00    +0.000 A 
ATOM      9  C   UNL     1     106.220 129.100 141.731  0.00  0.00    +0.000 A 
ATOM     10  C   UNL     1     104.542 129.308 142.104  0.00  0.00    +0.000 A 
ATOM     11  C   UNL     1     105.374 129.626 141.651  0.00  0.00    +0.000 A 
ENDROOT
BRANCH  10  13
ATOM     12  O   UNL     1     101.156 131.414 141.781  0.00  0.00    +0.000 OA
ATOM     13  C   UNL     1     103.695 129.834 142.023  0.00  0.00    +0.000 A 
ATOM     14  C   UNL     1     103.411 130.441 142.766  0.00  0.00    +0.000 A 
ATOM     15  C   UNL     1     103.134 129.754 141.200  0.00  0.00    +0.000 A 
ATOM     16  C   UNL     1     102.565 130.967 142.684  0.00  0.00    +0.000 A 
ATOM     17  C   UNL     1     102.287 130.280 141.119  0.00  0.00    +0.000 A 
ATOM     18  C   UNL     1     102.003 130.887 141.861  0.00  0.00    +0.000 A 
ENDBRANCH  10  13
BRANCH   3  19
ATOM     19  O   UNL     1     106.290 125.659 143.902  0.00  0.00    +0.000 OA
BRANCH  19  28
ATOM     20  O   UNL     1     106.733 126.490 145.356  0.00  0.00    +0.000 OA
ATOM     21  O   UNL     1     105.602 124.241 146.987  0.00  0.00    +0.000 OA
ATOM     22  O   UNL     1     106.422 125.822 147.897  0.00  0.00    +0.000 OA
ATOM     23  O   UNL     1     105.536 124.159 144.990  0.00  0.00    +0.000 OA
ATOM     24  C   UNL     1     105.979 124.991 146.443  0.00  0.00    +0.000 C 
ATOM     25  C   UNL     1     106.389 125.781 146.898  0.00  0.00    +0.000 C 
ATOM     26  C   UNL     1     105.946 124.950 145.445  0.00  0.00    +0.000 C 
ATOM     27  C   UNL     1     106.766 126.531 146.354  0.00  0.00    +0.000 C 
ATOM     28  C   UNL     1     106.323 125.700 144.901  0.00  0.00    +0.000 C 
BRANCH  27  30
ATOM     29  O   UNL     1     107.807 127.914 146.309  0.00  0.00    +0.000 OA
ATOM     30  C   UNL     1     107.176 127.322 146.809  0.00  0.00    +0.000 C 
ENDBRANCH  27  30
ENDBRANCH  19  28
ENDBRANCH   3  19
TORSDOF 4
ENDMDL
MODEL 5
REMARK VINA RESULT:      -8.5      8.601      9.838
REMARK  Name = 44257571
REMARK  4 active torsions:
REMARK  status: ('A' for Active; 'I' for Inactive)
REMARK    1  A    between atoms: O_2  and  C_14
REMARK    2  A    between atoms: O_2  and  C_16
REMARK    3  A    between atoms: C_13  and  C_15
REMARK    4  A    between atoms: C_23  and  C_25
REMARK                            x       y       z     vdW  Elec       q    Type
REMARK                         _______ _______ _______ _____ _____    ______ ____
ROOT
ATOM      1  O   UNL     1     104.336 129.374 143.077  0.00  0.00    +0.000 OA
ATOM      2  O   UNL     1     104.294 127.671 140.608  0.00  0.00    +0.000 OA
ATOM      3  C   UNL     1     102.426 130.655 141.645  0.00  0.00    +0.000 A 
ATOM      4  C   UNL     1     103.080 130.418 142.421  0.00  0.00    +0.000 A 
ATOM      5  C   UNL     1     102.412 130.063 140.787  0.00  0.00    +0.000 A 
ATOM      6  C   UNL     1     103.710 129.595 142.329  0.00  0.00    +0.000 A 
ATOM      7  C   UNL     1     103.697 129.027 141.505  0.00  0.00    +0.000 A 
ATOM      8  C   UNL     1     103.051 129.244 140.717  0.00  0.00    +0.000 A 
ATOM      9  C   UNL     1     104.308 128.238 141.431  0.00  0.00    +0.000 A 
ATOM     10  C   UNL     1     104.947 128.585 143.003  0.00  0.00    +0.000 A 
ATOM     11  C   UNL     1     104.932 128.018 142.180  0.00  0.00    +0.000 A 
ENDROOT
BRANCH  10  13
ATOM     12  O   UNL     1     107.447 127.702 145.998  0.00  0.00    +0.000 OA
ATOM     13  C   UNL     1     105.572 128.364 143.752  0.00  0.00    +0.000 A 
ATOM     14  C   UNL     1     105.287 127.730 144.470  0.00  0.00    +0.000 A 
ATOM     15  C   UNL     1     106.482 128.779 143.782  0.00  0.00    +0.000 A 
ATOM     16  C   UNL     1     105.913 127.509 145.219  0.00  0.00    +0.000 A 
ATOM     17  C   UNL     1     107.107 128.558 144.531  0.00  0.00    +0.000 A 
ATOM     18  C   UNL     1     106.822 127.923 145.249  0.00  0.00    +0.000 A 
ENDBRANCH  10  13
BRANCH   3  19
ATOM     19  O   UNL     1     101.817 131.444 141.723  0.00  0.00    +0.000 OA
BRANCH  19  28
ATOM     20  O   UNL     1     102.973 132.456 140.924  0.00  0.00    +0.000 OA
ATOM     21  O   UNL     1     101.472 134.889 141.834  0.00  0.00    +0.000 OA
ATOM     22  O   UNL     1     103.129 135.090 140.733  0.00  0.00    +0.000 OA
ATOM     23  O   UNL     1     100.816 133.066 142.329  0.00  0.00    +0.000 OA
ATOM     24  C   UNL     1     101.972 134.078 141.531  0.00  0.00    +0.000 C 
ATOM     25  C   UNL     1     102.801 134.179 140.980  0.00  0.00    +0.000 C 
ATOM     26  C   UNL     1     101.644 133.166 141.778  0.00  0.00    +0.000 C 
ATOM     27  C   UNL     1     103.302 133.368 140.677  0.00  0.00    +0.000 C 
ATOM     28  C   UNL     1     102.145 132.356 141.475  0.00  0.00    +0.000 C 
BRANCH  27  30
ATOM     29  O   UNL     1     104.772 132.706 140.045  0.00  0.00    +0.000 OA
ATOM     30  C   UNL     1     104.130 133.469 140.126  0.00  0.00    +0.000 C 
ENDBRANCH  27  30
ENDBRANCH  19  28
ENDBRANCH   3  19
TORSDOF 4
ENDMDL
MODEL 6
REMARK VINA RESULT:      -8.4      6.665     10.750
REMARK  Name = 44257571
REMARK  4 active torsions:
REMARK  status: ('A' for Active; 'I' for Inactive)
REMARK    1  A    between atoms: O_2  and  C_14
REMARK    2  A    between atoms: O_2  and  C_16
REMARK    3  A    between atoms: C_13  and  C_15
REMARK    4  A    between atoms: C_23  and  C_25
REMARK                            x       y       z     vdW  Elec       q    Type
REMARK                         _______ _______ _______ _____ _____    ______ ____
ROOT
ATOM      1  O   UNL     1     103.178 130.796 142.113  0.00  0.00    +0.000 OA
ATOM      2  O   UNL     1     102.139 129.148 139.832  0.00  0.00    +0.000 OA
ATOM      3  C   UNL     1     104.852 128.670 142.256  0.00  0.00    +0.000 A 
ATOM      4  C   UNL     1     104.404 129.585 142.474  0.00  0.00    +0.000 A 
ATOM      5  C   UNL     1     104.490 128.098 141.464  0.00  0.00    +0.000 A 
ATOM      6  C   UNL     1     103.603 129.916 141.898  0.00  0.00    +0.000 A 
ATOM      7  C   UNL     1     103.256 129.367 141.137  0.00  0.00    +0.000 A 
ATOM      8  C   UNL     1     103.688 128.448 140.901  0.00  0.00    +0.000 A 
ATOM      9  C   UNL     1     102.485 129.697 140.593  0.00  0.00    +0.000 A 
ATOM     10  C   UNL     1     102.408 131.126 141.568  0.00  0.00    +0.000 A 
ATOM     11  C   UNL     1     102.061 130.577 140.808  0.00  0.00    +0.000 A 
ENDROOT
BRANCH  10  13
ATOM     12  O   UNL     1     100.711 134.645 142.429  0.00  0.00    +0.000 OA
ATOM     13  C   UNL     1     101.983 132.006 141.783  0.00  0.00    +0.000 A 
ATOM     14  C   UNL     1     101.135 132.036 142.312  0.00  0.00    +0.000 A 
ATOM     15  C   UNL     1     102.408 132.855 141.470  0.00  0.00    +0.000 A 
ATOM     16  C   UNL     1     100.711 132.916 142.526  0.00  0.00    +0.000 A 
ATOM     17  C   UNL     1     101.984 133.735 141.685  0.00  0.00    +0.000 A 
ATOM     18  C   UNL     1     101.135 133.765 142.213  0.00  0.00    +0.000 A 
ENDBRANCH  10  13
BRANCH   3  19
ATOM     19  O   UNL     1     105.622 128.343 142.804  0.00  0.00    +0.000 OA
BRANCH  19  28
ATOM     20  O   UNL     1     106.842 129.278 142.005  0.00  0.00    +0.000 OA
ATOM     21  O   UNL     1     108.785 127.015 142.321  0.00  0.00    +0.000 OA
ATOM     22  O   UNL     1     109.357 128.705 141.417  0.00  0.00    +0.000 OA
ATOM     23  O   UNL     1     106.918 126.834 143.015  0.00  0.00    +0.000 OA
ATOM     24  C   UNL     1     108.137 127.770 142.216  0.00  0.00    +0.000 C 
ATOM     25  C   UNL     1     108.423 128.615 141.763  0.00  0.00    +0.000 C 
ATOM     26  C   UNL     1     107.204 127.679 142.562  0.00  0.00    +0.000 C 
ATOM     27  C   UNL     1     107.775 129.369 141.658  0.00  0.00    +0.000 C 
ATOM     28  C   UNL     1     106.556 128.434 142.457  0.00  0.00    +0.000 C 
BRANCH  27  30
ATOM     29  O   UNL     1     107.391 130.765 140.708  0.00  0.00    +0.000 OA
ATOM     30  C   UNL     1     108.061 130.214 141.205  0.00  0.00    +0.000 C 
ENDBRANCH  27  30
ENDBRANCH  19  28
ENDBRANCH   3  19
TORSDOF 4
ENDMDL
MODEL 7
REMARK VINA RESULT:      -8.3      1.838      2.862
REMARK  Name = 44257571
REMARK  4 active torsions:
REMARK  status: ('A' for Active; 'I' for Inactive)
REMARK    1  A    between atoms: O_2  and  C_14
REMARK    2  A    between atoms: O_2  and  C_16
REMARK    3  A    between atoms: C_13  and  C_15
REMARK    4  A    between atoms: C_23  and  C_25
REMARK                            x       y       z     vdW  Elec       q    Type
REMARK                         _______ _______ _______ _____ _____    ______ ____
ROOT
ATOM      1  O   UNL     1     112.696 127.453 138.114  0.00  0.00    +0.000 OA
ATOM      2  O   UNL     1     114.102 127.282 140.758  0.00  0.00    +0.000 OA
ATOM      3  C   UNL     1     112.852 130.083 138.744  0.00  0.00    +0.000 A 
ATOM      4  C   UNL     1     112.635 129.209 138.221  0.00  0.00    +0.000 A 
ATOM      5  C   UNL     1     113.341 130.023 139.663  0.00  0.00    +0.000 A 
ATOM      6  C   UNL     1     112.908 128.288 138.622  0.00  0.00    +0.000 A 
ATOM      7  C   UNL     1     113.377 128.230 139.504  0.00  0.00    +0.000 A 
ATOM      8  C   UNL     1     113.605 129.091 140.045  0.00  0.00    +0.000 A 
ATOM      9  C   UNL     1     113.633 127.338 139.877  0.00  0.00    +0.000 A 
ATOM     10  C   UNL     1     112.953 126.561 138.487  0.00  0.00    +0.000 A 
ATOM     11  C   UNL     1     113.421 126.504 139.368  0.00  0.00    +0.000 A 
ENDROOT
BRANCH  10  13
ATOM     12  O   UNL     1     112.105 123.222 136.453  0.00  0.00    +0.000 OA
ATOM     13  C   UNL     1     112.741 125.726 137.978  0.00  0.00    +0.000 A 
ATOM     14  C   UNL     1     111.810 125.361 137.983  0.00  0.00    +0.000 A 
ATOM     15  C   UNL     1     113.460 125.257 137.466  0.00  0.00    +0.000 A 
ATOM     16  C   UNL     1     111.599 124.526 137.474  0.00  0.00    +0.000 A 
ATOM     17  C   UNL     1     113.248 124.423 136.958  0.00  0.00    +0.000 A 
ATOM     18  C   UNL     1     112.317 124.057 136.962  0.00  0.00    +0.000 A 
ENDBRANCH  10  13
BRANCH   3  19
ATOM     19  O   UNL     1     112.595 130.973 138.368  0.00  0.00    +0.000 OA
BRANCH  19  28
ATOM     20  O   UNL     1     111.077 131.069 139.197  0.00  0.00    +0.000 OA
ATOM     21  O   UNL     1     109.903 132.562 136.875  0.00  0.00    +0.000 OA
ATOM     22  O   UNL     1     108.776 132.160 138.478  0.00  0.00    +0.000 OA
ATOM     23  O   UNL     1     111.812 131.968 136.820  0.00  0.00    +0.000 OA
ATOM     24  C   UNL     1     110.294 132.064 137.649  0.00  0.00    +0.000 C 
ATOM     25  C   UNL     1     109.731 131.863 138.451  0.00  0.00    +0.000 C 
ATOM     26  C   UNL     1     111.249 131.767 137.622  0.00  0.00    +0.000 C 
ATOM     27  C   UNL     1     110.122 131.366 139.225  0.00  0.00    +0.000 C 
ATOM     28  C   UNL     1     111.640 131.270 138.396  0.00  0.00    +0.000 C 
BRANCH  27  30
ATOM     29  O   UNL     1     109.932 131.297 140.945  0.00  0.00    +0.000 OA
ATOM     30  C   UNL     1     109.559 131.165 140.027  0.00  0.00    +0.000 C 
ENDBRANCH  27  30
ENDBRANCH  19  28
ENDBRANCH   3  19
TORSDOF 4
ENDMDL
MODEL 8
REMARK VINA RESULT:      -8.3      1.917      2.816
REMARK  Name = 44257571
REMARK  4 active torsions:
REMARK  status: ('A' for Active; 'I' for Inactive)
REMARK    1  A    between atoms: O_2  and  C_14
REMARK    2  A    between atoms: O_2  and  C_16
REMARK    3  A    between atoms: C_13  and  C_15
REMARK    4  A    between atoms: C_23  and  C_25
REMARK                            x       y       z     vdW  Elec       q    Type
REMARK                         _______ _______ _______ _____ _____    ______ ____
ROOT
ATOM      1  O   UNL     1     111.728 127.790 137.840  0.00  0.00    +0.000 OA
ATOM      2  O   UNL     1     112.216 128.535 140.705  0.00  0.00    +0.000 OA
ATOM      3  C   UNL     1     109.611 129.423 138.277  0.00  0.00    +0.000 A 
ATOM      4  C   UNL     1     110.274 128.781 137.794  0.00  0.00    +0.000 A 
ATOM      5  C   UNL     1     109.781 129.681 139.272  0.00  0.00    +0.000 A 
ATOM      6  C   UNL     1     111.096 128.406 138.311  0.00  0.00    +0.000 A 
ATOM      7  C   UNL     1     111.259 128.654 139.266  0.00  0.00    +0.000 A 
ATOM      8  C   UNL     1     110.610 129.295 139.770  0.00  0.00    +0.000 A 
ATOM      9  C   UNL     1     112.054 128.287 139.750  0.00  0.00    +0.000 A 
ATOM     10  C   UNL     1     112.523 127.423 138.324  0.00  0.00    +0.000 A 
ATOM     11  C   UNL     1     112.685 127.671 139.279  0.00  0.00    +0.000 A 
ENDROOT
BRANCH  10  13
ATOM     12  O   UNL     1     115.050 124.959 136.441  0.00  0.00    +0.000 OA
ATOM     13  C   UNL     1     113.155 126.807 137.853  0.00  0.00    +0.000 A 
ATOM     14  C   UNL     1     113.390 126.968 136.895  0.00  0.00    +0.000 A 
ATOM     15  C   UNL     1     113.551 126.029 138.342  0.00  0.00    +0.000 A 
ATOM     16  C   UNL     1     114.021 126.352 136.425  0.00  0.00    +0.000 A 
ATOM     17  C   UNL     1     114.183 125.413 137.871  0.00  0.00    +0.000 A 
ATOM     18  C   UNL     1     114.418 125.575 136.912  0.00  0.00    +0.000 A 
ENDBRANCH  10  13
BRANCH   3  19
ATOM     19  O   UNL     1     108.818 129.789 137.790  0.00  0.00    +0.000 OA
BRANCH  19  28
ATOM     20  O   UNL     1     109.538 131.314 137.397  0.00  0.00    +0.000 OA
ATOM     21  O   UNL     1     108.045 131.348 134.795  0.00  0.00    +0.000 OA
ATOM     22  O   UNL     1     109.262 132.862 135.269  0.00  0.00    +0.000 OA
ATOM     23  O   UNL     1     107.823 129.811 136.056  0.00  0.00    +0.000 OA
ATOM     24  C   UNL     1     108.542 131.337 135.663  0.00  0.00    +0.000 C 
ATOM     25  C   UNL     1     109.151 132.094 135.900  0.00  0.00    +0.000 C 
ATOM     26  C   UNL     1     108.431 130.568 136.293  0.00  0.00    +0.000 C 
ATOM     27  C   UNL     1     109.649 132.083 136.767  0.00  0.00    +0.000 C 
ATOM     28  C   UNL     1     108.929 130.557 137.160  0.00  0.00    +0.000 C 
BRANCH  27  30
ATOM     29  O   UNL     1     110.487 133.016 137.961  0.00  0.00    +0.000 OA
ATOM     30  C   UNL     1     110.257 132.840 137.004  0.00  0.00    +0.000 C 
ENDBRANCH  27  30
ENDBRANCH  19  28
ENDBRANCH   3  19
TORSDOF 4
ENDMDL
MODEL 9
REMARK VINA RESULT:      -8.3      6.566      9.026
REMARK  Name = 44257571
REMARK  4 active torsions:
REMARK  status: ('A' for Active; 'I' for Inactive)
REMARK    1  A    between atoms: O_2  and  C_14
REMARK    2  A    between atoms: O_2  and  C_16
REMARK    3  A    between atoms: C_13  and  C_15
REMARK    4  A    between atoms: C_23  and  C_25
REMARK                            x       y       z     vdW  Elec       q    Type
REMARK                         _______ _______ _______ _____ _____    ______ ____
ROOT
ATOM      1  O   UNL     1     111.797 130.894 145.070  0.00  0.00    +0.000 OA
ATOM      2  O   UNL     1     111.723 132.898 142.839  0.00  0.00    +0.000 OA
ATOM      3  C   UNL     1     111.236 129.263 142.980  0.00  0.00    +0.000 A 
ATOM      4  C   UNL     1     111.436 129.583 143.952  0.00  0.00    +0.000 A 
ATOM      5  C   UNL     1     111.211 129.960 142.206  0.00  0.00    +0.000 A 
ATOM      6  C   UNL     1     111.606 130.594 144.135  0.00  0.00    +0.000 A 
ATOM      7  C   UNL     1     111.582 131.263 143.392  0.00  0.00    +0.000 A 
ATOM      8  C   UNL     1     111.384 130.965 142.413  0.00  0.00    +0.000 A 
ATOM      9  C   UNL     1     111.748 132.230 143.583  0.00  0.00    +0.000 A 
ATOM     10  C   UNL     1     111.963 131.861 145.261  0.00  0.00    +0.000 A 
ATOM     11  C   UNL     1     111.938 132.529 144.518  0.00  0.00    +0.000 A 
ENDROOT
BRANCH  10  13
ATOM     12  O   UNL     1     112.724 133.060 149.001  0.00  0.00    +0.000 OA
ATOM     13  C   UNL     1     112.153 132.161 146.196  0.00  0.00    +0.000 A 
ATOM     14  C   UNL     1     112.990 131.863 146.657  0.00  0.00    +0.000 A 
ATOM     15  C   UNL     1     111.507 132.758 146.671  0.00  0.00    +0.000 A 
ATOM     16  C   UNL     1     113.179 132.163 147.591  0.00  0.00    +0.000 A 
ATOM     17  C   UNL     1     111.697 133.058 147.606  0.00  0.00    +0.000 A 
ATOM     18  C   UNL     1     112.534 132.761 148.066  0.00  0.00    +0.000 A 
ENDBRANCH  10  13
BRANCH   3  19
ATOM     19  O   UNL     1     111.071 128.295 142.793  0.00  0.00    +0.000 OA
BRANCH  19  28
ATOM     20  O   UNL     1     112.521 128.085 141.869  0.00  0.00    +0.000 OA
ATOM     21  O   UNL     1     111.174 125.956 140.240  0.00  0.00    +0.000 OA
ATOM     22  O   UNL     1     113.072 126.455 139.859  0.00  0.00    +0.000 OA
ATOM     23  O   UNL     1     110.173 126.876 141.707  0.00  0.00    +0.000 OA
ATOM     24  C   UNL     1     111.623 126.666 140.783  0.00  0.00    +0.000 C 
ATOM     25  C   UNL     1     112.572 126.915 140.592  0.00  0.00    +0.000 C 
ATOM     26  C   UNL     1     111.122 127.126 141.516  0.00  0.00    +0.000 C 
ATOM     27  C   UNL     1     113.021 127.625 141.135  0.00  0.00    +0.000 C 
ATOM     28  C   UNL     1     111.571 127.835 142.059  0.00  0.00    +0.000 C 
BRANCH  27  30
ATOM     29  O   UNL     1     114.249 128.834 140.969  0.00  0.00    +0.000 OA
ATOM     30  C   UNL     1     113.970 127.874 140.945  0.00  0.00    +0.000 C 
ENDBRANCH  27  30
ENDBRANCH  19  28
ENDBRANCH   3  19
TORSDOF 4
ENDMDL
MODEL 10
REMARK VINA RESULT:      -8.2      6.796      8.879
REMARK  Name = 44257571
REMARK  4 active torsions:
REMARK  status: ('A' for Active; 'I' for Inactive)
REMARK    1  A    between atoms: O_2  and  C_14
REMARK    2  A    between atoms: O_2  and  C_16
REMARK    3  A    between atoms: C_13  and  C_15
REMARK    4  A    between atoms: C_23  and  C_25
REMARK                            x       y       z     vdW  Elec       q    Type
REMARK                         _______ _______ _______ _____ _____    ______ ____
ROOT
ATOM      1  O   UNL     1     111.266 131.063 145.253  0.00  0.00    +0.000 OA
ATOM      2  O   UNL     1     112.639 132.312 142.897  0.00  0.00    +0.000 OA
ATOM      3  C   UNL     1     110.323 129.490 143.260  0.00  0.00    +0.000 A 
ATOM      4  C   UNL     1     110.483 129.879 144.213  0.00  0.00    +0.000 A 
ATOM      5  C   UNL     1     110.800 129.924 142.442  0.00  0.00    +0.000 A 
ATOM      6  C   UNL     1     111.117 130.695 144.335  0.00  0.00    +0.000 A 
ATOM      7  C   UNL     1     111.575 131.112 143.550  0.00  0.00    +0.000 A 
ATOM      8  C   UNL     1     111.430 130.740 142.588  0.00  0.00    +0.000 A 
ATOM      9  C   UNL     1     112.181 131.896 143.682  0.00  0.00    +0.000 A 
ATOM     10  C   UNL     1     111.872 131.847 145.386  0.00  0.00    +0.000 A 
ATOM     11  C   UNL     1     112.330 132.263 144.600  0.00  0.00    +0.000 A 
ENDROOT
BRANCH  10  13
ATOM     12  O   UNL     1     112.468 133.319 149.058  0.00  0.00    +0.000 OA
ATOM     13  C   UNL     1     112.021 132.215 146.304  0.00  0.00    +0.000 A 
ATOM     14  C   UNL     1     111.355 132.844 146.705  0.00  0.00    +0.000 A 
ATOM     15  C   UNL     1     112.837 131.954 146.820  0.00  0.00    +0.000 A 
ATOM     16  C   UNL     1     111.504 133.211 147.623  0.00  0.00    +0.000 A 
ATOM     17  C   UNL     1     112.986 132.322 147.739  0.00  0.00    +0.000 A 
ATOM     18  C   UNL     1     112.319 132.951 148.140  0.00  0.00    +0.000 A 
ENDBRANCH  10  13
BRANCH   3  19
ATOM     19  O   UNL     1     109.716 128.705 143.131  0.00  0.00    +0.000 OA
BRANCH  19  28
ATOM     20  O   UNL     1     108.375 129.724 142.724  0.00  0.00    +0.000 OA
ATOM     21  O   UNL     1     107.041 127.416 141.347  0.00  0.00    +0.000 OA
ATOM     22  O   UNL     1     106.145 129.203 141.399  0.00  0.00    +0.000 OA
ATOM     23  O   UNL     1     108.826 127.167 142.214  0.00  0.00    +0.000 OA
ATOM     24  C   UNL     1     107.486 128.185 141.806  0.00  0.00    +0.000 C 
ATOM     25  C   UNL     1     107.038 129.079 141.832  0.00  0.00    +0.000 C 
ATOM     26  C   UNL     1     108.378 128.061 142.239  0.00  0.00    +0.000 C 
ATOM     27  C   UNL     1     107.482 129.848 142.291  0.00  0.00    +0.000 C 
ATOM     28  C   UNL     1     108.823 128.830 142.698  0.00  0.00    +0.000 C 
BRANCH  27  30
ATOM     29  O   UNL     1     107.582 131.573 142.410  0.00  0.00    +0.000 OA
ATOM     30  C   UNL     1     107.034 130.742 142.317  0.00  0.00    +0.000 C 
ENDBRANCH  27  30
ENDBRANCH  19  28
ENDBRANCH   3  19
TORSDOF 4
ENDMDL
