MODEL 1
REMARK VINA RESULT:      -8.5      0.000      0.000
REMARK  Name = 131750827
REMARK  10 active torsions:
REMARK  status: ('A' for Active; 'I' for Inactive)
REMARK    1  A    between atoms: O_1  and  C_15
REMARK    2  A    between atoms: O_1  and  C_18
REMARK    3  A    between atoms: O_5  and  C_20
REMARK    4  A    between atoms: O_5  and  C_26
REMARK    5  A    between atoms: C_21  and  C_24
REMARK    6  A    between atoms: C_23  and  C_25
REMARK    7  A    between atoms: C_27  and  C_30
REMARK    8  A    between atoms: C_30  and  C_33
REMARK    9  A    between atoms: C_33  and  C_34
REMARK   10  A    between atoms: C_34  and  C_35
REMARK                            x       y       z     vdW  Elec       q    Type
REMARK                         _______ _______ _______ _____ _____    ______ ____
ROOT
ATOM      1  O   UNL     1     113.113 129.391 137.241  0.00  0.00    +0.000 OA
ENDROOT
BRANCH   1   8
ATOM      2  O   UNL     1     112.110 130.384 137.019  0.00  0.00    +0.000 OA
ATOM      3  O   UNL     1     112.072 130.887 139.442  0.00  0.00    +0.000 OA
ATOM      4  O   UNL     1     111.082 131.712 138.413  0.00  0.00    +0.000 OA
ATOM      5  C   UNL     1     112.593 130.139 138.342  0.00  0.00    +0.000 C 
ATOM      6  C   UNL     1     112.085 130.719 138.635  0.00  0.00    +0.000 C 
ATOM      7  C   UNL     1     111.590 131.132 138.120  0.00  0.00    +0.000 C 
ATOM      8  C   UNL     1     112.606 129.971 137.535  0.00  0.00    +0.000 C 
ATOM      9  C   UNL     1     111.602 130.964 137.313  0.00  0.00    +0.000 C 
BRANCH   9  11
ATOM     10  O   UNL     1     110.677 130.967 136.224  0.00  0.00    +0.000 OA
ATOM     11  C   UNL     1     111.107 131.376 136.797  0.00  0.00    +0.000 C 
ENDBRANCH   9  11
BRANCH   5  12
ATOM     12  O   UNL     1     113.088 129.726 138.857  0.00  0.00    +0.000 OA
BRANCH  12  16
ATOM     13  O   UNL     1     112.057 128.733 139.193  0.00  0.00    +0.000 OA
ATOM     14  O   UNL     1     113.923 128.904 140.216  0.00  0.00    +0.000 OA
ATOM     15  O   UNL     1     112.844 127.607 140.827  0.00  0.00    +0.000 OA
ATOM     16  C   UNL     1     112.790 129.096 139.298  0.00  0.00    +0.000 C 
ATOM     17  C   UNL     1     113.175 128.718 139.924  0.00  0.00    +0.000 C 
ATOM     18  C   UNL     1     112.678 128.121 140.204  0.00  0.00    +0.000 C 
ATOM     19  C   UNL     1     111.988 128.131 139.753  0.00  0.00    +0.000 C 
BRANCH  19  21
ATOM     20  O   UNL     1     110.859 127.454 139.198  0.00  0.00    +0.000 OA
ATOM     21  C   UNL     1     111.342 127.627 139.845  0.00  0.00    +0.000 C 
ENDBRANCH  19  21
ENDBRANCH  12  16
ENDBRANCH   5  12
ENDBRANCH   1   8
BRANCH   1  24
ATOM     22  O   UNL     1     114.499 128.655 134.853  0.00  0.00    +0.000 OA
ATOM     23  O   UNL     1     114.928 131.229 136.019  0.00  0.00    +0.000 OA
ATOM     24  C   UNL     1     113.647 129.575 136.639  0.00  0.00    +0.000 A 
ATOM     25  C   UNL     1     113.806 129.023 136.047  0.00  0.00    +0.000 A 
ATOM     26  C   UNL     1     114.020 130.309 136.630  0.00  0.00    +0.000 A 
ATOM     27  C   UNL     1     114.339 129.206 135.445  0.00  0.00    +0.000 A 
ATOM     28  C   UNL     1     114.554 130.493 136.028  0.00  0.00    +0.000 A 
ATOM     29  C   UNL     1     114.714 129.942 135.436  0.00  0.00    +0.000 A 
BRANCH  25  31
ATOM     30  O   UNL     1     112.679 128.204 135.731  0.00  0.00    +0.000 OA
ATOM     31  C   UNL     1     113.432 128.288 136.056  0.00  0.00    +0.000 C 
BRANCH  31  32
ATOM     32  C   UNL     1     113.811 127.635 136.391  0.00  0.00    +0.000 C 
BRANCH  32  33
ATOM     33  C   UNL     1     113.440 126.899 136.390  0.00  0.00    +0.000 C 
BRANCH  33  35
ATOM     34  O   UNL     1     114.982 124.272 137.660  0.00  0.00    +0.000 OA
ATOM     35  C   UNL     1     113.826 126.242 136.707  0.00  0.00    +0.000 A 
ATOM     36  C   UNL     1     113.741 126.061 137.508  0.00  0.00    +0.000 A 
ATOM     37  C   UNL     1     114.296 125.766 136.224  0.00  0.00    +0.000 A 
ATOM     38  C   UNL     1     114.127 125.404 137.825  0.00  0.00    +0.000 A 
ATOM     39  C   UNL     1     114.681 125.109 136.542  0.00  0.00    +0.000 A 
ATOM     40  C   UNL     1     114.597 124.928 137.342  0.00  0.00    +0.000 A 
ENDBRANCH  33  35
ENDBRANCH  32  33
ENDBRANCH  31  32
ENDBRANCH  25  31
ENDBRANCH   1  24
TORSDOF 10
ENDMDL
MODEL 2
REMARK VINA RESULT:      -8.5      2.026      3.701
REMARK  Name = 131750827
REMARK  10 active torsions:
REMARK  status: ('A' for Active; 'I' for Inactive)
REMARK    1  A    between atoms: O_1  and  C_15
REMARK    2  A    between atoms: O_1  and  C_18
REMARK    3  A    between atoms: O_5  and  C_20
REMARK    4  A    between atoms: O_5  and  C_26
REMARK    5  A    between atoms: C_21  and  C_24
REMARK    6  A    between atoms: C_23  and  C_25
REMARK    7  A    between atoms: C_27  and  C_30
REMARK    8  A    between atoms: C_30  and  C_33
REMARK    9  A    between atoms: C_33  and  C_34
REMARK   10  A    between atoms: C_34  and  C_35
REMARK                            x       y       z     vdW  Elec       q    Type
REMARK                         _______ _______ _______ _____ _____    ______ ____
ROOT
ATOM      1  O   UNL     1     112.381 128.001 137.998  0.00  0.00    +0.000 OA
ENDROOT
BRANCH   1   8
ATOM      2  O   UNL     1     113.125 129.153 138.401  0.00  0.00    +0.000 OA
ATOM      3  O   UNL     1     111.025 130.269 139.086  0.00  0.00    +0.000 OA
ATOM      4  O   UNL     1     112.469 131.048 139.261  0.00  0.00    +0.000 OA
ATOM      5  C   UNL     1     111.703 129.135 138.542  0.00  0.00    +0.000 C 
ATOM      6  C   UNL     1     111.725 129.897 138.858  0.00  0.00    +0.000 C 
ATOM      7  C   UNL     1     112.446 130.287 138.945  0.00  0.00    +0.000 C 
ATOM      8  C   UNL     1     112.403 128.763 138.314  0.00  0.00    +0.000 C 
ATOM      9  C   UNL     1     113.146 129.914 138.717  0.00  0.00    +0.000 C 
BRANCH   9  11
ATOM     10  O   UNL     1     114.357 130.417 138.148  0.00  0.00    +0.000 OA
ATOM     11  C   UNL     1     113.868 130.304 138.804  0.00  0.00    +0.000 C 
ENDBRANCH   9  11
BRANCH   5  12
ATOM     12  O   UNL     1     110.981 128.746 138.455  0.00  0.00    +0.000 OA
BRANCH  12  16
ATOM     13  O   UNL     1     110.690 129.404 137.173  0.00  0.00    +0.000 OA
ATOM     14  O   UNL     1     109.332 128.097 138.173  0.00  0.00    +0.000 OA
ATOM     15  O   UNL     1     108.728 128.768 136.622  0.00  0.00    +0.000 OA
ATOM     16  C   UNL     1     110.499 128.911 137.806  0.00  0.00    +0.000 C 
ATOM     17  C   UNL     1     109.740 128.613 137.677  0.00  0.00    +0.000 C 
ATOM     18  C   UNL     1     109.463 128.922 136.964  0.00  0.00    +0.000 C 
ATOM     19  C   UNL     1     110.050 129.411 136.652  0.00  0.00    +0.000 C 
BRANCH  19  21
ATOM     20  O   UNL     1     110.669 130.232 135.660  0.00  0.00    +0.000 OA
ATOM     21  C   UNL     1     110.005 129.832 135.945  0.00  0.00    +0.000 C 
ENDBRANCH  19  21
ENDBRANCH  12  16
ENDBRANCH   5  12
ENDBRANCH   1   8
BRANCH   1  24
ATOM     22  O   UNL     1     113.930 125.617 137.704  0.00  0.00    +0.000 OA
ATOM     23  O   UNL     1     113.601 126.798 140.286  0.00  0.00    +0.000 OA
ATOM     24  C   UNL     1     112.843 127.403 138.330  0.00  0.00    +0.000 A 
ATOM     25  C   UNL     1     113.155 126.809 137.850  0.00  0.00    +0.000 A 
ATOM     26  C   UNL     1     112.991 127.400 139.141  0.00  0.00    +0.000 A 
ATOM     27  C   UNL     1     113.617 126.212 138.183  0.00  0.00    +0.000 A 
ATOM     28  C   UNL     1     113.452 126.802 139.473  0.00  0.00    +0.000 A 
ATOM     29  C   UNL     1     113.766 126.208 138.995  0.00  0.00    +0.000 A 
BRANCH  25  31
ATOM     30  O   UNL     1     113.516 127.214 136.529  0.00  0.00    +0.000 OA
ATOM     31  C   UNL     1     113.007 126.813 137.040  0.00  0.00    +0.000 C 
BRANCH  31  32
ATOM     32  C   UNL     1     112.350 126.415 136.738  0.00  0.00    +0.000 C 
BRANCH  32  33
ATOM     33  C   UNL     1     112.276 126.300 135.924  0.00  0.00    +0.000 C 
BRANCH  33  35
ATOM     34  O   UNL     1     109.330 125.597 134.614  0.00  0.00    +0.000 OA
ATOM     35  C   UNL     1     111.540 126.124 135.597  0.00  0.00    +0.000 A 
ATOM     36  C   UNL     1     111.259 126.560 134.955  0.00  0.00    +0.000 A 
ATOM     37  C   UNL     1     111.084 125.512 135.912  0.00  0.00    +0.000 A 
ATOM     38  C   UNL     1     110.522 126.384 134.628  0.00  0.00    +0.000 A 
ATOM     39  C   UNL     1     110.347 125.337 135.584  0.00  0.00    +0.000 A 
ATOM     40  C   UNL     1     110.066 125.772 134.942  0.00  0.00    +0.000 A 
ENDBRANCH  33  35
ENDBRANCH  32  33
ENDBRANCH  31  32
ENDBRANCH  25  31
ENDBRANCH   1  24
TORSDOF 10
ENDMDL
MODEL 3
REMARK VINA RESULT:      -8.4      1.599      2.435
REMARK  Name = 131750827
REMARK  10 active torsions:
REMARK  status: ('A' for Active; 'I' for Inactive)
REMARK    1  A    between atoms: O_1  and  C_15
REMARK    2  A    between atoms: O_1  and  C_18
REMARK    3  A    between atoms: O_5  and  C_20
REMARK    4  A    between atoms: O_5  and  C_26
REMARK    5  A    between atoms: C_21  and  C_24
REMARK    6  A    between atoms: C_23  and  C_25
REMARK    7  A    between atoms: C_27  and  C_30
REMARK    8  A    between atoms: C_30  and  C_33
REMARK    9  A    between atoms: C_33  and  C_34
REMARK   10  A    between atoms: C_34  and  C_35
REMARK                            x       y       z     vdW  Elec       q    Type
REMARK                         _______ _______ _______ _____ _____    ______ ____
ROOT
ATOM      1  O   UNL     1     111.523 128.474 137.136  0.00  0.00    +0.000 OA
ENDROOT
BRANCH   1   8
ATOM      2  O   UNL     1     111.256 129.711 137.799  0.00  0.00    +0.000 OA
ATOM      3  O   UNL     1     109.338 128.672 138.968  0.00  0.00    +0.000 OA
ATOM      4  O   UNL     1     109.711 130.255 139.240  0.00  0.00    +0.000 OA
ATOM      5  C   UNL     1     110.431 128.572 138.052  0.00  0.00    +0.000 C 
ATOM      6  C   UNL     1     109.978 129.018 138.578  0.00  0.00    +0.000 C 
ATOM      7  C   UNL     1     110.163 129.810 138.715  0.00  0.00    +0.000 C 
ATOM      8  C   UNL     1     111.070 128.918 137.663  0.00  0.00    +0.000 C 
ATOM      9  C   UNL     1     110.803 130.156 138.325  0.00  0.00    +0.000 C 
BRANCH   9  11
ATOM     10  O   UNL     1     111.773 131.170 138.594  0.00  0.00    +0.000 OA
ATOM     11  C   UNL     1     110.989 130.948 138.461  0.00  0.00    +0.000 C 
ENDBRANCH   9  11
BRANCH   5  12
ATOM     12  O   UNL     1     110.245 127.780 137.916  0.00  0.00    +0.000 OA
BRANCH  12  16
ATOM     13  O   UNL     1     111.019 127.316 139.076  0.00  0.00    +0.000 OA
ATOM     14  O   UNL     1     109.821 126.037 137.857  0.00  0.00    +0.000 OA
ATOM     15  O   UNL     1     110.664 125.215 139.212  0.00  0.00    +0.000 OA
ATOM     16  C   UNL     1     110.511 127.199 138.437  0.00  0.00    +0.000 C 
ATOM     17  C   UNL     1     110.316 126.397 138.410  0.00  0.00    +0.000 C 
ATOM     18  C   UNL     1     110.704 126.019 139.033  0.00  0.00    +0.000 C 
ATOM     19  C   UNL     1     111.138 126.587 139.445  0.00  0.00    +0.000 C 
BRANCH  19  21
ATOM     20  O   UNL     1     112.283 126.909 140.237  0.00  0.00    +0.000 OA
ATOM     21  C   UNL     1     111.608 126.451 140.108  0.00  0.00    +0.000 C 
ENDBRANCH  19  21
ENDBRANCH  12  16
ENDBRANCH   5  12
ENDBRANCH   1   8
BRANCH   1  24
ATOM     22  O   UNL     1     113.224 128.758 134.857  0.00  0.00    +0.000 OA
ATOM     23  O   UNL     1     110.568 129.812 134.799  0.00  0.00    +0.000 OA
ATOM     24  C   UNL     1     111.648 128.744 136.367  0.00  0.00    +0.000 A 
ATOM     25  C   UNL     1     112.374 128.615 135.997  0.00  0.00    +0.000 A 
ATOM     26  C   UNL     1     111.046 129.143 135.968  0.00  0.00    +0.000 A 
ATOM     27  C   UNL     1     112.498 128.886 135.228  0.00  0.00    +0.000 A 
ATOM     28  C   UNL     1     111.170 129.413 135.199  0.00  0.00    +0.000 A 
ATOM     29  C   UNL     1     111.896 129.285 134.828  0.00  0.00    +0.000 A 
BRANCH  25  31
ATOM     30  O   UNL     1     113.520 128.639 136.849  0.00  0.00    +0.000 OA
ATOM     31  C   UNL     1     112.975 128.217 136.396  0.00  0.00    +0.000 C 
BRANCH  31  32
ATOM     32  C   UNL     1     113.033 127.395 136.342  0.00  0.00    +0.000 C 
BRANCH  32  33
ATOM     33  C   UNL     1     113.708 127.011 136.622  0.00  0.00    +0.000 C 
BRANCH  33  35
ATOM     34  O   UNL     1     113.629 123.769 137.232  0.00  0.00    +0.000 OA
ATOM     35  C   UNL     1     113.688 126.200 136.774  0.00  0.00    +0.000 A 
ATOM     36  C   UNL     1     114.113 125.890 137.410  0.00  0.00    +0.000 A 
ATOM     37  C   UNL     1     113.243 125.700 136.291  0.00  0.00    +0.000 A 
ATOM     38  C   UNL     1     114.093 125.079 137.562  0.00  0.00    +0.000 A 
ATOM     39  C   UNL     1     113.224 124.890 136.444  0.00  0.00    +0.000 A 
ATOM     40  C   UNL     1     113.649 124.579 137.079  0.00  0.00    +0.000 A 
ENDBRANCH  33  35
ENDBRANCH  32  33
ENDBRANCH  31  32
ENDBRANCH  25  31
ENDBRANCH   1  24
TORSDOF 10
ENDMDL
MODEL 4
REMARK VINA RESULT:      -8.3      1.568      2.391
REMARK  Name = 131750827
REMARK  10 active torsions:
REMARK  status: ('A' for Active; 'I' for Inactive)
REMARK    1  A    between atoms: O_1  and  C_15
REMARK    2  A    between atoms: O_1  and  C_18
REMARK    3  A    between atoms: O_5  and  C_20
REMARK    4  A    between atoms: O_5  and  C_26
REMARK    5  A    between atoms: C_21  and  C_24
REMARK    6  A    between atoms: C_23  and  C_25
REMARK    7  A    between atoms: C_27  and  C_30
REMARK    8  A    between atoms: C_30  and  C_33
REMARK    9  A    between atoms: C_33  and  C_34
REMARK   10  A    between atoms: C_34  and  C_35
REMARK                            x       y       z     vdW  Elec       q    Type
REMARK                         _______ _______ _______ _____ _____    ______ ____
ROOT
ATOM      1  O   UNL     1     112.192 128.649 137.452  0.00  0.00    +0.000 OA
ENDROOT
BRANCH   1   8
ATOM      2  O   UNL     1     113.032 129.761 137.767  0.00  0.00    +0.000 OA
ATOM      3  O   UNL     1     112.232 129.704 140.108  0.00  0.00    +0.000 OA
ATOM      4  O   UNL     1     113.339 130.834 139.642  0.00  0.00    +0.000 OA
ATOM      5  C   UNL     1     112.212 129.176 138.780  0.00  0.00    +0.000 C 
ATOM      6  C   UNL     1     112.499 129.723 139.328  0.00  0.00    +0.000 C 
ATOM      7  C   UNL     1     113.052 130.288 139.095  0.00  0.00    +0.000 C 
ATOM      8  C   UNL     1     112.478 129.195 138.000  0.00  0.00    +0.000 C 
ATOM      9  C   UNL     1     113.319 130.307 138.315  0.00  0.00    +0.000 C 
BRANCH   9  11
ATOM     10  O   UNL     1     114.486 130.662 137.570  0.00  0.00    +0.000 OA
ATOM     11  C   UNL     1     113.872 130.873 138.081  0.00  0.00    +0.000 C 
ENDBRANCH   9  11
BRANCH   5  12
ATOM     12  O   UNL     1     111.659 128.611 139.013  0.00  0.00    +0.000 OA
BRANCH  12  16
ATOM     13  O   UNL     1     112.691 127.703 139.534  0.00  0.00    +0.000 OA
ATOM     14  O   UNL     1     110.597 127.301 139.628  0.00  0.00    +0.000 OA
ATOM     15  O   UNL     1     111.641 126.026 140.338  0.00  0.00    +0.000 OA
ATOM     16  C   UNL     1     111.909 127.917 139.382  0.00  0.00    +0.000 C 
ATOM     17  C   UNL     1     111.420 127.315 139.665  0.00  0.00    +0.000 C 
ATOM     18  C   UNL     1     111.901 126.728 139.992  0.00  0.00    +0.000 C 
ATOM     19  C   UNL     1     112.686 126.968 139.911  0.00  0.00    +0.000 C 
BRANCH  19  21
ATOM     20  O   UNL     1     114.047 126.576 139.720  0.00  0.00    +0.000 OA
ATOM     21  C   UNL     1     113.350 126.548 140.162  0.00  0.00    +0.000 C 
ENDBRANCH  19  21
ENDBRANCH  12  16
ENDBRANCH   5  12
ENDBRANCH   1   8
BRANCH   1  24
ATOM     22  O   UNL     1     111.789 128.357 134.638  0.00  0.00    +0.000 OA
ATOM     23  O   UNL     1     110.542 130.510 136.044  0.00  0.00    +0.000 OA
ATOM     24  C   UNL     1     111.850 128.911 136.748  0.00  0.00    +0.000 A 
ATOM     25  C   UNL     1     111.991 128.503 136.045  0.00  0.00    +0.000 A 
ATOM     26  C   UNL     1     111.367 129.579 136.748  0.00  0.00    +0.000 A 
ATOM     27  C   UNL     1     111.649 128.764 135.341  0.00  0.00    +0.000 A 
ATOM     28  C   UNL     1     111.025 129.840 136.045  0.00  0.00    +0.000 A 
ATOM     29  C   UNL     1     111.166 129.434 135.341  0.00  0.00    +0.000 A 
BRANCH  25  31
ATOM     30  O   UNL     1     113.283 127.910 135.904  0.00  0.00    +0.000 OA
ATOM     31  C   UNL     1     112.474 127.834 136.045  0.00  0.00    +0.000 C 
BRANCH  31  32
ATOM     32  C   UNL     1     112.148 127.089 136.186  0.00  0.00    +0.000 C 
BRANCH  32  33
ATOM     33  C   UNL     1     112.599 126.411 136.054  0.00  0.00    +0.000 C 
BRANCH  33  35
ATOM     34  O   UNL     1     111.682 123.532 137.380  0.00  0.00    +0.000 OA
ATOM     35  C   UNL     1     112.369 125.692 136.385  0.00  0.00    +0.000 A 
ATOM     36  C   UNL     1     112.934 125.197 136.729  0.00  0.00    +0.000 A 
ATOM     37  C   UNL     1     111.576 125.466 136.374  0.00  0.00    +0.000 A 
ATOM     38  C   UNL     1     112.704 124.477 137.060  0.00  0.00    +0.000 A 
ATOM     39  C   UNL     1     111.347 124.746 136.705  0.00  0.00    +0.000 A 
ATOM     40  C   UNL     1     111.911 124.252 137.048  0.00  0.00    +0.000 A 
ENDBRANCH  33  35
ENDBRANCH  32  33
ENDBRANCH  31  32
ENDBRANCH  25  31
ENDBRANCH   1  24
TORSDOF 10
ENDMDL
MODEL 5
REMARK VINA RESULT:      -8.3      1.184      3.941
REMARK  Name = 131750827
REMARK  10 active torsions:
REMARK  status: ('A' for Active; 'I' for Inactive)
REMARK    1  A    between atoms: O_1  and  C_15
REMARK    2  A    between atoms: O_1  and  C_18
REMARK    3  A    between atoms: O_5  and  C_20
REMARK    4  A    between atoms: O_5  and  C_26
REMARK    5  A    between atoms: C_21  and  C_24
REMARK    6  A    between atoms: C_23  and  C_25
REMARK    7  A    between atoms: C_27  and  C_30
REMARK    8  A    between atoms: C_30  and  C_33
REMARK    9  A    between atoms: C_33  and  C_34
REMARK   10  A    between atoms: C_34  and  C_35
REMARK                            x       y       z     vdW  Elec       q    Type
REMARK                         _______ _______ _______ _____ _____    ______ ____
ROOT
ATOM      1  O   UNL     1     113.142 127.124 137.927  0.00  0.00    +0.000 OA
ENDROOT
BRANCH   1   8
ATOM      2  O   UNL     1     112.026 126.304 138.282  0.00  0.00    +0.000 OA
ATOM      3  O   UNL     1     112.056 127.253 140.568  0.00  0.00    +0.000 OA
ATOM      4  O   UNL     1     110.932 126.117 140.161  0.00  0.00    +0.000 OA
ATOM      5  C   UNL     1     112.599 127.189 139.248  0.00  0.00    +0.000 C 
ATOM      6  C   UNL     1     112.046 126.936 139.806  0.00  0.00    +0.000 C 
ATOM      7  C   UNL     1     111.484 126.369 139.603  0.00  0.00    +0.000 C 
ATOM      8  C   UNL     1     112.589 126.873 138.486  0.00  0.00    +0.000 C 
ATOM      9  C   UNL     1     111.474 126.053 138.841  0.00  0.00    +0.000 C 
BRANCH   9  11
ATOM     10  O   UNL     1     110.526 125.530 137.908  0.00  0.00    +0.000 OA
ATOM     11  C   UNL     1     110.912 125.485 138.637  0.00  0.00    +0.000 C 
ENDBRANCH   9  11
BRANCH   5  12
ATOM     12  O   UNL     1     113.162 127.756 139.451  0.00  0.00    +0.000 OA
BRANCH  12  16
ATOM     13  O   UNL     1     112.280 128.882 139.109  0.00  0.00    +0.000 OA
ATOM     14  O   UNL     1     114.140 129.098 140.132  0.00  0.00    +0.000 OA
ATOM     15  O   UNL     1     113.259 130.633 139.838  0.00  0.00    +0.000 OA
ATOM     16  C   UNL     1     112.963 128.557 139.437  0.00  0.00    +0.000 C 
ATOM     17  C   UNL     1     113.413 129.174 139.751  0.00  0.00    +0.000 C 
ATOM     18  C   UNL     1     113.008 129.880 139.615  0.00  0.00    +0.000 C 
ATOM     19  C   UNL     1     112.307 129.699 139.218  0.00  0.00    +0.000 C 
BRANCH  19  21
ATOM     20  O   UNL     1     111.273 130.080 138.309  0.00  0.00    +0.000 OA
ATOM     21  C   UNL     1     111.735 130.240 138.974  0.00  0.00    +0.000 C 
ENDBRANCH  19  21
ENDBRANCH  12  16
ENDBRANCH   5  12
ENDBRANCH   1   8
BRANCH   1  24
ATOM     22  O   UNL     1     114.441 126.228 135.544  0.00  0.00    +0.000 OA
ATOM     23  O   UNL     1     114.668 124.708 137.954  0.00  0.00    +0.000 OA
ATOM     24  C   UNL     1     113.612 126.572 137.534  0.00  0.00    +0.000 A 
ATOM     25  C   UNL     1     113.791 126.677 136.736  0.00  0.00    +0.000 A 
ATOM     26  C   UNL     1     113.904 125.917 137.940  0.00  0.00    +0.000 A 
ATOM     27  C   UNL     1     114.262 126.125 136.343  0.00  0.00    +0.000 A 
ATOM     28  C   UNL     1     114.375 125.365 137.547  0.00  0.00    +0.000 A 
ATOM     29  C   UNL     1     114.554 125.468 136.749  0.00  0.00    +0.000 A 
BRANCH  25  31
ATOM     30  O   UNL     1     112.725 127.329 136.043  0.00  0.00    +0.000 OA
ATOM     31  C   UNL     1     113.499 127.332 136.330  0.00  0.00    +0.000 C 
BRANCH  31  32
ATOM     32  C   UNL     1     113.980 127.992 136.210  0.00  0.00    +0.000 C 
BRANCH  32  33
ATOM     33  C   UNL     1     113.685 128.649 135.808  0.00  0.00    +0.000 C 
BRANCH  33  35
ATOM     34  O   UNL     1     115.651 131.226 135.185  0.00  0.00    +0.000 OA
ATOM     35  C   UNL     1     114.176 129.293 135.653  0.00  0.00    +0.000 A 
ATOM     36  C   UNL     1     114.557 129.355 134.923  0.00  0.00    +0.000 A 
ATOM     37  C   UNL     1     114.287 129.876 136.226  0.00  0.00    +0.000 A 
ATOM     38  C   UNL     1     115.048 129.999 134.768  0.00  0.00    +0.000 A 
ATOM     39  C   UNL     1     114.779 130.520 136.070  0.00  0.00    +0.000 A 
ATOM     40  C   UNL     1     115.159 130.582 135.341  0.00  0.00    +0.000 A 
ENDBRANCH  33  35
ENDBRANCH  32  33
ENDBRANCH  31  32
ENDBRANCH  25  31
ENDBRANCH   1  24
TORSDOF 10
ENDMDL
MODEL 6
REMARK VINA RESULT:      -8.3      2.155      3.974
REMARK  Name = 131750827
REMARK  10 active torsions:
REMARK  status: ('A' for Active; 'I' for Inactive)
REMARK    1  A    between atoms: O_1  and  C_15
REMARK    2  A    between atoms: O_1  and  C_18
REMARK    3  A    between atoms: O_5  and  C_20
REMARK    4  A    between atoms: O_5  and  C_26
REMARK    5  A    between atoms: C_21  and  C_24
REMARK    6  A    between atoms: C_23  and  C_25
REMARK    7  A    between atoms: C_27  and  C_30
REMARK    8  A    between atoms: C_30  and  C_33
REMARK    9  A    between atoms: C_33  and  C_34
REMARK   10  A    between atoms: C_34  and  C_35
REMARK                            x       y       z     vdW  Elec       q    Type
REMARK                         _______ _______ _______ _____ _____    ______ ____
ROOT
ATOM      1  O   UNL     1     112.585 126.100 138.333  0.00  0.00    +0.000 OA
ENDROOT
BRANCH   1   8
ATOM      2  O   UNL     1     112.979 127.329 137.721  0.00  0.00    +0.000 OA
ATOM      3  O   UNL     1     112.948 128.440 139.932  0.00  0.00    +0.000 OA
ATOM      4  O   UNL     1     113.352 129.299 138.583  0.00  0.00    +0.000 OA
ATOM      5  C   UNL     1     112.766 127.270 139.133  0.00  0.00    +0.000 C 
ATOM      6  C   UNL     1     112.958 128.070 139.195  0.00  0.00    +0.000 C 
ATOM      7  C   UNL     1     113.160 128.499 138.521  0.00  0.00    +0.000 C 
ATOM      8  C   UNL     1     112.776 126.899 138.396  0.00  0.00    +0.000 C 
ATOM      9  C   UNL     1     113.170 128.129 137.784  0.00  0.00    +0.000 C 
BRANCH   9  11
ATOM     10  O   UNL     1     112.913 128.493 136.426  0.00  0.00    +0.000 OA
ATOM     11  C   UNL     1     113.372 128.558 137.109  0.00  0.00    +0.000 C 
ENDBRANCH   9  11
BRANCH   5  12
ATOM     12  O   UNL     1     112.564 126.840 139.807  0.00  0.00    +0.000 OA
BRANCH  12  16
ATOM     13  O   UNL     1     111.154 127.249 139.747  0.00  0.00    +0.000 OA
ATOM     14  O   UNL     1     112.005 126.153 141.368  0.00  0.00    +0.000 OA
ATOM     15  O   UNL     1     110.259 126.525 141.545  0.00  0.00    +0.000 OA
ATOM     16  C   UNL     1     111.798 126.883 140.109  0.00  0.00    +0.000 C 
ATOM     17  C   UNL     1     111.541 126.567 140.827  0.00  0.00    +0.000 C 
ATOM     18  C   UNL     1     110.738 126.738 140.908  0.00  0.00    +0.000 C 
ATOM     19  C   UNL     1     110.498 127.160 140.241  0.00  0.00    +0.000 C 
BRANCH  19  21
ATOM     20  O   UNL     1     109.541 127.721 139.341  0.00  0.00    +0.000 OA
ATOM     21  C   UNL     1     109.738 127.443 140.093  0.00  0.00    +0.000 C 
ENDBRANCH  19  21
ENDBRANCH  12  16
ENDBRANCH   5  12
ENDBRANCH   1   8
BRANCH   1  24
ATOM     22  O   UNL     1     113.019 123.866 136.604  0.00  0.00    +0.000 OA
ATOM     23  O   UNL     1     115.246 125.215 137.782  0.00  0.00    +0.000 OA
ATOM     24  C   UNL     1     113.101 125.580 137.953  0.00  0.00    +0.000 A 
ATOM     25  C   UNL     1     112.801 124.983 137.468  0.00  0.00    +0.000 A 
ATOM     26  C   UNL     1     113.915 125.658 138.057  0.00  0.00    +0.000 A 
ATOM     27  C   UNL     1     113.317 124.463 137.088  0.00  0.00    +0.000 A 
ATOM     28  C   UNL     1     114.431 125.138 137.677  0.00  0.00    +0.000 A 
ATOM     29  C   UNL     1     114.132 124.541 137.193  0.00  0.00    +0.000 A 
BRANCH  25  31
ATOM     30  O   UNL     1     111.541 124.471 137.905  0.00  0.00    +0.000 OA
ATOM     31  C   UNL     1     111.987 124.905 137.364  0.00  0.00    +0.000 C 
BRANCH  31  32
ATOM     32  C   UNL     1     111.617 125.262 136.718  0.00  0.00    +0.000 C 
BRANCH  32  33
ATOM     33  C   UNL     1     110.811 125.146 136.589  0.00  0.00    +0.000 C 
BRANCH  33  35
ATOM     34  O   UNL     1     109.141 127.195 134.614  0.00  0.00    +0.000 OA
ATOM     35  C   UNL     1     110.394 125.658 136.095  0.00  0.00    +0.000 A 
ATOM     36  C   UNL     1     109.889 126.225 136.420  0.00  0.00    +0.000 A 
ATOM     37  C   UNL     1     110.481 125.604 135.276  0.00  0.00    +0.000 A 
ATOM     38  C   UNL     1     109.471 126.736 135.926  0.00  0.00    +0.000 A 
ATOM     39  C   UNL     1     110.063 126.117 134.783  0.00  0.00    +0.000 A 
ATOM     40  C   UNL     1     109.559 126.683 135.107  0.00  0.00    +0.000 A 
ENDBRANCH  33  35
ENDBRANCH  32  33
ENDBRANCH  31  32
ENDBRANCH  25  31
ENDBRANCH   1  24
TORSDOF 10
ENDMDL
MODEL 7
REMARK VINA RESULT:      -8.3      1.191      3.309
REMARK  Name = 131750827
REMARK  10 active torsions:
REMARK  status: ('A' for Active; 'I' for Inactive)
REMARK    1  A    between atoms: O_1  and  C_15
REMARK    2  A    between atoms: O_1  and  C_18
REMARK    3  A    between atoms: O_5  and  C_20
REMARK    4  A    between atoms: O_5  and  C_26
REMARK    5  A    between atoms: C_21  and  C_24
REMARK    6  A    between atoms: C_23  and  C_25
REMARK    7  A    between atoms: C_27  and  C_30
REMARK    8  A    between atoms: C_30  and  C_33
REMARK    9  A    between atoms: C_33  and  C_34
REMARK   10  A    between atoms: C_34  and  C_35
REMARK                            x       y       z     vdW  Elec       q    Type
REMARK                         _______ _______ _______ _____ _____    ______ ____
ROOT
ATOM      1  O   UNL     1     112.934 128.713 138.872  0.00  0.00    +0.000 OA
ENDROOT
BRANCH   1   8
ATOM      2  O   UNL     1     111.936 129.613 139.358  0.00  0.00    +0.000 OA
ATOM      3  O   UNL     1     112.279 131.062 137.382  0.00  0.00    +0.000 OA
ATOM      4  O   UNL     1     111.167 131.478 138.527  0.00  0.00    +0.000 OA
ATOM      5  C   UNL     1     112.607 129.888 138.126  0.00  0.00    +0.000 C 
ATOM      6  C   UNL     1     112.165 130.579 138.040  0.00  0.00    +0.000 C 
ATOM      7  C   UNL     1     111.609 130.787 138.613  0.00  0.00    +0.000 C 
ATOM      8  C   UNL     1     112.492 129.405 138.785  0.00  0.00    +0.000 C 
ATOM      9  C   UNL     1     111.494 130.304 139.271  0.00  0.00    +0.000 C 
BRANCH   9  11
ATOM     10  O   UNL     1     110.434 129.937 140.156  0.00  0.00    +0.000 OA
ATOM     11  C   UNL     1     110.939 130.512 139.844  0.00  0.00    +0.000 C 
ENDBRANCH   9  11
BRANCH   5  12
ATOM     12  O   UNL     1     113.163 129.679 137.554  0.00  0.00    +0.000 OA
BRANCH  12  16
ATOM     13  O   UNL     1     112.159 129.032 136.697  0.00  0.00    +0.000 OA
ATOM     14  O   UNL     1     114.196 129.322 136.131  0.00  0.00    +0.000 OA
ATOM     15  O   UNL     1     113.180 128.505 134.898  0.00  0.00    +0.000 OA
ATOM     16  C   UNL     1     112.919 129.306 136.859  0.00  0.00    +0.000 C 
ATOM     17  C   UNL     1     113.395 129.142 136.205  0.00  0.00    +0.000 C 
ATOM     18  C   UNL     1     112.928 128.766 135.638  0.00  0.00    +0.000 C 
ATOM     19  C   UNL     1     112.164 128.698 135.942  0.00  0.00    +0.000 C 
BRANCH  19  21
ATOM     20  O   UNL     1     110.897 128.039 136.001  0.00  0.00    +0.000 OA
ATOM     21  C   UNL     1     111.518 128.357 135.559  0.00  0.00    +0.000 C 
ENDBRANCH  19  21
ENDBRANCH  12  16
ENDBRANCH   5  12
ENDBRANCH   1   8
BRANCH   1  24
ATOM     22  O   UNL     1     114.000 126.964 140.865  0.00  0.00    +0.000 OA
ATOM     23  O   UNL     1     114.598 129.758 140.947  0.00  0.00    +0.000 OA
ATOM     24  C   UNL     1     113.389 128.596 139.550  0.00  0.00    +0.000 A 
ATOM     25  C   UNL     1     113.467 127.838 139.868  0.00  0.00    +0.000 A 
ATOM     26  C   UNL     1     113.765 129.235 139.909  0.00  0.00    +0.000 A 
ATOM     27  C   UNL     1     113.922 127.721 140.546  0.00  0.00    +0.000 A 
ATOM     28  C   UNL     1     114.220 129.118 140.587  0.00  0.00    +0.000 A 
ATOM     29  C   UNL     1     114.299 128.361 140.906  0.00  0.00    +0.000 A 
BRANCH  25  31
ATOM     30  O   UNL     1     112.316 127.005 139.718  0.00  0.00    +0.000 OA
ATOM     31  C   UNL     1     113.090 127.199 139.509  0.00  0.00    +0.000 C 
BRANCH  31  32
ATOM     32  C   UNL     1     113.487 126.752 138.939  0.00  0.00    +0.000 C 
BRANCH  32  33
ATOM     33  C   UNL     1     113.140 126.067 138.639  0.00  0.00    +0.000 C 
BRANCH  33  35
ATOM     34  O   UNL     1     114.391 124.623 135.948  0.00  0.00    +0.000 OA
ATOM     35  C   UNL     1     113.453 125.706 137.967  0.00  0.00    +0.000 A 
ATOM     36  C   UNL     1     112.958 125.505 137.337  0.00  0.00    +0.000 A 
ATOM     37  C   UNL     1     114.261 125.545 137.923  0.00  0.00    +0.000 A 
ATOM     38  C   UNL     1     113.271 125.145 136.665  0.00  0.00    +0.000 A 
ATOM     39  C   UNL     1     114.574 125.184 137.250  0.00  0.00    +0.000 A 
ATOM     40  C   UNL     1     114.079 124.984 136.621  0.00  0.00    +0.000 A 
ENDBRANCH  33  35
ENDBRANCH  32  33
ENDBRANCH  31  32
ENDBRANCH  25  31
ENDBRANCH   1  24
TORSDOF 10
ENDMDL
MODEL 8
REMARK VINA RESULT:      -8.2      1.123      2.275
REMARK  Name = 131750827
REMARK  10 active torsions:
REMARK  status: ('A' for Active; 'I' for Inactive)
REMARK    1  A    between atoms: O_1  and  C_15
REMARK    2  A    between atoms: O_1  and  C_18
REMARK    3  A    between atoms: O_5  and  C_20
REMARK    4  A    between atoms: O_5  and  C_26
REMARK    5  A    between atoms: C_21  and  C_24
REMARK    6  A    between atoms: C_23  and  C_25
REMARK    7  A    between atoms: C_27  and  C_30
REMARK    8  A    between atoms: C_30  and  C_33
REMARK    9  A    between atoms: C_33  and  C_34
REMARK   10  A    between atoms: C_34  and  C_35
REMARK                            x       y       z     vdW  Elec       q    Type
REMARK                         _______ _______ _______ _____ _____    ______ ____
ROOT
ATOM      1  O   UNL     1     112.786 129.405 136.971  0.00  0.00    +0.000 OA
ENDROOT
BRANCH   1   8
ATOM      2  O   UNL     1     113.316 129.699 138.265  0.00  0.00    +0.000 OA
ATOM      3  O   UNL     1     111.174 130.763 138.901  0.00  0.00    +0.000 OA
ATOM      4  O   UNL     1     112.418 130.703 139.981  0.00  0.00    +0.000 OA
ATOM      5  C   UNL     1     111.979 130.084 137.935  0.00  0.00    +0.000 C 
ATOM      6  C   UNL     1     111.888 130.409 138.689  0.00  0.00    +0.000 C 
ATOM      7  C   UNL     1     112.510 130.379 139.229  0.00  0.00    +0.000 C 
ATOM      8  C   UNL     1     112.693 129.729 137.723  0.00  0.00    +0.000 C 
ATOM      9  C   UNL     1     113.224 130.024 139.017  0.00  0.00    +0.000 C 
BRANCH   9  11
ATOM     10  O   UNL     1     114.158 129.265 139.787  0.00  0.00    +0.000 OA
ATOM     11  C   UNL     1     113.846 129.994 139.557  0.00  0.00    +0.000 C 
ENDBRANCH   9  11
BRANCH   5  12
ATOM     12  O   UNL     1     111.357 130.114 137.395  0.00  0.00    +0.000 OA
BRANCH  12  16
ATOM     13  O   UNL     1     110.766 128.858 137.878  0.00  0.00    +0.000 OA
ATOM     14  O   UNL     1     109.829 130.142 136.454  0.00  0.00    +0.000 OA
ATOM     15  O   UNL     1     108.892 128.669 136.873  0.00  0.00    +0.000 OA
ATOM     16  C   UNL     1     110.763 129.542 137.418  0.00  0.00    +0.000 C 
ATOM     17  C   UNL     1     110.060 129.555 136.985  0.00  0.00    +0.000 C 
ATOM     18  C   UNL     1     109.629 128.878 137.178  0.00  0.00    +0.000 C 
ATOM     19  C   UNL     1     110.066 128.447 137.730  0.00  0.00    +0.000 C 
BRANCH  19  21
ATOM     20  O   UNL     1     110.415 127.229 138.391  0.00  0.00    +0.000 OA
ATOM     21  C   UNL     1     109.842 127.731 138.073  0.00  0.00    +0.000 C 
ENDBRANCH  19  21
ENDBRANCH  12  16
ENDBRANCH   5  12
ENDBRANCH   1   8
BRANCH   1  24
ATOM     22  O   UNL     1     114.732 128.750 134.983  0.00  0.00    +0.000 OA
ATOM     23  O   UNL     1     114.710 131.355 136.158  0.00  0.00    +0.000 OA
ATOM     24  C   UNL     1     113.431 129.621 136.504  0.00  0.00    +0.000 A 
ATOM     25  C   UNL     1     113.758 129.077 135.977  0.00  0.00    +0.000 A 
ATOM     26  C   UNL     1     113.747 130.379 136.565  0.00  0.00    +0.000 A 
ATOM     27  C   UNL     1     114.403 129.293 135.510  0.00  0.00    +0.000 A 
ATOM     28  C   UNL     1     114.392 130.595 136.098  0.00  0.00    +0.000 A 
ATOM     29  C   UNL     1     114.721 130.053 135.570  0.00  0.00    +0.000 A 
BRANCH  25  31
ATOM     30  O   UNL     1     112.787 128.182 135.433  0.00  0.00    +0.000 OA
ATOM     31  C   UNL     1     113.442 128.318 135.916  0.00  0.00    +0.000 C 
BRANCH  31  32
ATOM     32  C   UNL     1     113.779 127.694 136.339  0.00  0.00    +0.000 C 
BRANCH  32  33
ATOM     33  C   UNL     1     113.433 126.946 136.314  0.00  0.00    +0.000 C 
BRANCH  33  35
ATOM     34  O   UNL     1     114.926 124.388 137.770  0.00  0.00    +0.000 OA
ATOM     35  C   UNL     1     113.806 126.307 136.679  0.00  0.00    +0.000 A 
ATOM     36  C   UNL     1     114.285 125.802 136.235  0.00  0.00    +0.000 A 
ATOM     37  C   UNL     1     113.700 126.172 137.486  0.00  0.00    +0.000 A 
ATOM     38  C   UNL     1     114.658 125.162 136.600  0.00  0.00    +0.000 A 
ATOM     39  C   UNL     1     114.074 125.532 137.849  0.00  0.00    +0.000 A 
ATOM     40  C   UNL     1     114.552 125.028 137.407  0.00  0.00    +0.000 A 
ENDBRANCH  33  35
ENDBRANCH  32  33
ENDBRANCH  31  32
ENDBRANCH  25  31
ENDBRANCH   1  24
TORSDOF 10
ENDMDL
MODEL 9
REMARK VINA RESULT:      -8.2      2.070      4.401
REMARK  Name = 131750827
REMARK  10 active torsions:
REMARK  status: ('A' for Active; 'I' for Inactive)
REMARK    1  A    between atoms: O_1  and  C_15
REMARK    2  A    between atoms: O_1  and  C_18
REMARK    3  A    between atoms: O_5  and  C_20
REMARK    4  A    between atoms: O_5  and  C_26
REMARK    5  A    between atoms: C_21  and  C_24
REMARK    6  A    between atoms: C_23  and  C_25
REMARK    7  A    between atoms: C_27  and  C_30
REMARK    8  A    between atoms: C_30  and  C_33
REMARK    9  A    between atoms: C_33  and  C_34
REMARK   10  A    between atoms: C_34  and  C_35
REMARK                            x       y       z     vdW  Elec       q    Type
REMARK                         _______ _______ _______ _____ _____    ______ ____
ROOT
ATOM      1  O   UNL     1     112.648 126.589 137.986  0.00  0.00    +0.000 OA
ENDROOT
BRANCH   1   8
ATOM      2  O   UNL     1     112.815 126.609 139.405  0.00  0.00    +0.000 OA
ATOM      3  O   UNL     1     113.620 128.946 139.278  0.00  0.00    +0.000 OA
ATOM      4  O   UNL     1     113.518 128.187 140.738  0.00  0.00    +0.000 OA
ATOM      5  C   UNL     1     113.134 127.768 138.631  0.00  0.00    +0.000 C 
ATOM      6  C   UNL     1     113.351 128.167 139.320  0.00  0.00    +0.000 C 
ATOM      7  C   UNL     1     113.301 127.788 140.050  0.00  0.00    +0.000 C 
ATOM      8  C   UNL     1     112.865 126.989 138.674  0.00  0.00    +0.000 C 
ATOM      9  C   UNL     1     113.032 127.009 140.093  0.00  0.00    +0.000 C 
BRANCH   9  11
ATOM     10  O   UNL     1     112.284 126.243 141.039  0.00  0.00    +0.000 OA
ATOM     11  C   UNL     1     112.981 126.629 140.823  0.00  0.00    +0.000 C 
ENDBRANCH   9  11
BRANCH   5  12
ATOM     12  O   UNL     1     113.185 128.147 137.901  0.00  0.00    +0.000 OA
BRANCH  12  16
ATOM     13  O   UNL     1     111.902 128.842 138.084  0.00  0.00    +0.000 OA
ATOM     14  O   UNL     1     113.183 129.135 136.402  0.00  0.00    +0.000 OA
ATOM     15  O   UNL     1     111.675 130.108 136.380  0.00  0.00    +0.000 OA
ATOM     16  C   UNL     1     112.595 128.675 137.669  0.00  0.00    +0.000 C 
ATOM     17  C   UNL     1     112.594 129.129 136.979  0.00  0.00    +0.000 C 
ATOM     18  C   UNL     1     111.901 129.577 136.969  0.00  0.00    +0.000 C 
ATOM     19  C   UNL     1     111.473 129.399 137.652  0.00  0.00    +0.000 C 
BRANCH  19  21
ATOM     20  O   UNL     1     110.237 129.301 138.363  0.00  0.00    +0.000 OA
ATOM     21  C   UNL     1     110.745 129.722 137.865  0.00  0.00    +0.000 C 
ENDBRANCH  19  21
ENDBRANCH  12  16
ENDBRANCH   5  12
ENDBRANCH   1   8
BRANCH   1  24
ATOM     22  O   UNL     1     112.580 123.951 136.890  0.00  0.00    +0.000 OA
ATOM     23  O   UNL     1     115.054 125.060 137.793  0.00  0.00    +0.000 OA
ATOM     24  C   UNL     1     113.037 125.895 137.771  0.00  0.00    +0.000 A 
ATOM     25  C   UNL     1     112.613 125.270 137.438  0.00  0.00    +0.000 A 
ATOM     26  C   UNL     1     113.850 125.825 137.890  0.00  0.00    +0.000 A 
ATOM     27  C   UNL     1     113.003 124.576 137.223  0.00  0.00    +0.000 A 
ATOM     28  C   UNL     1     114.240 125.130 137.675  0.00  0.00    +0.000 A 
ATOM     29  C   UNL     1     113.817 124.505 137.342  0.00  0.00    +0.000 A 
BRANCH  25  31
ATOM     30  O   UNL     1     111.275 125.073 137.897  0.00  0.00    +0.000 OA
ATOM     31  C   UNL     1     111.800 125.340 137.320  0.00  0.00    +0.000 C 
BRANCH  31  32
ATOM     32  C   UNL     1     111.511 125.677 136.624  0.00  0.00    +0.000 C 
BRANCH  32  33
ATOM     33  C   UNL     1     110.706 125.636 136.450  0.00  0.00    +0.000 C 
BRANCH  33  35
ATOM     34  O   UNL     1     109.290 127.984 134.614  0.00  0.00    +0.000 OA
ATOM     35  C   UNL     1     110.352 126.223 135.991  0.00  0.00    +0.000 A 
ATOM     36  C   UNL     1     110.707 126.466 135.287  0.00  0.00    +0.000 A 
ATOM     37  C   UNL     1     109.643 126.566 136.236  0.00  0.00    +0.000 A 
ATOM     38  C   UNL     1     110.353 127.053 134.828  0.00  0.00    +0.000 A 
ATOM     39  C   UNL     1     109.289 127.154 135.776  0.00  0.00    +0.000 A 
ATOM     40  C   UNL     1     109.644 127.397 135.073  0.00  0.00    +0.000 A 
ENDBRANCH  33  35
ENDBRANCH  32  33
ENDBRANCH  31  32
ENDBRANCH  25  31
ENDBRANCH   1  24
TORSDOF 10
ENDMDL
MODEL 10
REMARK VINA RESULT:      -8.2      1.716      3.082
REMARK  Name = 131750827
REMARK  10 active torsions:
REMARK  status: ('A' for Active; 'I' for Inactive)
REMARK    1  A    between atoms: O_1  and  C_15
REMARK    2  A    between atoms: O_1  and  C_18
REMARK    3  A    between atoms: O_5  and  C_20
REMARK    4  A    between atoms: O_5  and  C_26
REMARK    5  A    between atoms: C_21  and  C_24
REMARK    6  A    between atoms: C_23  and  C_25
REMARK    7  A    between atoms: C_27  and  C_30
REMARK    8  A    between atoms: C_30  and  C_33
REMARK    9  A    between atoms: C_33  and  C_34
REMARK   10  A    between atoms: C_34  and  C_35
REMARK                            x       y       z     vdW  Elec       q    Type
REMARK                         _______ _______ _______ _____ _____    ______ ____
ROOT
ATOM      1  O   UNL     1     110.617 130.115 137.064  0.00  0.00    +0.000 OA
ENDROOT
BRANCH   1   8
ATOM      2  O   UNL     1     110.335 131.516 137.070  0.00  0.00    +0.000 OA
ATOM      3  O   UNL     1     110.496 131.538 139.540  0.00  0.00    +0.000 OA
ATOM      4  O   UNL     1     110.160 132.930 138.723  0.00  0.00    +0.000 OA
ATOM      5  C   UNL     1     110.557 130.826 138.302  0.00  0.00    +0.000 C 
ATOM      6  C   UNL     1     110.442 131.531 138.717  0.00  0.00    +0.000 C 
ATOM      7  C   UNL     1     110.274 132.227 138.309  0.00  0.00    +0.000 C 
ATOM      8  C   UNL     1     110.503 130.819 137.479  0.00  0.00    +0.000 C 
ATOM      9  C   UNL     1     110.220 132.220 137.485  0.00  0.00    +0.000 C 
BRANCH   9  11
ATOM     10  O   UNL     1     110.513 133.134 136.427  0.00  0.00    +0.000 OA
ATOM     11  C   UNL     1     110.052 132.916 137.076  0.00  0.00    +0.000 C 
ENDBRANCH   9  11
BRANCH   5  12
ATOM     12  O   UNL     1     110.725 130.130 138.711  0.00  0.00    +0.000 OA
BRANCH  12  16
ATOM     13  O   UNL     1     112.164 130.424 138.778  0.00  0.00    +0.000 OA
ATOM     14  O   UNL     1     111.253 128.726 139.696  0.00  0.00    +0.000 OA
ATOM     15  O   UNL     1     113.028 128.848 139.931  0.00  0.00    +0.000 OA
ATOM     16  C   UNL     1     111.498 129.968 138.950  0.00  0.00    +0.000 C 
ATOM     17  C   UNL     1     111.741 129.322 139.403  0.00  0.00    +0.000 C 
ATOM     18  C   UNL     1     112.557 129.379 139.511  0.00  0.00    +0.000 C 
ATOM     19  C   UNL     1     112.818 130.060 139.125  0.00  0.00    +0.000 C 
BRANCH  19  21
ATOM     20  O   UNL     1     113.809 130.910 138.544  0.00  0.00    +0.000 OA
ATOM     21  C   UNL     1     113.597 130.329 139.091  0.00  0.00    +0.000 C 
ENDBRANCH  19  21
ENDBRANCH  12  16
ENDBRANCH   5  12
ENDBRANCH   1   8
BRANCH   1  24
ATOM     22  O   UNL     1     109.943 128.811 134.612  0.00  0.00    +0.000 OA
ATOM     23  O   UNL     1     107.879 129.866 136.285  0.00  0.00    +0.000 OA
ATOM     24  C   UNL     1     110.049 129.857 136.526  0.00  0.00    +0.000 A 
ATOM     25  C   UNL     1     110.281 129.463 135.838  0.00  0.00    +0.000 A 
ATOM     26  C   UNL     1     109.249 129.991 136.674  0.00  0.00    +0.000 A 
ATOM     27  C   UNL     1     109.712 129.204 135.300  0.00  0.00    +0.000 A 
ATOM     28  C   UNL     1     108.680 129.732 136.136  0.00  0.00    +0.000 A 
ATOM     29  C   UNL     1     108.911 129.339 135.448  0.00  0.00    +0.000 A 
BRANCH  25  31
ATOM     30  O   UNL     1     111.529 129.901 135.298  0.00  0.00    +0.000 OA
ATOM     31  C   UNL     1     111.080 129.329 135.689  0.00  0.00    +0.000 C 
BRANCH  31  32
ATOM     32  C   UNL     1     111.433 128.624 135.931  0.00  0.00    +0.000 C 
BRANCH  32  33
ATOM     33  C   UNL     1     112.199 128.440 135.684  0.00  0.00    +0.000 C 
BRANCH  33  35
ATOM     34  O   UNL     1     113.922 126.095 137.239  0.00  0.00    +0.000 OA
ATOM     35  C   UNL     1     112.629 127.853 136.073  0.00  0.00    +0.000 A 
ATOM     36  C   UNL     1     113.439 127.952 136.200  0.00  0.00    +0.000 A 
ATOM     37  C   UNL     1     112.251 127.168 136.334  0.00  0.00    +0.000 A 
ATOM     38  C   UNL     1     113.869 127.366 136.589  0.00  0.00    +0.000 A 
ATOM     39  C   UNL     1     112.682 126.582 136.723  0.00  0.00    +0.000 A 
ATOM     40  C   UNL     1     113.490 126.681 136.850  0.00  0.00    +0.000 A 
ENDBRANCH  33  35
ENDBRANCH  32  33
ENDBRANCH  31  32
ENDBRANCH  25  31
ENDBRANCH   1  24
TORSDOF 10
ENDMDL
