MODEL 1
REMARK VINA RESULT:     -10.9      0.000      0.000
REMARK  Name = 74978295
REMARK  6 active torsions:
REMARK  status: ('A' for Active; 'I' for Inactive)
REMARK    1  A    between atoms: O_2  and  C_21
REMARK    2  A    between atoms: O_2  and  C_23
REMARK    3  A    between atoms: O_9  and  C_34
REMARK    4  A    between atoms: O_9  and  C_39
REMARK    5  A    between atoms: C_24  and  C_26
REMARK    6  A    between atoms: C_39  and  C_40
REMARK                            x       y       z     vdW  Elec       q    Type
REMARK                         _______ _______ _______ _____ _____    ______ ____
ROOT
ATOM      1  O   UNL     1     106.785 125.914 147.031  0.00  0.00    +0.000 OA
ATOM      2  O   UNL     1     104.987 124.733 148.255  0.00  0.00    +0.000 OA
ATOM      3  O   UNL     1     105.955 124.069 149.093  0.00  0.00    +0.000 OA
ATOM      4  O   UNL     1     108.796 124.610 148.685  0.00  0.00    +0.000 OA
ATOM      5  C   UNL     1     105.396 125.646 147.234  0.00  0.00    +0.000 A 
ATOM      6  C   UNL     1     105.996 126.040 146.827  0.00  0.00    +0.000 A 
ATOM      7  C   UNL     1     105.587 125.126 147.847  0.00  0.00    +0.000 A 
ATOM      8  C   UNL     1     106.376 125.001 148.051  0.00  0.00    +0.000 A 
ATOM      9  C   UNL     1     106.975 125.395 147.643  0.00  0.00    +0.000 A 
ATOM     10  C   UNL     1     106.561 124.458 148.690  0.00  0.00    +0.000 A 
ATOM     11  C   UNL     1     107.801 125.273 147.846  0.00  0.00    +0.000 A 
ATOM     12  C   UNL     1     107.381 124.323 148.908  0.00  0.00    +0.000 A 
ATOM     13  C   UNL     1     108.006 124.733 148.483  0.00  0.00    +0.000 A 
ENDROOT
BRANCH   6  16
ATOM     14  O   UNL     1     105.371 128.678 145.923  0.00  0.00    +0.000 OA
ATOM     15  O   UNL     1     105.234 128.116 144.377  0.00  0.00    +0.000 OA
ATOM     16  C   UNL     1     105.805 126.559 146.214  0.00  0.00    +0.000 A 
ATOM     17  C   UNL     1     105.683 127.359 146.374  0.00  0.00    +0.000 A 
ATOM     18  C   UNL     1     105.737 126.278 145.442  0.00  0.00    +0.000 A 
ATOM     19  C   UNL     1     105.493 127.878 145.762  0.00  0.00    +0.000 A 
ATOM     20  C   UNL     1     105.546 126.797 144.829  0.00  0.00    +0.000 A 
ATOM     21  C   UNL     1     105.752 127.640 147.147  0.00  0.00    +0.000 C 
ATOM     22  C   UNL     1     105.424 127.597 144.989  0.00  0.00    +0.000 A 
BRANCH  20  23
ATOM     23  O   UNL     1     105.478 126.516 144.057  0.00  0.00    +0.000 OA
BRANCH  23  25
ATOM     24  O   UNL     1     106.866 126.170 144.055  0.00  0.00    +0.000 OA
ATOM     25  C   UNL     1     106.126 126.159 143.689  0.00  0.00    +0.000 C 
BRANCH  25  29
ATOM     26  O   UNL     1     106.228 126.264 140.835  0.00  0.00    +0.000 OA
ATOM     27  O   UNL     1     105.464 123.844 142.149  0.00  0.00    +0.000 OA
ATOM     28  O   UNL     1     105.753 124.686 140.760  0.00  0.00    +0.000 OA
ATOM     29  C   UNL     1     106.033 125.791 142.957  0.00  0.00    +0.000 A 
ATOM     30  C   UNL     1     105.795 125.002 142.919  0.00  0.00    +0.000 A 
ATOM     31  C   UNL     1     106.177 126.212 142.262  0.00  0.00    +0.000 A 
ATOM     32  C   UNL     1     106.084 125.843 141.530  0.00  0.00    +0.000 A 
ATOM     33  C   UNL     1     105.702 124.634 142.187  0.00  0.00    +0.000 A 
ATOM     34  C   UNL     1     105.847 125.055 141.492  0.00  0.00    +0.000 A 
ENDBRANCH  25  29
ENDBRANCH  23  25
ENDBRANCH  20  23
ENDBRANCH   6  16
BRANCH   5  35
ATOM     35  O   UNL     1     104.607 125.771 147.030  0.00  0.00    +0.000 OA
BRANCH  35  44
ATOM     36  O   UNL     1     104.420 124.517 146.371  0.00  0.00    +0.000 OA
ATOM     37  O   UNL     1     102.084 124.437 147.185  0.00  0.00    +0.000 OA
ATOM     38  O   UNL     1     102.677 123.209 146.255  0.00  0.00    +0.000 OA
ATOM     39  O   UNL     1     103.049 125.718 147.572  0.00  0.00    +0.000 OA
ATOM     40  C   UNL     1     102.863 124.464 146.914  0.00  0.00    +0.000 C 
ATOM     41  C   UNL     1     103.160 123.850 146.449  0.00  0.00    +0.000 C 
ATOM     42  C   UNL     1     103.346 125.104 147.107  0.00  0.00    +0.000 C 
ATOM     43  C   UNL     1     103.938 123.877 146.178  0.00  0.00    +0.000 C 
ATOM     44  C   UNL     1     104.125 125.130 146.836  0.00  0.00    +0.000 C 
ATOM     45  C   UNL     1     104.234 123.263 145.713  0.00  0.00    +0.000 C 
ENDBRANCH  35  44
ENDBRANCH   5  35
TORSDOF 6
ENDMDL
MODEL 2
REMARK VINA RESULT:     -10.8     10.891     12.714
REMARK  Name = 74978295
REMARK  6 active torsions:
REMARK  status: ('A' for Active; 'I' for Inactive)
REMARK    1  A    between atoms: O_2  and  C_21
REMARK    2  A    between atoms: O_2  and  C_23
REMARK    3  A    between atoms: O_9  and  C_34
REMARK    4  A    between atoms: O_9  and  C_39
REMARK    5  A    between atoms: C_24  and  C_26
REMARK    6  A    between atoms: C_39  and  C_40
REMARK                            x       y       z     vdW  Elec       q    Type
REMARK                         _______ _______ _______ _____ _____    ______ ____
ROOT
ATOM      1  O   UNL     1     113.650 130.730 136.520  0.00  0.00    +0.000 OA
ATOM      2  O   UNL     1     113.853 128.369 135.806  0.00  0.00    +0.000 OA
ATOM      3  O   UNL     1     114.876 128.717 134.850  0.00  0.00    +0.000 OA
ATOM      4  O   UNL     1     115.710 131.506 134.614  0.00  0.00    +0.000 OA
ATOM      5  C   UNL     1     113.245 129.364 136.632  0.00  0.00    +0.000 A 
ATOM      6  C   UNL     1     113.178 130.151 136.870  0.00  0.00    +0.000 A 
ATOM      7  C   UNL     1     113.785 129.156 136.043  0.00  0.00    +0.000 A 
ATOM      8  C   UNL     1     114.257 129.735 135.693  0.00  0.00    +0.000 A 
ATOM      9  C   UNL     1     114.189 130.522 135.932  0.00  0.00    +0.000 A 
ATOM     10  C   UNL     1     114.815 129.506 135.082  0.00  0.00    +0.000 A 
ATOM     11  C   UNL     1     114.675 131.134 135.576  0.00  0.00    +0.000 A 
ATOM     12  C   UNL     1     115.310 130.105 134.714  0.00  0.00    +0.000 A 
ATOM     13  C   UNL     1     115.239 130.924 134.962  0.00  0.00    +0.000 A 
ENDROOT
BRANCH   6  16
ATOM     14  O   UNL     1     112.577 130.619 139.625  0.00  0.00    +0.000 OA
ATOM     15  O   UNL     1     111.018 130.981 139.223  0.00  0.00    +0.000 OA
ATOM     16  C   UNL     1     112.637 130.358 137.459  0.00  0.00    +0.000 A 
ATOM     17  C   UNL     1     112.877 130.385 138.248  0.00  0.00    +0.000 A 
ATOM     18  C   UNL     1     111.858 130.539 137.258  0.00  0.00    +0.000 A 
ATOM     19  C   UNL     1     112.337 130.593 138.836  0.00  0.00    +0.000 A 
ATOM     20  C   UNL     1     111.318 130.746 137.846  0.00  0.00    +0.000 A 
ATOM     21  C   UNL     1     113.657 130.204 138.448  0.00  0.00    +0.000 C 
ATOM     22  C   UNL     1     111.557 130.773 138.635  0.00  0.00    +0.000 A 
BRANCH  20  23
ATOM     23  O   UNL     1     110.539 130.927 137.645  0.00  0.00    +0.000 OA
BRANCH  23  25
ATOM     24  O   UNL     1     110.927 132.151 137.017  0.00  0.00    +0.000 OA
ATOM     25  C   UNL     1     110.381 131.540 137.114  0.00  0.00    +0.000 C 
BRANCH  25  29
ATOM     26  O   UNL     1     109.014 131.342 134.613  0.00  0.00    +0.000 OA
ATOM     27  O   UNL     1     107.532 131.739 137.024  0.00  0.00    +0.000 OA
ATOM     28  O   UNL     1     107.570 131.541 135.386  0.00  0.00    +0.000 OA
ATOM     29  C   UNL     1     109.679 131.540 136.682  0.00  0.00    +0.000 A 
ATOM     30  C   UNL     1     108.957 131.640 137.069  0.00  0.00    +0.000 A 
ATOM     31  C   UNL     1     109.698 131.441 135.863  0.00  0.00    +0.000 A 
ATOM     32  C   UNL     1     108.995 131.441 135.432  0.00  0.00    +0.000 A 
ATOM     33  C   UNL     1     108.254 131.640 136.637  0.00  0.00    +0.000 A 
ATOM     34  C   UNL     1     108.273 131.540 135.818  0.00  0.00    +0.000 A 
ENDBRANCH  25  29
ENDBRANCH  23  25
ENDBRANCH  20  23
ENDBRANCH   6  16
BRANCH   5  35
ATOM     35  O   UNL     1     112.773 128.784 136.982  0.00  0.00    +0.000 OA
BRANCH  35  44
ATOM     36  O   UNL     1     111.949 128.589 135.831  0.00  0.00    +0.000 OA
ATOM     37  O   UNL     1     111.634 126.216 136.460  0.00  0.00    +0.000 OA
ATOM     38  O   UNL     1     110.915 126.812 135.099  0.00  0.00    +0.000 OA
ATOM     39  O   UNL     1     112.563 127.202 137.401  0.00  0.00    +0.000 OA
ATOM     40  C   UNL     1     111.739 127.007 136.250  0.00  0.00    +0.000 C 
ATOM     41  C   UNL     1     111.380 127.305 135.570  0.00  0.00    +0.000 C 
ATOM     42  C   UNL     1     112.203 127.501 136.721  0.00  0.00    +0.000 C 
ATOM     43  C   UNL     1     111.485 128.096 135.361  0.00  0.00    +0.000 C 
ATOM     44  C   UNL     1     112.308 128.292 136.511  0.00  0.00    +0.000 C 
ATOM     45  C   UNL     1     111.125 128.394 134.680  0.00  0.00    +0.000 C 
ENDBRANCH  35  44
ENDBRANCH   5  35
TORSDOF 6
ENDMDL
MODEL 3
REMARK VINA RESULT:     -10.8      8.240     10.794
REMARK  Name = 74978295
REMARK  6 active torsions:
REMARK  status: ('A' for Active; 'I' for Inactive)
REMARK    1  A    between atoms: O_2  and  C_21
REMARK    2  A    between atoms: O_2  and  C_23
REMARK    3  A    between atoms: O_9  and  C_34
REMARK    4  A    between atoms: O_9  and  C_39
REMARK    5  A    between atoms: C_24  and  C_26
REMARK    6  A    between atoms: C_39  and  C_40
REMARK                            x       y       z     vdW  Elec       q    Type
REMARK                         _______ _______ _______ _____ _____    ______ ____
ROOT
ATOM      1  O   UNL     1     113.691 126.513 137.994  0.00  0.00    +0.000 OA
ATOM      2  O   UNL     1     111.763 124.970 138.150  0.00  0.00    +0.000 OA
ATOM      3  O   UNL     1     112.347 124.095 137.163  0.00  0.00    +0.000 OA
ATOM      4  O   UNL     1     114.931 124.794 135.996  0.00  0.00    +0.000 OA
ATOM      5  C   UNL     1     112.427 126.167 138.562  0.00  0.00    +0.000 A 
ATOM      6  C   UNL     1     113.070 126.681 138.509  0.00  0.00    +0.000 A 
ATOM      7  C   UNL     1     112.406 125.484 138.097  0.00  0.00    +0.000 A 
ATOM      8  C   UNL     1     113.027 125.317 137.582  0.00  0.00    +0.000 A 
ATOM      9  C   UNL     1     113.670 125.832 137.530  0.00  0.00    +0.000 A 
ATOM     10  C   UNL     1     112.994 124.604 137.104  0.00  0.00    +0.000 A 
ATOM     11  C   UNL     1     114.324 125.668 136.997  0.00  0.00    +0.000 A 
ATOM     12  C   UNL     1     113.638 124.424 136.565  0.00  0.00    +0.000 A 
ATOM     13  C   UNL     1     114.308 124.959 136.511  0.00  0.00    +0.000 A 
ENDROOT
BRANCH   6  16
ATOM     14  O   UNL     1     113.862 128.021 140.906  0.00  0.00    +0.000 OA
ATOM     15  O   UNL     1     113.153 129.409 140.364  0.00  0.00    +0.000 OA
ATOM     16  C   UNL     1     113.091 127.363 138.974  0.00  0.00    +0.000 A 
ATOM     17  C   UNL     1     113.466 127.351 139.708  0.00  0.00    +0.000 A 
ATOM     18  C   UNL     1     112.736 128.057 138.702  0.00  0.00    +0.000 A 
ATOM     19  C   UNL     1     113.487 128.033 140.171  0.00  0.00    +0.000 A 
ATOM     20  C   UNL     1     112.757 128.739 139.167  0.00  0.00    +0.000 A 
ATOM     21  C   UNL     1     113.820 126.657 139.978  0.00  0.00    +0.000 C 
ATOM     22  C   UNL     1     113.132 128.727 139.901  0.00  0.00    +0.000 A 
BRANCH  20  23
ATOM     23  O   UNL     1     112.402 129.433 138.895  0.00  0.00    +0.000 OA
BRANCH  23  25
ATOM     24  O   UNL     1     113.403 129.626 137.894  0.00  0.00    +0.000 OA
ATOM     25  C   UNL     1     112.642 129.765 138.179  0.00  0.00    +0.000 C 
BRANCH  25  29
ATOM     26  O   UNL     1     111.087 130.225 135.825  0.00  0.00    +0.000 OA
ATOM     27  O   UNL     1     111.061 132.135 137.950  0.00  0.00    +0.000 OA
ATOM     28  O   UNL     1     110.551 131.651 136.458  0.00  0.00    +0.000 OA
ATOM     29  C   UNL     1     112.119 130.236 137.748  0.00  0.00    +0.000 A 
ATOM     30  C   UNL     1     111.851 130.950 138.064  0.00  0.00    +0.000 A 
ATOM     31  C   UNL     1     111.864 129.994 137.001  0.00  0.00    +0.000 A 
ATOM     32  C   UNL     1     111.342 130.466 136.572  0.00  0.00    +0.000 A 
ATOM     33  C   UNL     1     111.329 131.421 137.634  0.00  0.00    +0.000 A 
ATOM     34  C   UNL     1     111.074 131.179 136.887  0.00  0.00    +0.000 A 
ENDBRANCH  25  29
ENDBRANCH  23  25
ENDBRANCH  20  23
ENDBRANCH   6  16
BRANCH   5  35
ATOM     35  O   UNL     1     111.805 126.334 139.077  0.00  0.00    +0.000 OA
BRANCH  35  44
ATOM     36  O   UNL     1     110.895 126.669 138.027  0.00  0.00    +0.000 OA
ATOM     37  O   UNL     1     108.994 125.975 139.452  0.00  0.00    +0.000 OA
ATOM     38  O   UNL     1     108.718 126.541 137.927  0.00  0.00    +0.000 OA
ATOM     39  O   UNL     1     110.538 125.871 140.027  0.00  0.00    +0.000 OA
ATOM     40  C   UNL     1     109.628 126.206 138.977  0.00  0.00    +0.000 C 
ATOM     41  C   UNL     1     109.491 126.490 138.215  0.00  0.00    +0.000 C 
ATOM     42  C   UNL     1     110.400 126.155 139.264  0.00  0.00    +0.000 C 
ATOM     43  C   UNL     1     110.124 126.721 137.740  0.00  0.00    +0.000 C 
ATOM     44  C   UNL     1     111.033 126.386 138.789  0.00  0.00    +0.000 C 
ATOM     45  C   UNL     1     109.985 127.004 136.977  0.00  0.00    +0.000 C 
ENDBRANCH  35  44
ENDBRANCH   5  35
TORSDOF 6
ENDMDL
MODEL 4
REMARK VINA RESULT:     -10.8      8.330     11.532
REMARK  Name = 74978295
REMARK  6 active torsions:
REMARK  status: ('A' for Active; 'I' for Inactive)
REMARK    1  A    between atoms: O_2  and  C_21
REMARK    2  A    between atoms: O_2  and  C_23
REMARK    3  A    between atoms: O_9  and  C_34
REMARK    4  A    between atoms: O_9  and  C_39
REMARK    5  A    between atoms: C_24  and  C_26
REMARK    6  A    between atoms: C_39  and  C_40
REMARK                            x       y       z     vdW  Elec       q    Type
REMARK                         _______ _______ _______ _____ _____    ______ ____
ROOT
ATOM      1  O   UNL     1     113.264 126.231 138.696  0.00  0.00    +0.000 OA
ATOM      2  O   UNL     1     112.456 127.162 136.550  0.00  0.00    +0.000 OA
ATOM      3  O   UNL     1     113.369 126.325 135.810  0.00  0.00    +0.000 OA
ATOM      4  O   UNL     1     115.133 124.512 137.269  0.00  0.00    +0.000 OA
ATOM      5  C   UNL     1     112.403 127.117 137.977  0.00  0.00    +0.000 A 
ATOM      6  C   UNL     1     112.672 126.806 138.692  0.00  0.00    +0.000 A 
ATOM      7  C   UNL     1     112.725 126.852 137.265  0.00  0.00    +0.000 A 
ATOM      8  C   UNL     1     113.317 126.277 137.268  0.00  0.00    +0.000 A 
ATOM      9  C   UNL     1     113.586 125.967 137.984  0.00  0.00    +0.000 A 
ATOM     10  C   UNL     1     113.644 126.009 136.521  0.00  0.00    +0.000 A 
ATOM     11  C   UNL     1     114.201 125.367 138.001  0.00  0.00    +0.000 A 
ATOM     12  C   UNL     1     114.261 125.411 136.518  0.00  0.00    +0.000 A 
ATOM     13  C   UNL     1     114.541 125.087 137.263  0.00  0.00    +0.000 A 
ENDROOT
BRANCH   6  16
ATOM     14  O   UNL     1     110.757 126.532 140.796  0.00  0.00    +0.000 OA
ATOM     15  O   UNL     1     111.383 127.866 141.539  0.00  0.00    +0.000 OA
ATOM     16  C   UNL     1     112.350 127.071 139.404  0.00  0.00    +0.000 A 
ATOM     17  C   UNL     1     111.714 126.669 139.744  0.00  0.00    +0.000 A 
ATOM     18  C   UNL     1     112.663 127.738 139.775  0.00  0.00    +0.000 A 
ATOM     19  C   UNL     1     111.392 126.934 140.456  0.00  0.00    +0.000 A 
ATOM     20  C   UNL     1     112.340 128.003 140.488  0.00  0.00    +0.000 A 
ATOM     21  C   UNL     1     111.402 126.002 139.372  0.00  0.00    +0.000 C 
ATOM     22  C   UNL     1     111.705 127.601 140.828  0.00  0.00    +0.000 A 
BRANCH  20  23
ATOM     23  O   UNL     1     112.653 128.670 140.859  0.00  0.00    +0.000 OA
BRANCH  23  25
ATOM     24  O   UNL     1     113.898 128.028 141.145  0.00  0.00    +0.000 OA
ATOM     25  C   UNL     1     113.464 128.716 141.007  0.00  0.00    +0.000 C 
BRANCH  25  29
ATOM     26  O   UNL     1     113.503 131.466 141.783  0.00  0.00    +0.000 OA
ATOM     27  O   UNL     1     115.683 130.371 140.295  0.00  0.00    +0.000 OA
ATOM     28  O   UNL     1     114.969 131.653 141.049  0.00  0.00    +0.000 OA
ATOM     29  C   UNL     1     113.840 129.450 141.018  0.00  0.00    +0.000 A 
ATOM     30  C   UNL     1     114.573 129.543 140.651  0.00  0.00    +0.000 A 
ATOM     31  C   UNL     1     113.483 130.091 141.396  0.00  0.00    +0.000 A 
ATOM     32  C   UNL     1     113.860 130.825 141.406  0.00  0.00    +0.000 A 
ATOM     33  C   UNL     1     114.949 130.277 140.662  0.00  0.00    +0.000 A 
ATOM     34  C   UNL     1     114.592 130.918 141.039  0.00  0.00    +0.000 A 
ENDBRANCH  25  29
ENDBRANCH  23  25
ENDBRANCH  20  23
ENDBRANCH   6  16
BRANCH   5  35
ATOM     35  O   UNL     1     111.811 127.692 137.973  0.00  0.00    +0.000 OA
BRANCH  35  44
ATOM     36  O   UNL     1     112.688 128.756 137.598  0.00  0.00    +0.000 OA
ATOM     37  O   UNL     1     110.819 129.881 136.427  0.00  0.00    +0.000 OA
ATOM     38  O   UNL     1     112.319 130.570 136.442  0.00  0.00    +0.000 OA
ATOM     39  O   UNL     1     110.566 128.442 137.193  0.00  0.00    +0.000 OA
ATOM     40  C   UNL     1     111.442 129.506 136.817  0.00  0.00    +0.000 C 
ATOM     41  C   UNL     1     112.192 129.850 136.825  0.00  0.00    +0.000 C 
ATOM     42  C   UNL     1     111.316 128.787 137.200  0.00  0.00    +0.000 C 
ATOM     43  C   UNL     1     112.814 129.475 137.215  0.00  0.00    +0.000 C 
ATOM     44  C   UNL     1     111.939 128.412 137.591  0.00  0.00    +0.000 C 
ATOM     45  C   UNL     1     113.564 129.821 137.222  0.00  0.00    +0.000 C 
ENDBRANCH  35  44
ENDBRANCH   5  35
TORSDOF 6
ENDMDL
MODEL 5
REMARK VINA RESULT:     -10.7      8.909     11.829
REMARK  Name = 74978295
REMARK  6 active torsions:
REMARK  status: ('A' for Active; 'I' for Inactive)
REMARK    1  A    between atoms: O_2  and  C_21
REMARK    2  A    between atoms: O_2  and  C_23
REMARK    3  A    between atoms: O_9  and  C_34
REMARK    4  A    between atoms: O_9  and  C_39
REMARK    5  A    between atoms: C_24  and  C_26
REMARK    6  A    between atoms: C_39  and  C_40
REMARK                            x       y       z     vdW  Elec       q    Type
REMARK                         _______ _______ _______ _____ _____    ______ ____
ROOT
ATOM      1  O   UNL     1     111.813 127.533 135.856  0.00  0.00    +0.000 OA
ATOM      2  O   UNL     1     112.102 126.031 137.801  0.00  0.00    +0.000 OA
ATOM      3  O   UNL     1     111.216 125.055 137.215  0.00  0.00    +0.000 OA
ATOM      4  O   UNL     1     110.014 125.609 134.612  0.00  0.00    +0.000 OA
ATOM      5  C   UNL     1     112.398 127.257 137.130  0.00  0.00    +0.000 A 
ATOM      6  C   UNL     1     112.301 127.757 136.481  0.00  0.00    +0.000 A 
ATOM      7  C   UNL     1     112.005 126.531 137.153  0.00  0.00    +0.000 A 
ATOM      8  C   UNL     1     111.516 126.307 136.527  0.00  0.00    +0.000 A 
ATOM      9  C   UNL     1     111.421 126.808 135.879  0.00  0.00    +0.000 A 
ATOM     10  C   UNL     1     111.113 125.549 136.563  0.00  0.00    +0.000 A 
ATOM     11  C   UNL     1     110.914 126.585 135.221  0.00  0.00    +0.000 A 
ATOM     12  C   UNL     1     110.603 125.310 135.915  0.00  0.00    +0.000 A 
ATOM     13  C   UNL     1     110.503 125.831 135.239  0.00  0.00    +0.000 A 
ENDROOT
BRANCH   6  16
ATOM     14  O   UNL     1     114.578 129.318 135.740  0.00  0.00    +0.000 OA
ATOM     15  O   UNL     1     113.871 130.659 136.390  0.00  0.00    +0.000 OA
ATOM     16  C   UNL     1     112.694 128.483 136.458  0.00  0.00    +0.000 A 
ATOM     17  C   UNL     1     113.440 128.538 136.110  0.00  0.00    +0.000 A 
ATOM     18  C   UNL     1     112.340 129.154 136.784  0.00  0.00    +0.000 A 
ATOM     19  C   UNL     1     113.832 129.263 136.088  0.00  0.00    +0.000 A 
ATOM     20  C   UNL     1     112.733 129.879 136.761  0.00  0.00    +0.000 A 
ATOM     21  C   UNL     1     113.793 127.867 135.785  0.00  0.00    +0.000 C 
ATOM     22  C   UNL     1     113.479 129.934 136.413  0.00  0.00    +0.000 A 
BRANCH  20  23
ATOM     23  O   UNL     1     112.379 130.550 137.086  0.00  0.00    +0.000 OA
BRANCH  23  25
ATOM     24  O   UNL     1     111.277 130.410 136.186  0.00  0.00    +0.000 OA
ATOM     25  C   UNL     1     111.630 130.785 136.830  0.00  0.00    +0.000 C 
BRANCH  25  29
ATOM     26  O   UNL     1     110.567 133.438 136.838  0.00  0.00    +0.000 OA
ATOM     27  O   UNL     1     110.323 131.794 139.163  0.00  0.00    +0.000 OA
ATOM     28  O   UNL     1     110.050 133.226 138.391  0.00  0.00    +0.000 OA
ATOM     29  C   UNL     1     111.235 131.396 137.220  0.00  0.00    +0.000 A 
ATOM     30  C   UNL     1     110.976 131.290 137.997  0.00  0.00    +0.000 A 
ATOM     31  C   UNL     1     111.098 132.112 136.834  0.00  0.00    +0.000 A 
ATOM     32  C   UNL     1     110.703 132.722 137.224  0.00  0.00    +0.000 A 
ATOM     33  C   UNL     1     110.581 131.900 138.386  0.00  0.00    +0.000 A 
ATOM     34  C   UNL     1     110.445 132.616 138.000  0.00  0.00    +0.000 A 
ENDBRANCH  25  29
ENDBRANCH  23  25
ENDBRANCH  20  23
ENDBRANCH   6  16
BRANCH   5  35
ATOM     35  O   UNL     1     112.887 127.482 137.755  0.00  0.00    +0.000 OA
BRANCH  35  44
ATOM     36  O   UNL     1     111.820 127.765 138.663  0.00  0.00    +0.000 OA
ATOM     37  O   UNL     1     113.236 127.030 140.556  0.00  0.00    +0.000 OA
ATOM     38  O   UNL     1     111.697 127.558 140.833  0.00  0.00    +0.000 OA
ATOM     39  O   UNL     1     113.831 126.992 139.017  0.00  0.00    +0.000 OA
ATOM     40  C   UNL     1     112.764 127.275 139.925  0.00  0.00    +0.000 C 
ATOM     41  C   UNL     1     111.995 127.539 140.063  0.00  0.00    +0.000 C 
ATOM     42  C   UNL     1     113.061 127.256 139.156  0.00  0.00    +0.000 C 
ATOM     43  C   UNL     1     111.523 127.784 139.432  0.00  0.00    +0.000 C 
ATOM     44  C   UNL     1     112.589 127.501 138.525  0.00  0.00    +0.000 C 
ATOM     45  C   UNL     1     110.753 128.047 139.571  0.00  0.00    +0.000 C 
ENDBRANCH  35  44
ENDBRANCH   5  35
TORSDOF 6
ENDMDL
MODEL 6
REMARK VINA RESULT:     -10.7      9.371     11.999
REMARK  Name = 74978295
REMARK  6 active torsions:
REMARK  status: ('A' for Active; 'I' for Inactive)
REMARK    1  A    between atoms: O_2  and  C_21
REMARK    2  A    between atoms: O_2  and  C_23
REMARK    3  A    between atoms: O_9  and  C_34
REMARK    4  A    between atoms: O_9  and  C_39
REMARK    5  A    between atoms: C_24  and  C_26
REMARK    6  A    between atoms: C_39  and  C_40
REMARK                            x       y       z     vdW  Elec       q    Type
REMARK                         _______ _______ _______ _____ _____    ______ ____
ROOT
ATOM      1  O   UNL     1     111.765 130.073 136.411  0.00  0.00    +0.000 OA
ATOM      2  O   UNL     1     112.195 131.123 138.611  0.00  0.00    +0.000 OA
ATOM      3  O   UNL     1     111.051 131.987 138.453  0.00  0.00    +0.000 OA
ATOM      4  O   UNL     1     109.441 131.786 136.025  0.00  0.00    +0.000 OA
ATOM      5  C   UNL     1     112.549 130.176 137.601  0.00  0.00    +0.000 A 
ATOM      6  C   UNL     1     112.405 129.826 136.868  0.00  0.00    +0.000 A 
ATOM      7  C   UNL     1     112.051 130.773 137.877  0.00  0.00    +0.000 A 
ATOM      8  C   UNL     1     111.410 131.020 137.420  0.00  0.00    +0.000 A 
ATOM      9  C   UNL     1     111.267 130.670 136.687  0.00  0.00    +0.000 A 
ATOM     10  C   UNL     1     110.900 131.643 137.719  0.00  0.00    +0.000 A 
ATOM     11  C   UNL     1     110.603 130.919 136.202  0.00  0.00    +0.000 A 
ATOM     12  C   UNL     1     110.230 131.905 137.248  0.00  0.00    +0.000 A 
ATOM     13  C   UNL     1     110.081 131.540 136.484  0.00  0.00    +0.000 A 
ENDROOT
BRANCH   6  16
ATOM     14  O   UNL     1     114.705 129.011 135.379  0.00  0.00    +0.000 OA
ATOM     15  O   UNL     1     114.396 127.436 135.764  0.00  0.00    +0.000 OA
ATOM     16  C   UNL     1     112.904 129.228 136.592  0.00  0.00    +0.000 A 
ATOM     17  C   UNL     1     113.556 129.418 136.123  0.00  0.00    +0.000 A 
ATOM     18  C   UNL     1     112.749 128.441 136.784  0.00  0.00    +0.000 A 
ATOM     19  C   UNL     1     114.053 128.821 135.847  0.00  0.00    +0.000 A 
ATOM     20  C   UNL     1     113.247 127.844 136.508  0.00  0.00    +0.000 A 
ATOM     21  C   UNL     1     113.709 130.206 135.931  0.00  0.00    +0.000 C 
ATOM     22  C   UNL     1     113.899 128.033 136.040  0.00  0.00    +0.000 A 
BRANCH  20  23
ATOM     23  O   UNL     1     113.092 127.057 136.701  0.00  0.00    +0.000 OA
BRANCH  23  25
ATOM     24  O   UNL     1     111.876 127.095 135.950  0.00  0.00    +0.000 OA
ATOM     25  C   UNL     1     112.371 126.715 136.489  0.00  0.00    +0.000 C 
BRANCH  25  29
ATOM     26  O   UNL     1     111.244 125.221 138.650  0.00  0.00    +0.000 OA
ATOM     27  O   UNL     1     112.146 123.872 136.297  0.00  0.00    +0.000 OA
ATOM     28  O   UNL     1     111.470 123.824 137.801  0.00  0.00    +0.000 OA
ATOM     29  C   UNL     1     112.145 125.993 136.818  0.00  0.00    +0.000 A 
ATOM     30  C   UNL     1     112.259 125.293 136.393  0.00  0.00    +0.000 A 
ATOM     31  C   UNL     1     111.807 125.968 137.570  0.00  0.00    +0.000 A 
ATOM     32  C   UNL     1     111.582 125.245 137.898  0.00  0.00    +0.000 A 
ATOM     33  C   UNL     1     112.033 124.571 136.722  0.00  0.00    +0.000 A 
ATOM     34  C   UNL     1     111.695 124.547 137.474  0.00  0.00    +0.000 A 
ENDBRANCH  25  29
ENDBRANCH  23  25
ENDBRANCH  20  23
ENDBRANCH   6  16
BRANCH   5  35
ATOM     35  O   UNL     1     113.190 129.928 138.058  0.00  0.00    +0.000 OA
BRANCH  35  44
ATOM     36  O   UNL     1     112.392 129.243 139.025  0.00  0.00    +0.000 OA
ATOM     37  O   UNL     1     114.064 129.764 140.774  0.00  0.00    +0.000 OA
ATOM     38  O   UNL     1     112.709 128.905 141.158  0.00  0.00    +0.000 OA
ATOM     39  O   UNL     1     114.305 130.276 139.224  0.00  0.00    +0.000 OA
ATOM     40  C   UNL     1     113.507 129.590 140.191  0.00  0.00    +0.000 C 
ATOM     41  C   UNL     1     112.829 129.161 140.383  0.00  0.00    +0.000 C 
ATOM     42  C   UNL     1     113.626 129.846 139.416  0.00  0.00    +0.000 C 
ATOM     43  C   UNL     1     112.272 128.988 139.800  0.00  0.00    +0.000 C 
ATOM     44  C   UNL     1     113.069 129.672 138.833  0.00  0.00    +0.000 C 
ATOM     45  C   UNL     1     111.594 128.558 139.992  0.00  0.00    +0.000 C 
ENDBRANCH  35  44
ENDBRANCH   5  35
TORSDOF 6
ENDMDL
MODEL 7
REMARK VINA RESULT:     -10.6      8.932     11.491
REMARK  Name = 74978295
REMARK  6 active torsions:
REMARK  status: ('A' for Active; 'I' for Inactive)
REMARK    1  A    between atoms: O_2  and  C_21
REMARK    2  A    between atoms: O_2  and  C_23
REMARK    3  A    between atoms: O_9  and  C_34
REMARK    4  A    between atoms: O_9  and  C_39
REMARK    5  A    between atoms: C_24  and  C_26
REMARK    6  A    between atoms: C_39  and  C_40
REMARK                            x       y       z     vdW  Elec       q    Type
REMARK                         _______ _______ _______ _____ _____    ______ ____
ROOT
ATOM      1  O   UNL     1     112.237 126.503 136.213  0.00  0.00    +0.000 OA
ATOM      2  O   UNL     1     112.347 126.383 138.683  0.00  0.00    +0.000 OA
ATOM      3  O   UNL     1     112.036 124.974 138.656  0.00  0.00    +0.000 OA
ATOM      4  O   UNL     1     111.605 123.663 136.082  0.00  0.00    +0.000 OA
ATOM      5  C   UNL     1     112.447 127.140 137.475  0.00  0.00    +0.000 A 
ATOM      6  C   UNL     1     112.410 127.180 136.652  0.00  0.00    +0.000 A 
ATOM      7  C   UNL     1     112.311 126.422 137.860  0.00  0.00    +0.000 A 
ATOM      8  C   UNL     1     112.137 125.746 137.421  0.00  0.00    +0.000 A 
ATOM      9  C   UNL     1     112.101 125.787 136.598  0.00  0.00    +0.000 A 
ATOM     10  C   UNL     1     111.997 125.005 137.832  0.00  0.00    +0.000 A 
ATOM     11  C   UNL     1     111.921 125.089 136.130  0.00  0.00    +0.000 A 
ATOM     12  C   UNL     1     111.816 124.297 137.381  0.00  0.00    +0.000 A 
ATOM     13  C   UNL     1     111.778 124.339 136.524  0.00  0.00    +0.000 A 
ENDROOT
BRANCH   6  16
ATOM     14  O   UNL     1     114.204 129.002 135.375  0.00  0.00    +0.000 OA
ATOM     15  O   UNL     1     112.956 130.049 135.116  0.00  0.00    +0.000 OA
ATOM     16  C   UNL     1     112.547 127.898 136.268  0.00  0.00    +0.000 A 
ATOM     17  C   UNL     1     113.308 128.091 136.014  0.00  0.00    +0.000 A 
ATOM     18  C   UNL     1     111.923 128.421 136.139  0.00  0.00    +0.000 A 
ATOM     19  C   UNL     1     113.444 128.808 135.630  0.00  0.00    +0.000 A 
ATOM     20  C   UNL     1     112.059 129.139 135.754  0.00  0.00    +0.000 A 
ATOM     21  C   UNL     1     113.932 127.567 136.144  0.00  0.00    +0.000 C 
ATOM     22  C   UNL     1     112.820 129.332 135.500  0.00  0.00    +0.000 A 
BRANCH  20  23
ATOM     23  O   UNL     1     111.435 129.662 135.625  0.00  0.00    +0.000 OA
BRANCH  23  25
ATOM     24  O   UNL     1     110.841 128.846 134.612  0.00  0.00    +0.000 OA
ATOM     25  C   UNL     1     110.768 129.412 135.208  0.00  0.00    +0.000 C 
BRANCH  25  29
ATOM     26  O   UNL     1     108.021 129.046 135.909  0.00  0.00    +0.000 OA
ATOM     27  O   UNL     1     109.074 131.683 135.582  0.00  0.00    +0.000 OA
ATOM     28  O   UNL     1     107.808 130.682 135.925  0.00  0.00    +0.000 OA
ATOM     29  C   UNL     1     110.028 129.729 135.387  0.00  0.00    +0.000 A 
ATOM     30  C   UNL     1     109.921 130.548 135.395  0.00  0.00    +0.000 A 
ATOM     31  C   UNL     1     109.394 129.229 135.559  0.00  0.00    +0.000 A 
ATOM     32  C   UNL     1     108.655 129.547 135.738  0.00  0.00    +0.000 A 
ATOM     33  C   UNL     1     109.181 130.865 135.574  0.00  0.00    +0.000 A 
ATOM     34  C   UNL     1     108.547 130.364 135.746  0.00  0.00    +0.000 A 
ENDBRANCH  25  29
ENDBRANCH  23  25
ENDBRANCH  20  23
ENDBRANCH   6  16
BRANCH   5  35
ATOM     35  O   UNL     1     112.620 127.817 137.914  0.00  0.00    +0.000 OA
BRANCH  35  44
ATOM     36  O   UNL     1     111.290 127.978 138.409  0.00  0.00    +0.000 OA
ATOM     37  O   UNL     1     112.182 129.000 140.479  0.00  0.00    +0.000 OA
ATOM     38  O   UNL     1     110.554 128.820 140.284  0.00  0.00    +0.000 OA
ATOM     39  O   UNL     1     113.216 128.499 139.294  0.00  0.00    +0.000 OA
ATOM     40  C   UNL     1     111.885 128.659 139.789  0.00  0.00    +0.000 C 
ATOM     41  C   UNL     1     111.071 128.569 139.691  0.00  0.00    +0.000 C 
ATOM     42  C   UNL     1     112.401 128.409 139.196  0.00  0.00    +0.000 C 
ATOM     43  C   UNL     1     110.773 128.228 139.001  0.00  0.00    +0.000 C 
ATOM     44  C   UNL     1     112.103 128.068 138.506  0.00  0.00    +0.000 C 
ATOM     45  C   UNL     1     109.959 128.138 138.904  0.00  0.00    +0.000 C 
ENDBRANCH  35  44
ENDBRANCH   5  35
TORSDOF 6
ENDMDL
MODEL 8
REMARK VINA RESULT:     -10.6      7.588     10.871
REMARK  Name = 74978295
REMARK  6 active torsions:
REMARK  status: ('A' for Active; 'I' for Inactive)
REMARK    1  A    between atoms: O_2  and  C_21
REMARK    2  A    between atoms: O_2  and  C_23
REMARK    3  A    between atoms: O_9  and  C_34
REMARK    4  A    between atoms: O_9  and  C_39
REMARK    5  A    between atoms: C_24  and  C_26
REMARK    6  A    between atoms: C_39  and  C_40
REMARK                            x       y       z     vdW  Elec       q    Type
REMARK                         _______ _______ _______ _____ _____    ______ ____
ROOT
ATOM      1  O   UNL     1     113.641 126.769 137.730  0.00  0.00    +0.000 OA
ATOM      2  O   UNL     1     111.656 125.865 136.560  0.00  0.00    +0.000 OA
ATOM      3  O   UNL     1     112.332 124.613 136.322  0.00  0.00    +0.000 OA
ATOM      4  O   UNL     1     115.067 124.268 137.287  0.00  0.00    +0.000 OA
ATOM      5  C   UNL     1     112.303 126.933 137.256  0.00  0.00    +0.000 A 
ATOM      6  C   UNL     1     112.964 127.233 137.646  0.00  0.00    +0.000 A 
ATOM      7  C   UNL     1     112.318 126.166 136.950  0.00  0.00    +0.000 A 
ATOM      8  C   UNL     1     112.995 125.702 137.034  0.00  0.00    +0.000 A 
ATOM      9  C   UNL     1     113.656 126.004 137.424  0.00  0.00    +0.000 A 
ATOM     10  C   UNL     1     112.998 124.906 136.711  0.00  0.00    +0.000 A 
ATOM     11  C   UNL     1     114.366 125.530 137.518  0.00  0.00    +0.000 A 
ATOM     12  C   UNL     1     113.699 124.417 136.795  0.00  0.00    +0.000 A 
ATOM     13  C   UNL     1     114.389 124.731 137.201  0.00  0.00    +0.000 A 
ENDROOT
BRANCH   6  16
ATOM     14  O   UNL     1     113.439 130.034 137.333  0.00  0.00    +0.000 OA
ATOM     15  O   UNL     1     112.903 130.297 138.872  0.00  0.00    +0.000 OA
ATOM     16  C   UNL     1     112.949 128.000 137.953  0.00  0.00    +0.000 A 
ATOM     17  C   UNL     1     113.202 128.635 137.490  0.00  0.00    +0.000 A 
ATOM     18  C   UNL     1     112.681 128.131 138.722  0.00  0.00    +0.000 A 
ATOM     19  C   UNL     1     113.186 129.400 137.796  0.00  0.00    +0.000 A 
ATOM     20  C   UNL     1     112.666 128.897 139.028  0.00  0.00    +0.000 A 
ATOM     21  C   UNL     1     113.470 128.502 136.721  0.00  0.00    +0.000 C 
ATOM     22  C   UNL     1     112.918 129.532 138.565  0.00  0.00    +0.000 A 
BRANCH  20  23
ATOM     23  O   UNL     1     112.397 129.028 139.797  0.00  0.00    +0.000 OA
BRANCH  23  25
ATOM     24  O   UNL     1     113.519 128.327 140.340  0.00  0.00    +0.000 OA
ATOM     25  C   UNL     1     112.765 128.649 140.432  0.00  0.00    +0.000 C 
BRANCH  25  29
ATOM     26  O   UNL     1     111.037 127.230 142.212  0.00  0.00    +0.000 OA
ATOM     27  O   UNL     1     112.170 129.730 143.010  0.00  0.00    +0.000 OA
ATOM     28  O   UNL     1     111.216 128.424 143.337  0.00  0.00    +0.000 OA
ATOM     29  C   UNL     1     112.378 128.592 141.158  0.00  0.00    +0.000 A 
ATOM     30  C   UNL     1     112.467 129.189 141.721  0.00  0.00    +0.000 A 
ATOM     31  C   UNL     1     111.901 127.939 141.322  0.00  0.00    +0.000 A 
ATOM     32  C   UNL     1     111.514 127.883 142.048  0.00  0.00    +0.000 A 
ATOM     33  C   UNL     1     112.080 129.133 142.447  0.00  0.00    +0.000 A 
ATOM     34  C   UNL     1     111.603 128.480 142.611  0.00  0.00    +0.000 A 
ENDBRANCH  25  29
ENDBRANCH  23  25
ENDBRANCH  20  23
ENDBRANCH   6  16
BRANCH   5  35
ATOM     35  O   UNL     1     111.626 127.397 137.172  0.00  0.00    +0.000 OA
BRANCH  35  44
ATOM     36  O   UNL     1     110.864 126.663 138.132  0.00  0.00    +0.000 OA
ATOM     37  O   UNL     1     108.788 127.203 136.897  0.00  0.00    +0.000 OA
ATOM     38  O   UNL     1     108.717 126.289 138.268  0.00  0.00    +0.000 OA
ATOM     39  O   UNL     1     110.243 127.758 136.348  0.00  0.00    +0.000 OA
ATOM     40  C   UNL     1     109.480 127.023 137.308  0.00  0.00    +0.000 C 
ATOM     41  C   UNL     1     109.445 126.566 137.994  0.00  0.00    +0.000 C 
ATOM     42  C   UNL     1     110.207 127.300 137.035  0.00  0.00    +0.000 C 
ATOM     43  C   UNL     1     110.137 126.386 138.406  0.00  0.00    +0.000 C 
ATOM     44  C   UNL     1     110.899 127.120 137.447  0.00  0.00    +0.000 C 
ATOM     45  C   UNL     1     110.101 125.928 139.092  0.00  0.00    +0.000 C 
ENDBRANCH  35  44
ENDBRANCH   5  35
TORSDOF 6
ENDMDL
MODEL 9
REMARK VINA RESULT:     -10.6      7.228     11.502
REMARK  Name = 74978295
REMARK  6 active torsions:
REMARK  status: ('A' for Active; 'I' for Inactive)
REMARK    1  A    between atoms: O_2  and  C_21
REMARK    2  A    between atoms: O_2  and  C_23
REMARK    3  A    between atoms: O_9  and  C_34
REMARK    4  A    between atoms: O_9  and  C_39
REMARK    5  A    between atoms: C_24  and  C_26
REMARK    6  A    between atoms: C_39  and  C_40
REMARK                            x       y       z     vdW  Elec       q    Type
REMARK                         _______ _______ _______ _____ _____    ______ ____
ROOT
ATOM      1  O   UNL     1     112.833 127.365 136.426  0.00  0.00    +0.000 OA
ATOM      2  O   UNL     1     111.167 128.699 135.172  0.00  0.00    +0.000 OA
ATOM      3  O   UNL     1     112.207 129.538 134.627  0.00  0.00    +0.000 OA
ATOM      4  O   UNL     1     114.984 129.017 135.366  0.00  0.00    +0.000 OA
ATOM      5  C   UNL     1     111.475 127.624 136.062  0.00  0.00    +0.000 A 
ATOM      6  C   UNL     1     112.031 127.180 136.480  0.00  0.00    +0.000 A 
ATOM      7  C   UNL     1     111.723 128.255 135.590  0.00  0.00    +0.000 A 
ATOM      8  C   UNL     1     112.525 128.440 135.536  0.00  0.00    +0.000 A 
ATOM      9  C   UNL     1     113.080 127.995 135.955  0.00  0.00    +0.000 A 
ATOM     10  C   UNL     1     112.770 129.098 135.042  0.00  0.00    +0.000 A 
ATOM     11  C   UNL     1     113.917 128.179 135.907  0.00  0.00    +0.000 A 
ATOM     12  C   UNL     1     113.603 129.297 134.982  0.00  0.00    +0.000 A 
ATOM     13  C   UNL     1     114.182 128.834 135.418  0.00  0.00    +0.000 A 
ENDROOT
BRANCH   6  16
ATOM     14  O   UNL     1     111.469 124.396 136.795  0.00  0.00    +0.000 OA
ATOM     15  O   UNL     1     111.042 124.660 138.367  0.00  0.00    +0.000 OA
ATOM     16  C   UNL     1     111.783 126.549 136.952  0.00  0.00    +0.000 A 
ATOM     17  C   UNL     1     111.750 125.787 136.638  0.00  0.00    +0.000 A 
ATOM     18  C   UNL     1     111.570 126.682 137.737  0.00  0.00    +0.000 A 
ATOM     19  C   UNL     1     111.502 125.158 137.109  0.00  0.00    +0.000 A 
ATOM     20  C   UNL     1     111.323 126.051 138.209  0.00  0.00    +0.000 A 
ATOM     21  C   UNL     1     111.963 125.656 135.851  0.00  0.00    +0.000 C 
ATOM     22  C   UNL     1     111.289 125.289 137.895  0.00  0.00    +0.000 A 
BRANCH  20  23
ATOM     23  O   UNL     1     111.109 126.184 138.995  0.00  0.00    +0.000 OA
BRANCH  23  25
ATOM     24  O   UNL     1     112.466 126.451 139.359  0.00  0.00    +0.000 OA
ATOM     25  C   UNL     1     111.659 126.502 139.523  0.00  0.00    +0.000 C 
BRANCH  25  29
ATOM     26  O   UNL     1     111.620 128.777 141.252  0.00  0.00    +0.000 OA
ATOM     27  O   UNL     1     110.143 126.431 141.945  0.00  0.00    +0.000 OA
ATOM     28  O   UNL     1     110.622 127.971 142.290  0.00  0.00    +0.000 OA
ATOM     29  C   UNL     1     111.400 126.870 140.215  0.00  0.00    +0.000 A 
ATOM     30  C   UNL     1     110.901 126.466 140.734  0.00  0.00    +0.000 A 
ATOM     31  C   UNL     1     111.640 127.640 140.387  0.00  0.00    +0.000 A 
ATOM     32  C   UNL     1     111.380 128.007 141.079  0.00  0.00    +0.000 A 
ATOM     33  C   UNL     1     110.642 126.834 141.426  0.00  0.00    +0.000 A 
ATOM     34  C   UNL     1     110.882 127.604 141.598  0.00  0.00    +0.000 A 
ENDBRANCH  25  29
ENDBRANCH  23  25
ENDBRANCH  20  23
ENDBRANCH   6  16
BRANCH   5  35
ATOM     35  O   UNL     1     110.673 127.438 136.115  0.00  0.00    +0.000 OA
BRANCH  35  44
ATOM     36  O   UNL     1     110.322 128.560 136.928  0.00  0.00    +0.000 OA
ATOM     37  O   UNL     1     108.113 128.674 135.817  0.00  0.00    +0.000 OA
ATOM     38  O   UNL     1     108.499 129.758 137.000  0.00  0.00    +0.000 OA
ATOM     39  O   UNL     1     109.201 127.514 135.375  0.00  0.00    +0.000 OA
ATOM     40  C   UNL     1     108.850 128.636 136.187  0.00  0.00    +0.000 C 
ATOM     41  C   UNL     1     109.043 129.177 136.779  0.00  0.00    +0.000 C 
ATOM     42  C   UNL     1     109.394 128.056 135.967  0.00  0.00    +0.000 C 
ATOM     43  C   UNL     1     109.779 129.140 137.149  0.00  0.00    +0.000 C 
ATOM     44  C   UNL     1     110.130 128.019 136.337  0.00  0.00    +0.000 C 
ATOM     45  C   UNL     1     109.972 129.682 137.740  0.00  0.00    +0.000 C 
ENDBRANCH  35  44
ENDBRANCH   5  35
TORSDOF 6
ENDMDL
MODEL 10
REMARK VINA RESULT:     -10.5      8.054     12.250
REMARK  Name = 74978295
REMARK  6 active torsions:
REMARK  status: ('A' for Active; 'I' for Inactive)
REMARK    1  A    between atoms: O_2  and  C_21
REMARK    2  A    between atoms: O_2  and  C_23
REMARK    3  A    between atoms: O_9  and  C_34
REMARK    4  A    between atoms: O_9  and  C_39
REMARK    5  A    between atoms: C_24  and  C_26
REMARK    6  A    between atoms: C_39  and  C_40
REMARK                            x       y       z     vdW  Elec       q    Type
REMARK                         _______ _______ _______ _____ _____    ______ ____
ROOT
ATOM      1  O   UNL     1     111.814 126.165 136.434  0.00  0.00    +0.000 OA
ATOM      2  O   UNL     1     112.086 128.385 135.375  0.00  0.00    +0.000 OA
ATOM      3  O   UNL     1     110.875 128.200 134.613  0.00  0.00    +0.000 OA
ATOM      4  O   UNL     1     109.361 125.723 134.928  0.00  0.00    +0.000 OA
ATOM      5  C   UNL     1     112.552 127.379 136.276  0.00  0.00    +0.000 A 
ATOM      6  C   UNL     1     112.461 126.639 136.629  0.00  0.00    +0.000 A 
ATOM      7  C   UNL     1     111.995 127.645 135.728  0.00  0.00    +0.000 A 
ATOM      8  C   UNL     1     111.348 127.171 135.533  0.00  0.00    +0.000 A 
ATOM      9  C   UNL     1     111.259 126.431 135.886  0.00  0.00    +0.000 A 
ATOM     10  C   UNL     1     110.776 127.459 134.961  0.00  0.00    +0.000 A 
ATOM     11  C   UNL     1     110.590 125.928 135.692  0.00  0.00    +0.000 A 
ATOM     12  C   UNL     1     110.101 126.970 134.754  0.00  0.00    +0.000 A 
ATOM     13  C   UNL     1     110.007 126.199 135.121  0.00  0.00    +0.000 A 
ENDROOT
BRANCH   6  16
ATOM     14  O   UNL     1     114.807 125.125 137.239  0.00  0.00    +0.000 OA
ATOM     15  O   UNL     1     114.686 125.575 138.822  0.00  0.00    +0.000 OA
ATOM     16  C   UNL     1     113.018 126.372 137.178  0.00  0.00    +0.000 A 
ATOM     17  C   UNL     1     113.634 125.881 136.935  0.00  0.00    +0.000 A 
ATOM     18  C   UNL     1     112.957 126.598 137.969  0.00  0.00    +0.000 A 
ATOM     19  C   UNL     1     114.190 125.616 137.482  0.00  0.00    +0.000 A 
ATOM     20  C   UNL     1     113.514 126.332 138.517  0.00  0.00    +0.000 A 
ATOM     21  C   UNL     1     113.694 125.656 136.143  0.00  0.00    +0.000 C 
ATOM     22  C   UNL     1     114.130 125.841 138.274  0.00  0.00    +0.000 A 
BRANCH  20  23
ATOM     23  O   UNL     1     113.453 126.557 139.308  0.00  0.00    +0.000 OA
BRANCH  23  25
ATOM     24  O   UNL     1     112.197 125.892 139.463  0.00  0.00    +0.000 OA
ATOM     25  C   UNL     1     112.737 126.465 139.709  0.00  0.00    +0.000 C 
BRANCH  25  29
ATOM     26  O   UNL     1     111.088 127.085 141.960  0.00  0.00    +0.000 OA
ATOM     27  O   UNL     1     113.340 128.733 141.340  0.00  0.00    +0.000 OA
ATOM     28  O   UNL     1     112.040 128.390 142.297  0.00  0.00    +0.000 OA
ATOM     29  C   UNL     1     112.562 126.946 140.356  0.00  0.00    +0.000 A 
ATOM     30  C   UNL     1     113.038 127.599 140.525  0.00  0.00    +0.000 A 
ATOM     31  C   UNL     1     111.912 126.775 140.835  0.00  0.00    +0.000 A 
ATOM     32  C   UNL     1     111.738 127.257 141.482  0.00  0.00    +0.000 A 
ATOM     33  C   UNL     1     112.864 128.080 141.172  0.00  0.00    +0.000 A 
ATOM     34  C   UNL     1     112.214 127.909 141.650  0.00  0.00    +0.000 A 
ENDBRANCH  25  29
ENDBRANCH  23  25
ENDBRANCH  20  23
ENDBRANCH   6  16
BRANCH   5  35
ATOM     35  O   UNL     1     113.198 127.853 136.471  0.00  0.00    +0.000 OA
BRANCH  35  44
ATOM     36  O   UNL     1     112.441 128.807 137.218  0.00  0.00    +0.000 OA
ATOM     37  O   UNL     1     113.997 130.597 136.508  0.00  0.00    +0.000 OA
ATOM     38  O   UNL     1     112.721 130.955 137.492  0.00  0.00    +0.000 OA
ATOM     39  O   UNL     1     114.235 129.046 135.998  0.00  0.00    +0.000 OA
ATOM     40  C   UNL     1     113.478 130.000 136.745  0.00  0.00    +0.000 C 
ATOM     41  C   UNL     1     112.840 130.178 137.236  0.00  0.00    +0.000 C 
ATOM     42  C   UNL     1     113.597 129.225 136.490  0.00  0.00    +0.000 C 
ATOM     43  C   UNL     1     112.322 129.582 137.473  0.00  0.00    +0.000 C 
ATOM     44  C   UNL     1     113.078 128.628 136.727  0.00  0.00    +0.000 C 
ATOM     45  C   UNL     1     111.684 129.762 137.965  0.00  0.00    +0.000 C 
ENDBRANCH  35  44
ENDBRANCH   5  35
TORSDOF 6
ENDMDL
