MODEL 1
REMARK VINA RESULT:      -8.4      0.000      0.000
REMARK  Name = 
REMARK  4 active torsions:
REMARK  status: ('A' for Active; 'I' for Inactive)
REMARK    1  A    between atoms: C_6  and  C_8
REMARK    2  A    between atoms: C_11  and  O_13
REMARK    3  A    between atoms: C_15  and  O_19
REMARK    4  A    between atoms: C_20  and  O_23
REMARK                            x       y       z     vdW  Elec       q    Type
REMARK                         _______ _______ _______ _____ _____    ______ ____
ROOT
ATOM      1  C   UNL     1     104.765 124.347 146.667  0.00  0.00    +0.000 A 
ATOM      2  O   UNL     1     105.104 124.293 147.417  0.00  0.00    +0.000 OA
ATOM      3  C   UNL     1     105.187 124.693 146.047  0.00  0.00    +0.000 A 
ATOM      4  C   UNL     1     105.865 124.583 147.548  0.00  0.00    +0.000 A 
ATOM      5  C   UNL     1     105.947 124.983 146.178  0.00  0.00    +0.000 A 
ATOM      6  C   UNL     1     106.204 124.528 148.298  0.00  0.00    +0.000 A 
ATOM      7  C   UNL     1     106.287 124.929 146.928  0.00  0.00    +0.000 A 
ATOM      8  O   UNL     1     106.369 125.329 145.559  0.00  0.00    +0.000 OA
ATOM      9  C   UNL     1     106.965 124.819 148.429  0.00  0.00    +0.000 A 
ATOM     10  C   UNL     1     107.048 125.219 147.059  0.00  0.00    +0.000 A 
ATOM     11  C   UNL     1     107.388 125.164 147.809  0.00  0.00    +0.000 A 
ATOM     12  O   UNL     1     107.470 125.564 146.440  0.00  0.00    +0.000 OA
ENDROOT
BRANCH   1  18
ATOM     13 BR   UNL     1     101.934 124.615 146.943  0.00  0.00    +0.000 Br
ATOM     14  C   UNL     1     102.588 124.192 146.674  0.00  0.00    +0.000 A 
ATOM     15  C   UNL     1     103.349 124.481 146.805  0.00  0.00    +0.000 A 
ATOM     16  C   UNL     1     102.482 123.478 146.274  0.00  0.00    +0.000 A 
ATOM     17  O   UNL     1     103.455 125.195 147.205  0.00  0.00    +0.000 OA
ATOM     18  C   UNL     1     104.004 124.057 146.536  0.00  0.00    +0.000 A 
ATOM     19  C   UNL     1     103.136 123.055 146.004  0.00  0.00    +0.000 A 
ATOM     20  C   UNL     1     103.897 123.344 146.136  0.00  0.00    +0.000 A 
ENDBRANCH   1  18
BRANCH   3  21
ATOM     21  O   UNL     1     104.847 124.748 145.297  0.00  0.00    +0.000 OA
ATOM     22  C   UNL     1     105.324 124.867 144.636  0.00  0.00    +0.000 C 
ENDBRANCH   3  21
BRANCH   6  23
ATOM     23  O   UNL     1     105.782 124.183 148.917  0.00  0.00    +0.000 OA
ATOM     24  C   UNL     1     105.575 124.633 149.577  0.00  0.00    +0.000 C 
ENDBRANCH   6  23
BRANCH   9  25
ATOM     25  O   UNL     1     107.304 124.764 149.179  0.00  0.00    +0.000 OA
ATOM     26  C   UNL     1     108.109 124.598 149.257  0.00  0.00    +0.000 C 
ENDBRANCH   9  25
TORSDOF 4
ENDMDL
MODEL 2
REMARK VINA RESULT:      -8.3      1.592      3.872
REMARK  Name = 
REMARK  4 active torsions:
REMARK  status: ('A' for Active; 'I' for Inactive)
REMARK    1  A    between atoms: C_6  and  C_8
REMARK    2  A    between atoms: C_11  and  O_13
REMARK    3  A    between atoms: C_15  and  O_19
REMARK    4  A    between atoms: C_20  and  O_23
REMARK                            x       y       z     vdW  Elec       q    Type
REMARK                         _______ _______ _______ _____ _____    ______ ____
ROOT
ATOM      1  C   UNL     1     104.868 124.632 146.943  0.00  0.00    +0.000 A 
ATOM      2  O   UNL     1     104.187 124.456 147.374  0.00  0.00    +0.000 OA
ATOM      3  C   UNL     1     104.935 124.384 146.158  0.00  0.00    +0.000 A 
ATOM      4  C   UNL     1     103.573 124.033 147.021  0.00  0.00    +0.000 A 
ATOM      5  C   UNL     1     104.321 123.961 145.805  0.00  0.00    +0.000 A 
ATOM      6  C   UNL     1     102.892 123.857 147.452  0.00  0.00    +0.000 A 
ATOM      7  C   UNL     1     103.640 123.785 146.236  0.00  0.00    +0.000 A 
ATOM      8  O   UNL     1     104.388 123.713 145.021  0.00  0.00    +0.000 OA
ATOM      9  C   UNL     1     102.278 123.434 147.100  0.00  0.00    +0.000 A 
ATOM     10  C   UNL     1     103.026 123.362 145.884  0.00  0.00    +0.000 A 
ATOM     11  C   UNL     1     102.345 123.186 146.315  0.00  0.00    +0.000 A 
ATOM     12  O   UNL     1     103.093 123.114 145.100  0.00  0.00    +0.000 OA
ENDROOT
BRANCH   1  18
ATOM     13 BR   UNL     1     107.153 124.710 148.656  0.00  0.00    +0.000 Br
ATOM     14  C   UNL     1     106.625 125.093 148.152  0.00  0.00    +0.000 A 
ATOM     15  C   UNL     1     106.011 124.671 147.799  0.00  0.00    +0.000 A 
ATOM     16  C   UNL     1     106.711 125.899 148.000  0.00  0.00    +0.000 A 
ATOM     17  O   UNL     1     105.924 123.864 147.952  0.00  0.00    +0.000 OA
ATOM     18  C   UNL     1     105.482 125.055 147.295  0.00  0.00    +0.000 A 
ATOM     19  C   UNL     1     106.183 126.283 147.495  0.00  0.00    +0.000 A 
ATOM     20  C   UNL     1     105.569 125.860 147.143  0.00  0.00    +0.000 A 
ENDBRANCH   1  18
BRANCH   3  21
ATOM     21  O   UNL     1     105.616 124.560 145.727  0.00  0.00    +0.000 OA
ATOM     22  C   UNL     1     105.583 124.610 144.904  0.00  0.00    +0.000 C 
ENDBRANCH   3  21
BRANCH   6  23
ATOM     23  O   UNL     1     102.826 124.104 148.236  0.00  0.00    +0.000 OA
ATOM     24  C   UNL     1     102.303 124.712 148.435  0.00  0.00    +0.000 C 
ENDBRANCH   6  23
BRANCH   9  25
ATOM     25  O   UNL     1     101.597 123.258 147.531  0.00  0.00    +0.000 OA
ATOM     26  C   UNL     1     101.034 122.740 147.222  0.00  0.00    +0.000 C 
ENDBRANCH   9  25
TORSDOF 4
ENDMDL
MODEL 3
REMARK VINA RESULT:      -8.1     12.360     13.548
REMARK  Name = 
REMARK  4 active torsions:
REMARK  status: ('A' for Active; 'I' for Inactive)
REMARK    1  A    between atoms: C_6  and  C_8
REMARK    2  A    between atoms: C_11  and  O_13
REMARK    3  A    between atoms: C_15  and  O_19
REMARK    4  A    between atoms: C_20  and  O_23
REMARK                            x       y       z     vdW  Elec       q    Type
REMARK                         _______ _______ _______ _____ _____    ______ ____
ROOT
ATOM      1  C   UNL     1     112.454 125.982 136.389  0.00  0.00    +0.000 A 
ATOM      2  O   UNL     1     112.310 126.753 136.133  0.00  0.00    +0.000 OA
ATOM      3  C   UNL     1     111.925 125.377 136.196  0.00  0.00    +0.000 A 
ATOM      4  C   UNL     1     111.638 126.920 135.684  0.00  0.00    +0.000 A 
ATOM      5  C   UNL     1     111.254 125.544 135.748  0.00  0.00    +0.000 A 
ATOM      6  C   UNL     1     111.493 127.690 135.428  0.00  0.00    +0.000 A 
ATOM      7  C   UNL     1     111.109 126.315 135.491  0.00  0.00    +0.000 A 
ATOM      8  O   UNL     1     110.726 124.940 135.555  0.00  0.00    +0.000 OA
ATOM      9  C   UNL     1     110.822 127.858 134.979  0.00  0.00    +0.000 A 
ATOM     10  C   UNL     1     110.438 126.482 135.043  0.00  0.00    +0.000 A 
ATOM     11  C   UNL     1     110.293 127.253 134.786  0.00  0.00    +0.000 A 
ATOM     12  O   UNL     1     109.910 125.878 134.850  0.00  0.00    +0.000 OA
ENDROOT
BRANCH   1  18
ATOM     13 BR   UNL     1     113.866 126.111 138.870  0.00  0.00    +0.000 Br
ATOM     14  C   UNL     1     113.831 125.880 138.079  0.00  0.00    +0.000 A 
ATOM     15  C   UNL     1     113.160 126.046 137.629  0.00  0.00    +0.000 A 
ATOM     16  C   UNL     1     114.467 125.481 137.737  0.00  0.00    +0.000 A 
ATOM     17  O   UNL     1     112.523 126.445 137.972  0.00  0.00    +0.000 OA
ATOM     18  C   UNL     1     113.126 125.815 136.838  0.00  0.00    +0.000 A 
ATOM     19  C   UNL     1     114.433 125.250 136.946  0.00  0.00    +0.000 A 
ATOM     20  C   UNL     1     113.762 125.417 136.497  0.00  0.00    +0.000 A 
ENDBRANCH   1  18
BRANCH   3  21
ATOM     21  O   UNL     1     112.070 124.607 136.453  0.00  0.00    +0.000 OA
ATOM     22  C   UNL     1     111.582 123.990 136.205  0.00  0.00    +0.000 C 
ENDBRANCH   3  21
BRANCH   6  23
ATOM     23  O   UNL     1     112.021 128.294 135.621  0.00  0.00    +0.000 OA
ATOM     24  C   UNL     1     112.477 128.649 135.031  0.00  0.00    +0.000 C 
ENDBRANCH   6  23
BRANCH   9  25
ATOM     25  O   UNL     1     110.677 128.628 134.723  0.00  0.00    +0.000 OA
ATOM     26  C   UNL     1     109.902 128.888 134.612  0.00  0.00    +0.000 C 
ENDBRANCH   9  25
TORSDOF 4
ENDMDL
MODEL 4
REMARK VINA RESULT:      -8.0     12.394     13.454
REMARK  Name = 
REMARK  4 active torsions:
REMARK  status: ('A' for Active; 'I' for Inactive)
REMARK    1  A    between atoms: C_6  and  C_8
REMARK    2  A    between atoms: C_11  and  O_13
REMARK    3  A    between atoms: C_15  and  O_19
REMARK    4  A    between atoms: C_20  and  O_23
REMARK                            x       y       z     vdW  Elec       q    Type
REMARK                         _______ _______ _______ _____ _____    ______ ____
ROOT
ATOM      1  C   UNL     1     112.505 127.341 136.228  0.00  0.00    +0.000 A 
ATOM      2  O   UNL     1     112.793 126.638 136.546  0.00  0.00    +0.000 OA
ATOM      3  C   UNL     1     111.794 127.343 135.806  0.00  0.00    +0.000 A 
ATOM      4  C   UNL     1     112.373 125.935 136.443  0.00  0.00    +0.000 A 
ATOM      5  C   UNL     1     111.374 126.641 135.703  0.00  0.00    +0.000 A 
ATOM      6  C   UNL     1     112.662 125.231 136.761  0.00  0.00    +0.000 A 
ATOM      7  C   UNL     1     111.663 125.937 136.022  0.00  0.00    +0.000 A 
ATOM      8  O   UNL     1     110.665 126.643 135.282  0.00  0.00    +0.000 OA
ATOM      9  C   UNL     1     112.242 124.528 136.659  0.00  0.00    +0.000 A 
ATOM     10  C   UNL     1     111.243 125.235 135.919  0.00  0.00    +0.000 A 
ATOM     11  C   UNL     1     111.532 124.530 136.237  0.00  0.00    +0.000 A 
ATOM     12  O   UNL     1     110.534 125.236 135.498  0.00  0.00    +0.000 OA
ENDROOT
BRANCH   1  18
ATOM     13 BR   UNL     1     113.250 129.561 137.865  0.00  0.00    +0.000 Br
ATOM     14  C   UNL     1     113.297 129.154 137.149  0.00  0.00    +0.000 A 
ATOM     15  C   UNL     1     112.878 128.452 137.046  0.00  0.00    +0.000 A 
ATOM     16  C   UNL     1     113.763 129.449 136.536  0.00  0.00    +0.000 A 
ATOM     17  O   UNL     1     112.411 128.156 137.659  0.00  0.00    +0.000 OA
ATOM     18  C   UNL     1     112.925 128.044 136.330  0.00  0.00    +0.000 A 
ATOM     19  C   UNL     1     113.810 129.042 135.820  0.00  0.00    +0.000 A 
ATOM     20  C   UNL     1     113.391 128.340 135.718  0.00  0.00    +0.000 A 
ENDBRANCH   1  18
BRANCH   3  21
ATOM     21  O   UNL     1     111.506 128.048 135.488  0.00  0.00    +0.000 OA
ATOM     22  C   UNL     1     110.951 128.029 134.879  0.00  0.00    +0.000 C 
ENDBRANCH   3  21
BRANCH   6  23
ATOM     23  O   UNL     1     113.371 125.230 137.182  0.00  0.00    +0.000 OA
ATOM     24  C   UNL     1     114.044 124.877 136.857  0.00  0.00    +0.000 C 
ENDBRANCH   6  23
BRANCH   9  25
ATOM     25  O   UNL     1     112.531 123.825 136.977  0.00  0.00    +0.000 OA
ATOM     26  C   UNL     1     112.019 123.191 137.111  0.00  0.00    +0.000 C 
ENDBRANCH   9  25
TORSDOF 4
ENDMDL
MODEL 5
REMARK VINA RESULT:      -8.0      1.631      4.285
REMARK  Name = 
REMARK  4 active torsions:
REMARK  status: ('A' for Active; 'I' for Inactive)
REMARK    1  A    between atoms: C_6  and  C_8
REMARK    2  A    between atoms: C_11  and  O_13
REMARK    3  A    between atoms: C_15  and  O_19
REMARK    4  A    between atoms: C_20  and  O_23
REMARK                            x       y       z     vdW  Elec       q    Type
REMARK                         _______ _______ _______ _____ _____    ______ ____
ROOT
ATOM      1  C   UNL     1     104.947 124.836 147.489  0.00  0.00    +0.000 A 
ATOM      2  O   UNL     1     104.600 124.514 146.815  0.00  0.00    +0.000 OA
ATOM      3  C   UNL     1     104.527 124.856 148.200  0.00  0.00    +0.000 A 
ATOM      4  C   UNL     1     103.833 124.212 146.848  0.00  0.00    +0.000 A 
ATOM      5  C   UNL     1     103.760 124.555 148.234  0.00  0.00    +0.000 A 
ATOM      6  C   UNL     1     103.486 123.890 146.173  0.00  0.00    +0.000 A 
ATOM      7  C   UNL     1     103.413 124.232 147.559  0.00  0.00    +0.000 A 
ATOM      8  O   UNL     1     103.340 124.575 148.944  0.00  0.00    +0.000 OA
ATOM      9  C   UNL     1     102.719 123.588 146.206  0.00  0.00    +0.000 A 
ATOM     10  C   UNL     1     102.646 123.931 147.592  0.00  0.00    +0.000 A 
ATOM     11  C   UNL     1     102.298 123.609 146.917  0.00  0.00    +0.000 A 
ATOM     12  O   UNL     1     102.226 123.951 148.302  0.00  0.00    +0.000 OA
ENDROOT
BRANCH   1  18
ATOM     13 BR   UNL     1     106.753 126.926 146.761  0.00  0.00    +0.000 Br
ATOM     14  C   UNL     1     106.617 126.184 147.091  0.00  0.00    +0.000 A 
ATOM     15  C   UNL     1     105.851 125.881 147.126  0.00  0.00    +0.000 A 
ATOM     16  C   UNL     1     107.248 125.742 147.388  0.00  0.00    +0.000 A 
ATOM     17  O   UNL     1     105.220 126.323 146.828  0.00  0.00    +0.000 OA
ATOM     18  C   UNL     1     105.715 125.137 147.456  0.00  0.00    +0.000 A 
ATOM     19  C   UNL     1     107.111 124.999 147.719  0.00  0.00    +0.000 A 
ATOM     20  C   UNL     1     106.345 124.697 147.753  0.00  0.00    +0.000 A 
ENDBRANCH   1  18
BRANCH   3  21
ATOM     21  O   UNL     1     104.875 125.178 148.876  0.00  0.00    +0.000 OA
ATOM     22  C   UNL     1     104.517 125.079 149.612  0.00  0.00    +0.000 C 
ENDBRANCH   3  21
BRANCH   6  23
ATOM     23  O   UNL     1     103.906 123.870 145.463  0.00  0.00    +0.000 OA
ATOM     24  C   UNL     1     104.160 123.147 145.154  0.00  0.00    +0.000 C 
ENDBRANCH   6  23
BRANCH   9  25
ATOM     25  O   UNL     1     102.372 123.267 145.531  0.00  0.00    +0.000 OA
ATOM     26  C   UNL     1     101.564 123.101 145.521  0.00  0.00    +0.000 C 
ENDBRANCH   9  25
TORSDOF 4
ENDMDL
MODEL 6
REMARK VINA RESULT:      -7.9      9.679     11.625
REMARK  Name = 
REMARK  4 active torsions:
REMARK  status: ('A' for Active; 'I' for Inactive)
REMARK    1  A    between atoms: C_6  and  C_8
REMARK    2  A    between atoms: C_11  and  O_13
REMARK    3  A    between atoms: C_15  and  O_19
REMARK    4  A    between atoms: C_20  and  O_23
REMARK                            x       y       z     vdW  Elec       q    Type
REMARK                         _______ _______ _______ _____ _____    ______ ____
ROOT
ATOM      1  C   UNL     1     111.700 125.373 137.349  0.00  0.00    +0.000 A 
ATOM      2  O   UNL     1     111.594 125.545 138.148  0.00  0.00    +0.000 OA
ATOM      3  C   UNL     1     111.104 125.554 136.806  0.00  0.00    +0.000 A 
ATOM      4  C   UNL     1     110.895 125.899 138.406  0.00  0.00    +0.000 A 
ATOM      5  C   UNL     1     110.405 125.907 137.063  0.00  0.00    +0.000 A 
ATOM      6  C   UNL     1     110.789 126.071 139.205  0.00  0.00    +0.000 A 
ATOM      7  C   UNL     1     110.299 126.080 137.863  0.00  0.00    +0.000 A 
ATOM      8  O   UNL     1     109.811 126.087 136.520  0.00  0.00    +0.000 OA
ATOM      9  C   UNL     1     110.090 126.425 139.463  0.00  0.00    +0.000 A 
ATOM     10  C   UNL     1     109.600 126.433 138.120  0.00  0.00    +0.000 A 
ATOM     11  C   UNL     1     109.494 126.606 138.920  0.00  0.00    +0.000 A 
ATOM     12  O   UNL     1     109.006 126.613 137.577  0.00  0.00    +0.000 OA
ENDROOT
BRANCH   1  18
ATOM     13 BR   UNL     1     114.446 125.588 136.591  0.00  0.00    +0.000 Br
ATOM     14  C   UNL     1     113.773 125.128 136.712  0.00  0.00    +0.000 A 
ATOM     15  C   UNL     1     113.073 125.480 136.970  0.00  0.00    +0.000 A 
ATOM     16  C   UNL     1     113.799 124.315 136.576  0.00  0.00    +0.000 A 
ATOM     17  O   UNL     1     113.047 126.294 137.107  0.00  0.00    +0.000 OA
ATOM     18  C   UNL     1     112.399 125.019 137.091  0.00  0.00    +0.000 A 
ATOM     19  C   UNL     1     113.125 123.854 136.697  0.00  0.00    +0.000 A 
ATOM     20  C   UNL     1     112.426 124.207 136.954  0.00  0.00    +0.000 A 
ENDBRANCH   1  18
BRANCH   3  21
ATOM     21  O   UNL     1     111.210 125.381 136.006  0.00  0.00    +0.000 OA
ATOM     22  C   UNL     1     110.562 125.371 135.496  0.00  0.00    +0.000 C 
ENDBRANCH   3  21
BRANCH   6  23
ATOM     23  O   UNL     1     111.384 125.891 139.748  0.00  0.00    +0.000 OA
ATOM     24  C   UNL     1     111.778 126.497 140.147  0.00  0.00    +0.000 C 
ENDBRANCH   6  23
BRANCH   9  25
ATOM     25  O   UNL     1     109.984 126.597 140.262  0.00  0.00    +0.000 OA
ATOM     26  C   UNL     1     109.226 126.723 140.562  0.00  0.00    +0.000 C 
ENDBRANCH   9  25
TORSDOF 4
ENDMDL
MODEL 7
REMARK VINA RESULT:      -7.8      6.597      8.003
REMARK  Name = 
REMARK  4 active torsions:
REMARK  status: ('A' for Active; 'I' for Inactive)
REMARK    1  A    between atoms: C_6  and  C_8
REMARK    2  A    between atoms: C_11  and  O_13
REMARK    3  A    between atoms: C_15  and  O_19
REMARK    4  A    between atoms: C_20  and  O_23
REMARK                            x       y       z     vdW  Elec       q    Type
REMARK                         _______ _______ _______ _____ _____    ______ ____
ROOT
ATOM      1  C   UNL     1     102.924 130.337 141.698  0.00  0.00    +0.000 A 
ATOM      2  O   UNL     1     103.397 130.143 142.344  0.00  0.00    +0.000 OA
ATOM      3  C   UNL     1     102.920 129.853 141.029  0.00  0.00    +0.000 A 
ATOM      4  C   UNL     1     103.866 129.465 142.324  0.00  0.00    +0.000 A 
ATOM      5  C   UNL     1     103.389 129.175 141.008  0.00  0.00    +0.000 A 
ATOM      6  C   UNL     1     104.339 129.271 142.971  0.00  0.00    +0.000 A 
ATOM      7  C   UNL     1     103.862 128.980 141.656  0.00  0.00    +0.000 A 
ATOM      8  O   UNL     1     103.385 128.691 140.341  0.00  0.00    +0.000 OA
ATOM      9  C   UNL     1     104.809 128.592 142.951  0.00  0.00    +0.000 A 
ATOM     10  C   UNL     1     104.331 128.302 141.635  0.00  0.00    +0.000 A 
ATOM     11  C   UNL     1     104.805 128.107 142.282  0.00  0.00    +0.000 A 
ATOM     12  O   UNL     1     104.327 127.818 140.967  0.00  0.00    +0.000 OA
ENDROOT
BRANCH   1  18
ATOM     13 BR   UNL     1     102.654 133.168 141.415  0.00  0.00    +0.000 Br
ATOM     14  C   UNL     1     102.321 132.432 141.576  0.00  0.00    +0.000 A 
ATOM     15  C   UNL     1     102.789 131.753 141.557  0.00  0.00    +0.000 A 
ATOM     16  C   UNL     1     101.518 132.373 141.757  0.00  0.00    +0.000 A 
ATOM     17  O   UNL     1     103.592 131.811 141.375  0.00  0.00    +0.000 OA
ATOM     18  C   UNL     1     102.455 131.016 141.718  0.00  0.00    +0.000 A 
ATOM     19  C   UNL     1     101.184 131.636 141.918  0.00  0.00    +0.000 A 
ATOM     20  C   UNL     1     101.653 130.958 141.898  0.00  0.00    +0.000 A 
ENDBRANCH   1  18
BRANCH   3  21
ATOM     21  O   UNL     1     102.447 130.047 140.382  0.00  0.00    +0.000 OA
ATOM     22  C   UNL     1     102.240 129.469 139.832  0.00  0.00    +0.000 C 
ENDBRANCH   3  21
BRANCH   6  23
ATOM     23  O   UNL     1     104.343 129.755 143.639  0.00  0.00    +0.000 OA
ATOM     24  C   UNL     1     105.035 130.147 143.861  0.00  0.00    +0.000 C 
ENDBRANCH   6  23
BRANCH   9  25
ATOM     25  O   UNL     1     105.282 128.398 143.598  0.00  0.00    +0.000 OA
ATOM     26  C   UNL     1     105.564 127.628 143.687  0.00  0.00    +0.000 C 
ENDBRANCH   9  25
TORSDOF 4
ENDMDL
MODEL 8
REMARK VINA RESULT:      -7.8     11.445     13.059
REMARK  Name = 
REMARK  4 active torsions:
REMARK  status: ('A' for Active; 'I' for Inactive)
REMARK    1  A    between atoms: C_6  and  C_8
REMARK    2  A    between atoms: C_11  and  O_13
REMARK    3  A    between atoms: C_15  and  O_19
REMARK    4  A    between atoms: C_20  and  O_23
REMARK                            x       y       z     vdW  Elec       q    Type
REMARK                         _______ _______ _______ _____ _____    ______ ____
ROOT
ATOM      1  C   UNL     1     113.337 126.679 137.706  0.00  0.00    +0.000 A 
ATOM      2  O   UNL     1     113.188 127.238 137.119  0.00  0.00    +0.000 OA
ATOM      3  C   UNL     1     113.256 126.885 138.502  0.00  0.00    +0.000 A 
ATOM      4  C   UNL     1     112.959 128.004 137.325  0.00  0.00    +0.000 A 
ATOM      5  C   UNL     1     113.027 127.650 138.709  0.00  0.00    +0.000 A 
ATOM      6  C   UNL     1     112.811 128.563 136.738  0.00  0.00    +0.000 A 
ATOM      7  C   UNL     1     112.878 128.210 138.121  0.00  0.00    +0.000 A 
ATOM      8  O   UNL     1     112.946 127.856 139.503  0.00  0.00    +0.000 OA
ATOM      9  C   UNL     1     112.581 129.328 136.944  0.00  0.00    +0.000 A 
ATOM     10  C   UNL     1     112.649 128.974 138.327  0.00  0.00    +0.000 A 
ATOM     11  C   UNL     1     112.500 129.534 137.740  0.00  0.00    +0.000 A 
ATOM     12  O   UNL     1     112.568 129.180 139.122  0.00  0.00    +0.000 OA
ENDROOT
BRANCH   1  18
ATOM     13 BR   UNL     1     112.668 124.067 136.763  0.00  0.00    +0.000 Br
ATOM     14  C   UNL     1     113.231 124.607 137.028  0.00  0.00    +0.000 A 
ATOM     15  C   UNL     1     113.003 125.373 137.235  0.00  0.00    +0.000 A 
ATOM     16  C   UNL     1     114.023 124.384 137.087  0.00  0.00    +0.000 A 
ATOM     17  O   UNL     1     112.210 125.597 137.176  0.00  0.00    +0.000 OA
ATOM     18  C   UNL     1     113.566 125.914 137.500  0.00  0.00    +0.000 A 
ATOM     19  C   UNL     1     114.586 124.925 137.352  0.00  0.00    +0.000 A 
ATOM     20  C   UNL     1     114.357 125.690 137.559  0.00  0.00    +0.000 A 
ENDBRANCH   1  18
BRANCH   3  21
ATOM     21  O   UNL     1     113.405 126.325 139.090  0.00  0.00    +0.000 OA
ATOM     22  C   UNL     1     113.518 126.566 139.870  0.00  0.00    +0.000 C 
ENDBRANCH   3  21
BRANCH   6  23
ATOM     23  O   UNL     1     112.891 128.357 135.943  0.00  0.00    +0.000 OA
ATOM     24  C   UNL     1     113.512 128.669 135.497  0.00  0.00    +0.000 C 
ENDBRANCH   6  23
BRANCH   9  25
ATOM     25  O   UNL     1     112.433 129.887 136.357  0.00  0.00    +0.000 OA
ATOM     26  C   UNL     1     111.999 130.567 136.533  0.00  0.00    +0.000 C 
ENDBRANCH   9  25
TORSDOF 4
ENDMDL
MODEL 9
REMARK VINA RESULT:      -7.7      1.896      3.823
REMARK  Name = 
REMARK  4 active torsions:
REMARK  status: ('A' for Active; 'I' for Inactive)
REMARK    1  A    between atoms: C_6  and  C_8
REMARK    2  A    between atoms: C_11  and  O_13
REMARK    3  A    between atoms: C_15  and  O_19
REMARK    4  A    between atoms: C_20  and  O_23
REMARK                            x       y       z     vdW  Elec       q    Type
REMARK                         _______ _______ _______ _____ _____    ______ ____
ROOT
ATOM      1  C   UNL     1     106.015 125.378 146.935  0.00  0.00    +0.000 A 
ATOM      2  O   UNL     1     106.413 125.986 146.544  0.00  0.00    +0.000 OA
ATOM      3  C   UNL     1     105.521 124.869 146.511  0.00  0.00    +0.000 A 
ATOM      4  C   UNL     1     106.317 126.086 145.731  0.00  0.00    +0.000 A 
ATOM      5  C   UNL     1     105.425 124.969 145.699  0.00  0.00    +0.000 A 
ATOM      6  C   UNL     1     106.714 126.694 145.340  0.00  0.00    +0.000 A 
ATOM      7  C   UNL     1     105.823 125.578 145.308  0.00  0.00    +0.000 A 
ATOM      8  O   UNL     1     104.931 124.461 145.276  0.00  0.00    +0.000 OA
ATOM      9  C   UNL     1     106.619 126.794 144.527  0.00  0.00    +0.000 A 
ATOM     10  C   UNL     1     105.727 125.678 144.495  0.00  0.00    +0.000 A 
ATOM     11  C   UNL     1     106.124 126.286 144.104  0.00  0.00    +0.000 A 
ATOM     12  O   UNL     1     105.233 125.170 144.072  0.00  0.00    +0.000 OA
ENDROOT
BRANCH   1  18
ATOM     13 BR   UNL     1     107.575 124.466 149.148  0.00  0.00    +0.000 Br
ATOM     14  C   UNL     1     106.891 124.821 148.855  0.00  0.00    +0.000 A 
ATOM     15  C   UNL     1     106.795 124.922 148.042  0.00  0.00    +0.000 A 
ATOM     16  C   UNL     1     106.303 125.076 149.374  0.00  0.00    +0.000 A 
ATOM     17  O   UNL     1     107.383 124.667 147.522  0.00  0.00    +0.000 OA
ATOM     18  C   UNL     1     106.111 125.278 147.748  0.00  0.00    +0.000 A 
ATOM     19  C   UNL     1     105.619 125.431 149.080  0.00  0.00    +0.000 A 
ATOM     20  C   UNL     1     105.523 125.532 148.267  0.00  0.00    +0.000 A 
ENDBRANCH   1  18
BRANCH   3  21
ATOM     21  O   UNL     1     105.123 124.261 146.903  0.00  0.00    +0.000 OA
ATOM     22  C   UNL     1     104.424 123.956 146.590  0.00  0.00    +0.000 C 
ENDBRANCH   3  21
BRANCH   6  23
ATOM     23  O   UNL     1     107.208 127.202 145.763  0.00  0.00    +0.000 OA
ATOM     24  C   UNL     1     106.979 127.984 145.897  0.00  0.00    +0.000 C 
ENDBRANCH   6  23
BRANCH   9  25
ATOM     25  O   UNL     1     107.016 127.402 144.136  0.00  0.00    +0.000 OA
ATOM     26  C   UNL     1     107.030 127.424 143.311  0.00  0.00    +0.000 C 
ENDBRANCH   9  25
TORSDOF 4
ENDMDL
MODEL 10
REMARK VINA RESULT:      -7.7      1.586      2.195
REMARK  Name = 
REMARK  4 active torsions:
REMARK  status: ('A' for Active; 'I' for Inactive)
REMARK    1  A    between atoms: C_6  and  C_8
REMARK    2  A    between atoms: C_11  and  O_13
REMARK    3  A    between atoms: C_15  and  O_19
REMARK    4  A    between atoms: C_20  and  O_23
REMARK                            x       y       z     vdW  Elec       q    Type
REMARK                         _______ _______ _______ _____ _____    ______ ____
ROOT
ATOM      1  C   UNL     1     103.249 124.111 146.830  0.00  0.00    +0.000 A 
ATOM      2  O   UNL     1     103.623 124.748 147.196  0.00  0.00    +0.000 OA
ATOM      3  C   UNL     1     103.641 123.684 146.241  0.00  0.00    +0.000 A 
ATOM      4  C   UNL     1     104.389 124.959 146.975  0.00  0.00    +0.000 A 
ATOM      5  C   UNL     1     104.406 123.896 146.019  0.00  0.00    +0.000 A 
ATOM      6  C   UNL     1     104.764 125.596 147.341  0.00  0.00    +0.000 A 
ATOM      7  C   UNL     1     104.781 124.533 146.386  0.00  0.00    +0.000 A 
ATOM      8  O   UNL     1     104.798 123.470 145.431  0.00  0.00    +0.000 OA
ATOM      9  C   UNL     1     105.530 125.808 147.119  0.00  0.00    +0.000 A 
ATOM     10  C   UNL     1     105.547 124.744 146.164  0.00  0.00    +0.000 A 
ATOM     11  C   UNL     1     105.922 125.381 146.531  0.00  0.00    +0.000 A 
ATOM     12  O   UNL     1     105.938 124.318 145.576  0.00  0.00    +0.000 OA
ENDROOT
BRANCH   1  18
ATOM     13 BR   UNL     1     101.461 122.883 148.690  0.00  0.00    +0.000 Br
ATOM     14  C   UNL     1     101.589 123.285 147.982  0.00  0.00    +0.000 A 
ATOM     15  C   UNL     1     102.355 123.497 147.760  0.00  0.00    +0.000 A 
ATOM     16  C   UNL     1     100.952 123.475 147.494  0.00  0.00    +0.000 A 
ATOM     17  O   UNL     1     102.993 123.307 148.248  0.00  0.00    +0.000 OA
ATOM     18  C   UNL     1     102.482 123.899 147.051  0.00  0.00    +0.000 A 
ATOM     19  C   UNL     1     101.079 123.877 146.785  0.00  0.00    +0.000 A 
ATOM     20  C   UNL     1     101.845 124.089 146.564  0.00  0.00    +0.000 A 
ENDBRANCH   1  18
BRANCH   3  21
ATOM     21  O   UNL     1     103.265 123.047 145.875  0.00  0.00    +0.000 OA
ATOM     22  C   UNL     1     103.566 122.739 145.172  0.00  0.00    +0.000 C 
ENDBRANCH   3  21
BRANCH   6  23
ATOM     23  O   UNL     1     104.372 126.022 147.929  0.00  0.00    +0.000 OA
ATOM     24  C   UNL     1     104.123 126.795 147.782  0.00  0.00    +0.000 C 
ENDBRANCH   6  23
BRANCH   9  25
ATOM     25  O   UNL     1     105.905 126.444 147.486  0.00  0.00    +0.000 OA
ATOM     26  C   UNL     1     106.711 126.575 147.365  0.00  0.00    +0.000 C 
ENDBRANCH   9  25
TORSDOF 4
ENDMDL
