MODEL 1
REMARK VINA RESULT:     -10.4      0.000      0.000
REMARK  Name = 44259008
REMARK  7 active torsions:
REMARK  status: ('A' for Active; 'I' for Inactive)
REMARK    1  A    between atoms: O_2  and  C_15
REMARK    2  A    between atoms: O_2  and  C_20
REMARK    3  A    between atoms: O_3  and  C_17
REMARK    4  A    between atoms: O_3  and  C_19
REMARK    5  A    between atoms: C_20  and  C_26
REMARK    6  A    between atoms: C_21  and  C_25
REMARK    7  A    between atoms: C_32  and  C_36
REMARK                            x       y       z     vdW  Elec       q    Type
REMARK                         _______ _______ _______ _____ _____    ______ ____
ROOT
ATOM      1  O   UNL     1     112.399 126.942 137.109  0.00  0.00    +0.000 OA
ENDROOT
BRANCH   1   6
ATOM      2  O   UNL     1     113.268 128.424 138.455  0.00  0.00    +0.000 OA
ATOM      3  O   UNL     1     112.097 126.247 138.575  0.00  0.00    +0.000 OA
ATOM      4  O   UNL     1     112.174 126.252 140.015  0.00  0.00    +0.000 OA
ATOM      5  O   UNL     1     113.458 128.504 141.361  0.00  0.00    +0.000 OA
ATOM      6  C   UNL     1     112.638 127.320 137.802  0.00  0.00    +0.000 A 
ATOM      7  C   UNL     1     113.028 128.045 137.762  0.00  0.00    +0.000 A 
ATOM      8  C   UNL     1     112.487 126.972 138.535  0.00  0.00    +0.000 A 
ATOM      9  C   UNL     1     112.727 127.350 139.228  0.00  0.00    +0.000 A 
ATOM     10  C   UNL     1     113.117 128.077 139.188  0.00  0.00    +0.000 A 
ATOM     11  C   UNL     1     112.565 126.979 139.985  0.00  0.00    +0.000 A 
ATOM     12  C   UNL     1     113.372 128.480 139.902  0.00  0.00    +0.000 A 
ATOM     13  C   UNL     1     112.811 127.367 140.710  0.00  0.00    +0.000 A 
ATOM     14  C   UNL     1     113.218 128.123 140.669  0.00  0.00    +0.000 A 
BRANCH   7  16
ATOM     15  O   UNL     1     113.630 129.439 134.832  0.00  0.00    +0.000 OA
ATOM     16  C   UNL     1     113.179 128.394 137.029  0.00  0.00    +0.000 A 
ATOM     17  C   UNL     1     112.614 128.885 136.682  0.00  0.00    +0.000 A 
ATOM     18  C   UNL     1     113.894 128.251 136.644  0.00  0.00    +0.000 A 
ATOM     19  C   UNL     1     112.764 129.233 135.950  0.00  0.00    +0.000 A 
ATOM     20  C   UNL     1     114.045 128.600 135.911  0.00  0.00    +0.000 A 
ATOM     21  C   UNL     1     113.480 129.091 135.564  0.00  0.00    +0.000 A 
ENDBRANCH   7  16
ENDBRANCH   1   6
BRANCH   1  29
ATOM     22  O   UNL     1     113.427 125.950 137.133  0.00  0.00    +0.000 OA
ATOM     23  O   UNL     1     111.880 124.321 136.095  0.00  0.00    +0.000 OA
ATOM     24  O   UNL     1     113.424 123.872 136.466  0.00  0.00    +0.000 OA
ATOM     25  C   UNL     1     112.396 124.864 136.441  0.00  0.00    +0.000 C 
ATOM     26  C   UNL     1     113.167 124.639 136.626  0.00  0.00    +0.000 C 
ATOM     27  C   UNL     1     112.139 125.631 136.602  0.00  0.00    +0.000 C 
ATOM     28  C   UNL     1     113.683 125.183 136.972  0.00  0.00    +0.000 C 
ATOM     29  C   UNL     1     112.655 126.174 136.948  0.00  0.00    +0.000 C 
ATOM     30  C   UNL     1     114.455 124.958 137.158  0.00  0.00    +0.000 C 
BRANCH  27  31
ATOM     31  O   UNL     1     111.367 125.856 136.417  0.00  0.00    +0.000 OA
BRANCH  31  33
ATOM     32  O   UNL     1     111.483 126.293 135.061  0.00  0.00    +0.000 OA
ATOM     33  C   UNL     1     111.108 125.832 135.634  0.00  0.00    +0.000 C 
BRANCH  33  34
ATOM     34  C   UNL     1     110.473 125.349 135.424  0.00  0.00    +0.000 C 
ATOM     35  C   UNL     1     109.745 125.685 135.230  0.00  0.00    +0.000 C 
BRANCH  35  37
ATOM     36  O   UNL     1     109.370 128.962 135.294  0.00  0.00    +0.000 OA
ATOM     37  C   UNL     1     109.651 126.504 135.246  0.00  0.00    +0.000 A 
ATOM     38  C   UNL     1     109.914 126.961 134.612  0.00  0.00    +0.000 A 
ATOM     39  C   UNL     1     109.295 126.866 135.896  0.00  0.00    +0.000 A 
ATOM     40  C   UNL     1     109.820 127.782 134.628  0.00  0.00    +0.000 A 
ATOM     41  C   UNL     1     109.201 127.685 135.912  0.00  0.00    +0.000 A 
ATOM     42  C   UNL     1     109.464 128.143 135.278  0.00  0.00    +0.000 A 
ENDBRANCH  35  37
ENDBRANCH  33  34
ENDBRANCH  31  33
ENDBRANCH  27  31
ENDBRANCH   1  29
TORSDOF 7
ENDMDL
MODEL 2
REMARK VINA RESULT:     -10.1      1.745      3.283
REMARK  Name = 44259008
REMARK  7 active torsions:
REMARK  status: ('A' for Active; 'I' for Inactive)
REMARK    1  A    between atoms: O_2  and  C_15
REMARK    2  A    between atoms: O_2  and  C_20
REMARK    3  A    between atoms: O_3  and  C_17
REMARK    4  A    between atoms: O_3  and  C_19
REMARK    5  A    between atoms: C_20  and  C_26
REMARK    6  A    between atoms: C_21  and  C_25
REMARK    7  A    between atoms: C_32  and  C_36
REMARK                            x       y       z     vdW  Elec       q    Type
REMARK                         _______ _______ _______ _____ _____    ______ ____
ROOT
ATOM      1  O   UNL     1     112.465 127.680 137.937  0.00  0.00    +0.000 OA
ENDROOT
BRANCH   1   6
ATOM      2  O   UNL     1     113.457 129.590 138.300  0.00  0.00    +0.000 OA
ATOM      3  O   UNL     1     112.576 127.666 139.583  0.00  0.00    +0.000 OA
ATOM      4  O   UNL     1     112.974 128.277 140.828  0.00  0.00    +0.000 OA
ATOM      5  O   UNL     1     114.288 130.884 140.774  0.00  0.00    +0.000 OA
ATOM      6  C   UNL     1     112.814 128.315 138.332  0.00  0.00    +0.000 A 
ATOM      7  C   UNL     1     113.108 128.956 137.905  0.00  0.00    +0.000 A 
ATOM      8  C   UNL     1     112.869 128.307 139.156  0.00  0.00    +0.000 A 
ATOM      9  C   UNL     1     113.218 128.941 139.551  0.00  0.00    +0.000 A 
ATOM     10  C   UNL     1     113.512 129.583 139.123  0.00  0.00    +0.000 A 
ATOM     11  C   UNL     1     113.270 128.923 140.408  0.00  0.00    +0.000 A 
ATOM     12  C   UNL     1     113.878 130.250 139.524  0.00  0.00    +0.000 A 
ATOM     13  C   UNL     1     113.633 129.580 140.826  0.00  0.00    +0.000 A 
ATOM     14  C   UNL     1     113.939 130.249 140.381  0.00  0.00    +0.000 A 
BRANCH   7  16
ATOM     15  O   UNL     1     112.890 128.985 134.612  0.00  0.00    +0.000 OA
ATOM     16  C   UNL     1     113.053 128.963 137.082  0.00  0.00    +0.000 A 
ATOM     17  C   UNL     1     113.600 128.544 136.628  0.00  0.00    +0.000 A 
ATOM     18  C   UNL     1     112.452 129.389 136.712  0.00  0.00    +0.000 A 
ATOM     19  C   UNL     1     113.547 128.551 135.805  0.00  0.00    +0.000 A 
ATOM     20  C   UNL     1     112.397 129.397 135.888  0.00  0.00    +0.000 A 
ATOM     21  C   UNL     1     112.944 128.978 135.435  0.00  0.00    +0.000 A 
ENDBRANCH   7  16
ENDBRANCH   1   6
BRANCH   1  29
ATOM     22  O   UNL     1     111.118 128.060 138.224  0.00  0.00    +0.000 OA
ATOM     23  O   UNL     1     110.469 125.675 138.337  0.00  0.00    +0.000 OA
ATOM     24  O   UNL     1     109.338 126.850 138.586  0.00  0.00    +0.000 OA
ATOM     25  C   UNL     1     110.686 126.470 138.299  0.00  0.00    +0.000 C 
ATOM     26  C   UNL     1     110.120 127.057 138.424  0.00  0.00    +0.000 C 
ATOM     27  C   UNL     1     111.467 126.677 138.137  0.00  0.00    +0.000 C 
ATOM     28  C   UNL     1     110.337 127.852 138.386  0.00  0.00    +0.000 C 
ATOM     29  C   UNL     1     111.683 127.472 138.099  0.00  0.00    +0.000 C 
ATOM     30  C   UNL     1     109.771 128.440 138.511  0.00  0.00    +0.000 C 
BRANCH  27  31
ATOM     31  O   UNL     1     112.033 126.090 138.012  0.00  0.00    +0.000 OA
BRANCH  31  33
ATOM     32  O   UNL     1     111.898 125.806 136.617  0.00  0.00    +0.000 OA
ATOM     33  C   UNL     1     111.933 125.546 137.400  0.00  0.00    +0.000 C 
BRANCH  33  34
ATOM     34  C   UNL     1     111.870 124.741 137.569  0.00  0.00    +0.000 C 
ATOM     35  C   UNL     1     112.507 124.237 137.427  0.00  0.00    +0.000 C 
BRANCH  35  37
ATOM     36  O   UNL     1     115.316 125.442 136.185  0.00  0.00    +0.000 OA
ATOM     37  C   UNL     1     113.209 124.538 137.117  0.00  0.00    +0.000 A 
ATOM     38  C   UNL     1     113.836 124.726 137.619  0.00  0.00    +0.000 A 
ATOM     39  C   UNL     1     113.285 124.652 136.303  0.00  0.00    +0.000 A 
ATOM     40  C   UNL     1     114.539 125.027 137.308  0.00  0.00    +0.000 A 
ATOM     41  C   UNL     1     113.987 124.953 135.992  0.00  0.00    +0.000 A 
ATOM     42  C   UNL     1     114.614 125.140 136.495  0.00  0.00    +0.000 A 
ENDBRANCH  35  37
ENDBRANCH  33  34
ENDBRANCH  31  33
ENDBRANCH  27  31
ENDBRANCH   1  29
TORSDOF 7
ENDMDL
MODEL 3
REMARK VINA RESULT:     -10.1      1.242      2.860
REMARK  Name = 44259008
REMARK  7 active torsions:
REMARK  status: ('A' for Active; 'I' for Inactive)
REMARK    1  A    between atoms: O_2  and  C_15
REMARK    2  A    between atoms: O_2  and  C_20
REMARK    3  A    between atoms: O_3  and  C_17
REMARK    4  A    between atoms: O_3  and  C_19
REMARK    5  A    between atoms: C_20  and  C_26
REMARK    6  A    between atoms: C_21  and  C_25
REMARK    7  A    between atoms: C_32  and  C_36
REMARK                            x       y       z     vdW  Elec       q    Type
REMARK                         _______ _______ _______ _____ _____    ______ ____
ROOT
ATOM      1  O   UNL     1     112.314 127.661 136.802  0.00  0.00    +0.000 OA
ENDROOT
BRANCH   1   6
ATOM      2  O   UNL     1     113.223 129.590 137.266  0.00  0.00    +0.000 OA
ATOM      3  O   UNL     1     113.421 127.786 135.584  0.00  0.00    +0.000 OA
ATOM      4  O   UNL     1     114.473 128.499 134.901  0.00  0.00    +0.000 OA
ATOM      5  O   UNL     1     115.343 131.085 135.941  0.00  0.00    +0.000 OA
ATOM      6  C   UNL     1     112.802 128.325 136.754  0.00  0.00    +0.000 A 
ATOM      7  C   UNL     1     112.736 128.926 137.314  0.00  0.00    +0.000 A 
ATOM      8  C   UNL     1     113.355 128.387 136.144  0.00  0.00    +0.000 A 
ATOM      9  C   UNL     1     113.842 129.051 136.096  0.00  0.00    +0.000 A 
ATOM     10  C   UNL     1     113.776 129.653 136.658  0.00  0.00    +0.000 A 
ATOM     11  C   UNL     1     114.415 129.105 135.458  0.00  0.00    +0.000 A 
ATOM     12  C   UNL     1     114.278 130.349 136.619  0.00  0.00    +0.000 A 
ATOM     13  C   UNL     1     114.925 129.794 135.403  0.00  0.00    +0.000 A 
ATOM     14  C   UNL     1     114.857 130.420 135.987  0.00  0.00    +0.000 A 
BRANCH   7  16
ATOM     15  O   UNL     1     110.522 128.679 139.749  0.00  0.00    +0.000 OA
ATOM     16  C   UNL     1     112.183 128.864 137.924  0.00  0.00    +0.000 A 
ATOM     17  C   UNL     1     111.393 129.059 137.785  0.00  0.00    +0.000 A 
ATOM     18  C   UNL     1     112.418 128.606 138.670  0.00  0.00    +0.000 A 
ATOM     19  C   UNL     1     110.840 128.998 138.393  0.00  0.00    +0.000 A 
ATOM     20  C   UNL     1     111.865 128.544 139.280  0.00  0.00    +0.000 A 
ATOM     21  C   UNL     1     111.076 128.740 139.141  0.00  0.00    +0.000 A 
ENDBRANCH   7  16
ENDBRANCH   1   6
BRANCH   1  29
ATOM     22  O   UNL     1     113.299 126.782 137.349  0.00  0.00    +0.000 OA
ATOM     23  O   UNL     1     112.341 124.902 136.055  0.00  0.00    +0.000 OA
ATOM     24  O   UNL     1     113.645 124.650 137.034  0.00  0.00    +0.000 OA
ATOM     25  C   UNL     1     112.660 125.529 136.487  0.00  0.00    +0.000 C 
ATOM     26  C   UNL     1     113.312 125.403 136.975  0.00  0.00    +0.000 C 
ATOM     27  C   UNL     1     112.328 126.281 136.428  0.00  0.00    +0.000 C 
ATOM     28  C   UNL     1     113.632 126.029 137.406  0.00  0.00    +0.000 C 
ATOM     29  C   UNL     1     112.647 126.908 136.860  0.00  0.00    +0.000 C 
ATOM     30  C   UNL     1     114.284 125.903 137.896  0.00  0.00    +0.000 C 
BRANCH  27  31
ATOM     31  O   UNL     1     111.675 126.408 135.939  0.00  0.00    +0.000 OA
BRANCH  31  33
ATOM     32  O   UNL     1     110.583 126.029 136.780  0.00  0.00    +0.000 OA
ATOM     33  C   UNL     1     110.981 125.978 136.059  0.00  0.00    +0.000 C 
BRANCH  33  34
ATOM     34  C   UNL     1     110.684 125.497 135.458  0.00  0.00    +0.000 C 
ATOM     35  C   UNL     1     110.027 125.738 135.023  0.00  0.00    +0.000 C 
BRANCH  35  37
ATOM     36  O   UNL     1     108.581 128.630 135.684  0.00  0.00    +0.000 OA
ATOM     37  C   UNL     1     109.665 126.461 135.188  0.00  0.00    +0.000 A 
ATOM     38  C   UNL     1     109.875 127.134 134.761  0.00  0.00    +0.000 A 
ATOM     39  C   UNL     1     109.094 126.511 135.781  0.00  0.00    +0.000 A 
ATOM     40  C   UNL     1     109.514 127.858 134.926  0.00  0.00    +0.000 A 
ATOM     41  C   UNL     1     108.732 127.233 135.946  0.00  0.00    +0.000 A 
ATOM     42  C   UNL     1     108.942 127.906 135.519  0.00  0.00    +0.000 A 
ENDBRANCH  35  37
ENDBRANCH  33  34
ENDBRANCH  31  33
ENDBRANCH  27  31
ENDBRANCH   1  29
TORSDOF 7
ENDMDL
MODEL 4
REMARK VINA RESULT:     -10.0      1.122      4.997
REMARK  Name = 44259008
REMARK  7 active torsions:
REMARK  status: ('A' for Active; 'I' for Inactive)
REMARK    1  A    between atoms: O_2  and  C_15
REMARK    2  A    between atoms: O_2  and  C_20
REMARK    3  A    between atoms: O_3  and  C_17
REMARK    4  A    between atoms: O_3  and  C_19
REMARK    5  A    between atoms: C_20  and  C_26
REMARK    6  A    between atoms: C_21  and  C_25
REMARK    7  A    between atoms: C_32  and  C_36
REMARK                            x       y       z     vdW  Elec       q    Type
REMARK                         _______ _______ _______ _____ _____    ______ ____
ROOT
ATOM      1  O   UNL     1     112.548 127.488 137.384  0.00  0.00    +0.000 OA
ENDROOT
BRANCH   1   6
ATOM      2  O   UNL     1     111.794 125.809 136.211  0.00  0.00    +0.000 OA
ATOM      3  O   UNL     1     111.141 128.122 136.799  0.00  0.00    +0.000 OA
ATOM      4  O   UNL     1     109.933 128.011 136.017  0.00  0.00    +0.000 OA
ATOM      5  O   UNL     1     109.376 125.511 134.614  0.00  0.00    +0.000 OA
ATOM      6  C   UNL     1     112.062 127.034 136.895  0.00  0.00    +0.000 A 
ATOM      7  C   UNL     1     112.280 126.263 136.699  0.00  0.00    +0.000 A 
ATOM      8  C   UNL     1     111.359 127.352 136.603  0.00  0.00    +0.000 A 
ATOM      9  C   UNL     1     110.873 126.897 136.115  0.00  0.00    +0.000 A 
ATOM     10  C   UNL     1     111.091 126.125 135.918  0.00  0.00    +0.000 A 
ATOM     11  C   UNL     1     110.143 127.238 135.816  0.00  0.00    +0.000 A 
ATOM     12  C   UNL     1     110.593 125.643 135.411  0.00  0.00    +0.000 A 
ATOM     13  C   UNL     1     109.633 126.771 135.307  0.00  0.00    +0.000 A 
ATOM     14  C   UNL     1     109.859 125.967 135.102  0.00  0.00    +0.000 A 
BRANCH   7  16
ATOM     15  O   UNL     1     115.091 124.992 137.870  0.00  0.00    +0.000 OA
ATOM     16  C   UNL     1     112.983 125.945 136.991  0.00  0.00    +0.000 A 
ATOM     17  C   UNL     1     113.013 125.651 137.762  0.00  0.00    +0.000 A 
ATOM     18  C   UNL     1     113.655 125.922 136.515  0.00  0.00    +0.000 A 
ATOM     19  C   UNL     1     113.716 125.333 138.055  0.00  0.00    +0.000 A 
ATOM     20  C   UNL     1     114.358 125.604 136.807  0.00  0.00    +0.000 A 
ATOM     21  C   UNL     1     114.389 125.310 137.577  0.00  0.00    +0.000 A 
ENDBRANCH   7  16
ENDBRANCH   1   6
BRANCH   1  29
ATOM     22  O   UNL     1     113.120 128.277 136.339  0.00  0.00    +0.000 OA
ATOM     23  O   UNL     1     113.193 130.232 137.855  0.00  0.00    +0.000 OA
ATOM     24  O   UNL     1     113.741 130.369 136.305  0.00  0.00    +0.000 OA
ATOM     25  C   UNL     1     113.169 129.580 137.350  0.00  0.00    +0.000 C 
ATOM     26  C   UNL     1     113.443 129.649 136.575  0.00  0.00    +0.000 C 
ATOM     27  C   UNL     1     112.871 128.860 137.619  0.00  0.00    +0.000 C 
ATOM     28  C   UNL     1     113.418 128.997 136.070  0.00  0.00    +0.000 C 
ATOM     29  C   UNL     1     112.846 128.209 137.114  0.00  0.00    +0.000 C 
ATOM     30  C   UNL     1     113.693 129.066 135.294  0.00  0.00    +0.000 C 
BRANCH  27  31
ATOM     31  O   UNL     1     112.596 128.791 138.395  0.00  0.00    +0.000 OA
BRANCH  31  33
ATOM     32  O   UNL     1     113.787 128.490 139.126  0.00  0.00    +0.000 OA
ATOM     33  C   UNL     1     113.104 128.943 139.027  0.00  0.00    +0.000 C 
BRANCH  33  34
ATOM     34  C   UNL     1     112.931 129.549 139.559  0.00  0.00    +0.000 C 
ATOM     35  C   UNL     1     112.652 129.368 140.314  0.00  0.00    +0.000 C 
BRANCH  35  37
ATOM     36  O   UNL     1     112.233 126.219 141.205  0.00  0.00    +0.000 OA
ATOM     37  C   UNL     1     112.547 128.581 140.537  0.00  0.00    +0.000 A 
ATOM     38  C   UNL     1     113.191 128.137 140.800  0.00  0.00    +0.000 A 
ATOM     39  C   UNL     1     111.799 128.236 140.496  0.00  0.00    +0.000 A 
ATOM     40  C   UNL     1     113.086 127.349 141.023  0.00  0.00    +0.000 A 
ATOM     41  C   UNL     1     111.693 127.450 140.719  0.00  0.00    +0.000 A 
ATOM     42  C   UNL     1     112.337 127.006 140.982  0.00  0.00    +0.000 A 
ENDBRANCH  35  37
ENDBRANCH  33  34
ENDBRANCH  31  33
ENDBRANCH  27  31
ENDBRANCH   1  29
TORSDOF 7
ENDMDL
MODEL 5
REMARK VINA RESULT:      -9.9      1.371      4.064
REMARK  Name = 44259008
REMARK  7 active torsions:
REMARK  status: ('A' for Active; 'I' for Inactive)
REMARK    1  A    between atoms: O_2  and  C_15
REMARK    2  A    between atoms: O_2  and  C_20
REMARK    3  A    between atoms: O_3  and  C_17
REMARK    4  A    between atoms: O_3  and  C_19
REMARK    5  A    between atoms: C_20  and  C_26
REMARK    6  A    between atoms: C_21  and  C_25
REMARK    7  A    between atoms: C_32  and  C_36
REMARK                            x       y       z     vdW  Elec       q    Type
REMARK                         _______ _______ _______ _____ _____    ______ ____
ROOT
ATOM      1  O   UNL     1     112.137 127.347 137.660  0.00  0.00    +0.000 OA
ENDROOT
BRANCH   1   6
ATOM      2  O   UNL     1     113.275 129.095 138.303  0.00  0.00    +0.000 OA
ATOM      3  O   UNL     1     112.137 128.245 136.276  0.00  0.00    +0.000 OA
ATOM      4  O   UNL     1     112.507 129.428 135.537  0.00  0.00    +0.000 OA
ATOM      5  O   UNL     1     114.057 131.511 136.875  0.00  0.00    +0.000 OA
ATOM      6  C   UNL     1     112.517 128.079 137.644  0.00  0.00    +0.000 A 
ATOM      7  C   UNL     1     112.895 128.362 138.319  0.00  0.00    +0.000 A 
ATOM      8  C   UNL     1     112.516 128.528 136.951  0.00  0.00    +0.000 A 
ATOM      9  C   UNL     1     112.895 129.261 136.935  0.00  0.00    +0.000 A 
ATOM     10  C   UNL     1     113.275 129.544 137.611  0.00  0.00    +0.000 A 
ATOM     11  C   UNL     1     112.889 129.720 136.209  0.00  0.00    +0.000 A 
ATOM     12  C   UNL     1     113.673 130.305 137.606  0.00  0.00    +0.000 A 
ATOM     13  C   UNL     1     113.282 130.483 136.185  0.00  0.00    +0.000 A 
ATOM     14  C   UNL     1     113.677 130.779 136.889  0.00  0.00    +0.000 A 
BRANCH   7  16
ATOM     15  O   UNL     1     112.899 126.566 141.087  0.00  0.00    +0.000 OA
ATOM     16  C   UNL     1     112.896 127.914 139.011  0.00  0.00    +0.000 A 
ATOM     17  C   UNL     1     113.435 127.295 139.101  0.00  0.00    +0.000 A 
ATOM     18  C   UNL     1     112.358 128.082 139.613  0.00  0.00    +0.000 A 
ATOM     19  C   UNL     1     113.436 126.846 139.793  0.00  0.00    +0.000 A 
ATOM     20  C   UNL     1     112.359 127.634 140.306  0.00  0.00    +0.000 A 
ATOM     21  C   UNL     1     112.897 127.016 140.396  0.00  0.00    +0.000 A 
ENDBRANCH   7  16
ENDBRANCH   1   6
BRANCH   1  29
ATOM     22  O   UNL     1     110.813 127.870 137.777  0.00  0.00    +0.000 OA
ATOM     23  O   UNL     1     109.951 125.993 136.414  0.00  0.00    +0.000 OA
ATOM     24  O   UNL     1     108.913 127.142 136.985  0.00  0.00    +0.000 OA
ATOM     25  C   UNL     1     110.238 126.619 136.868  0.00  0.00    +0.000 C 
ATOM     26  C   UNL     1     109.720 127.193 137.153  0.00  0.00    +0.000 C 
ATOM     27  C   UNL     1     111.043 126.670 137.037  0.00  0.00    +0.000 C 
ATOM     28  C   UNL     1     110.007 127.819 137.608  0.00  0.00    +0.000 C 
ATOM     29  C   UNL     1     111.331 127.296 137.491  0.00  0.00    +0.000 C 
ATOM     30  C   UNL     1     109.488 128.394 137.893  0.00  0.00    +0.000 C 
BRANCH  27  31
ATOM     31  O   UNL     1     111.562 126.095 136.751  0.00  0.00    +0.000 OA
BRANCH  31  33
ATOM     32  O   UNL     1     111.497 125.086 137.762  0.00  0.00    +0.000 OA
ATOM     33  C   UNL     1     111.461 125.305 136.967  0.00  0.00    +0.000 C 
BRANCH  33  34
ATOM     34  C   UNL     1     111.325 124.734 136.388  0.00  0.00    +0.000 C 
ATOM     35  C   UNL     1     111.937 124.234 136.149  0.00  0.00    +0.000 C 
BRANCH  35  37
ATOM     36  O   UNL     1     114.929 124.524 137.507  0.00  0.00    +0.000 OA
ATOM     37  C   UNL     1     112.684 124.306 136.488  0.00  0.00    +0.000 A 
ATOM     38  C   UNL     1     113.263 124.764 136.119  0.00  0.00    +0.000 A 
ATOM     39  C   UNL     1     112.855 123.921 137.197  0.00  0.00    +0.000 A 
ATOM     40  C   UNL     1     114.012 124.837 136.458  0.00  0.00    +0.000 A 
ATOM     41  C   UNL     1     113.603 123.993 137.537  0.00  0.00    +0.000 A 
ATOM     42  C   UNL     1     114.181 124.451 137.167  0.00  0.00    +0.000 A 
ENDBRANCH  35  37
ENDBRANCH  33  34
ENDBRANCH  31  33
ENDBRANCH  27  31
ENDBRANCH   1  29
TORSDOF 7
ENDMDL
MODEL 6
REMARK VINA RESULT:      -9.9      1.779      3.475
REMARK  Name = 44259008
REMARK  7 active torsions:
REMARK  status: ('A' for Active; 'I' for Inactive)
REMARK    1  A    between atoms: O_2  and  C_15
REMARK    2  A    between atoms: O_2  and  C_20
REMARK    3  A    between atoms: O_3  and  C_17
REMARK    4  A    between atoms: O_3  and  C_19
REMARK    5  A    between atoms: C_20  and  C_26
REMARK    6  A    between atoms: C_21  and  C_25
REMARK    7  A    between atoms: C_32  and  C_36
REMARK                            x       y       z     vdW  Elec       q    Type
REMARK                         _______ _______ _______ _____ _____    ______ ____
ROOT
ATOM      1  O   UNL     1     111.845 127.776 136.664  0.00  0.00    +0.000 OA
ENDROOT
BRANCH   1   6
ATOM      2  O   UNL     1     112.274 129.782 137.407  0.00  0.00    +0.000 OA
ATOM      3  O   UNL     1     110.622 127.973 137.753  0.00  0.00    +0.000 OA
ATOM      4  O   UNL     1     109.924 128.761 138.740  0.00  0.00    +0.000 OA
ATOM      5  O   UNL     1     110.917 131.429 139.390  0.00  0.00    +0.000 OA
ATOM      6  C   UNL     1     111.784 128.478 137.093  0.00  0.00    +0.000 A 
ATOM      7  C   UNL     1     112.335 129.081 136.977  0.00  0.00    +0.000 A 
ATOM      8  C   UNL     1     111.172 128.576 137.638  0.00  0.00    +0.000 A 
ATOM      9  C   UNL     1     111.112 129.278 138.067  0.00  0.00    +0.000 A 
ATOM     10  C   UNL     1     111.663 129.882 137.951  0.00  0.00    +0.000 A 
ATOM     11  C   UNL     1     110.471 129.370 138.631  0.00  0.00    +0.000 A 
ATOM     12  C   UNL     1     111.610 130.617 138.392  0.00  0.00    +0.000 A 
ATOM     13  C   UNL     1     110.401 130.098 139.082  0.00  0.00    +0.000 A 
ATOM     14  C   UNL     1     110.975 130.726 138.962  0.00  0.00    +0.000 A 
BRANCH   7  16
ATOM     15  O   UNL     1     114.784 128.687 134.801  0.00  0.00    +0.000 OA
ATOM     16  C   UNL     1     112.947 128.983 136.433  0.00  0.00    +0.000 A 
ATOM     17  C   UNL     1     113.612 128.538 136.636  0.00  0.00    +0.000 A 
ATOM     18  C   UNL     1     112.895 129.328 135.686  0.00  0.00    +0.000 A 
ATOM     19  C   UNL     1     114.224 128.439 136.092  0.00  0.00    +0.000 A 
ATOM     20  C   UNL     1     113.507 129.230 135.141  0.00  0.00    +0.000 A 
ATOM     21  C   UNL     1     114.172 128.786 135.344  0.00  0.00    +0.000 A 
ENDBRANCH   7  16
ENDBRANCH   1   6
BRANCH   1  29
ATOM     22  O   UNL     1     110.803 128.090 135.737  0.00  0.00    +0.000 OA
ATOM     23  O   UNL     1     110.196 125.694 135.609  0.00  0.00    +0.000 OA
ATOM     24  O   UNL     1     109.357 126.806 134.725  0.00  0.00    +0.000 OA
ATOM     25  C   UNL     1     110.399 126.493 135.651  0.00  0.00    +0.000 C 
ATOM     26  C   UNL     1     109.979 127.048 135.210  0.00  0.00    +0.000 C 
ATOM     27  C   UNL     1     111.020 126.735 136.136  0.00  0.00    +0.000 C 
ATOM     28  C   UNL     1     110.181 127.847 135.253  0.00  0.00    +0.000 C 
ATOM     29  C   UNL     1     111.223 127.533 136.179  0.00  0.00    +0.000 C 
ATOM     30  C   UNL     1     109.761 128.404 134.811  0.00  0.00    +0.000 C 
BRANCH  27  31
ATOM     31  O   UNL     1     111.441 126.179 136.578  0.00  0.00    +0.000 OA
BRANCH  31  33
ATOM     32  O   UNL     1     112.388 125.677 135.632  0.00  0.00    +0.000 OA
ATOM     33  C   UNL     1     111.804 125.542 136.200  0.00  0.00    +0.000 C 
BRANCH  33  34
ATOM     34  C   UNL     1     111.584 124.770 136.389  0.00  0.00    +0.000 C 
ATOM     35  C   UNL     1     112.110 124.278 136.792  0.00  0.00    +0.000 C 
BRANCH  35  37
ATOM     36  O   UNL     1     115.090 125.401 137.652  0.00  0.00    +0.000 OA
ATOM     37  C   UNL     1     112.855 124.558 137.007  0.00  0.00    +0.000 A 
ATOM     38  C   UNL     1     112.967 124.905 137.747  0.00  0.00    +0.000 A 
ATOM     39  C   UNL     1     113.488 124.492 136.482  0.00  0.00    +0.000 A 
ATOM     40  C   UNL     1     113.713 125.186 137.962  0.00  0.00    +0.000 A 
ATOM     41  C   UNL     1     114.233 124.773 136.697  0.00  0.00    +0.000 A 
ATOM     42  C   UNL     1     114.345 125.120 137.437  0.00  0.00    +0.000 A 
ENDBRANCH  35  37
ENDBRANCH  33  34
ENDBRANCH  31  33
ENDBRANCH  27  31
ENDBRANCH   1  29
TORSDOF 7
ENDMDL
MODEL 7
REMARK VINA RESULT:      -9.7      1.308      4.614
REMARK  Name = 44259008
REMARK  7 active torsions:
REMARK  status: ('A' for Active; 'I' for Inactive)
REMARK    1  A    between atoms: O_2  and  C_15
REMARK    2  A    between atoms: O_2  and  C_20
REMARK    3  A    between atoms: O_3  and  C_17
REMARK    4  A    between atoms: O_3  and  C_19
REMARK    5  A    between atoms: C_20  and  C_26
REMARK    6  A    between atoms: C_21  and  C_25
REMARK    7  A    between atoms: C_32  and  C_36
REMARK                            x       y       z     vdW  Elec       q    Type
REMARK                         _______ _______ _______ _____ _____    ______ ____
ROOT
ATOM      1  O   UNL     1     112.390 126.997 137.696  0.00  0.00    +0.000 OA
ENDROOT
BRANCH   1   6
ATOM      2  O   UNL     1     113.888 127.473 136.182  0.00  0.00    +0.000 OA
ATOM      3  O   UNL     1     111.964 128.544 137.309  0.00  0.00    +0.000 OA
ATOM      4  O   UNL     1     112.159 129.757 136.553  0.00  0.00    +0.000 OA
ATOM      5  O   UNL     1     114.343 129.889 134.619  0.00  0.00    +0.000 OA
ATOM      6  C   UNL     1     112.819 127.413 137.127  0.00  0.00    +0.000 A 
ATOM      7  C   UNL     1     113.460 127.056 136.751  0.00  0.00    +0.000 A 
ATOM      8  C   UNL     1     112.605 128.187 136.934  0.00  0.00    +0.000 A 
ATOM      9  C   UNL     1     113.033 128.603 136.365  0.00  0.00    +0.000 A 
ATOM     10  C   UNL     1     113.676 128.246 135.989  0.00  0.00    +0.000 A 
ATOM     11  C   UNL     1     112.802 129.407 136.172  0.00  0.00    +0.000 A 
ATOM     12  C   UNL     1     114.130 128.669 135.394  0.00  0.00    +0.000 A 
ATOM     13  C   UNL     1     113.244 129.846 135.580  0.00  0.00    +0.000 A 
ATOM     14  C   UNL     1     113.913 129.475 135.188  0.00  0.00    +0.000 A 
BRANCH   7  16
ATOM     15  O   UNL     1     114.314 123.963 137.520  0.00  0.00    +0.000 OA
ATOM     16  C   UNL     1     113.674 126.283 136.944  0.00  0.00    +0.000 A 
ATOM     17  C   UNL     1     113.426 125.656 136.468  0.00  0.00    +0.000 A 
ATOM     18  C   UNL     1     114.135 126.136 137.611  0.00  0.00    +0.000 A 
ATOM     19  C   UNL     1     113.639 124.883 136.660  0.00  0.00    +0.000 A 
ATOM     20  C   UNL     1     114.349 125.363 137.804  0.00  0.00    +0.000 A 
ATOM     21  C   UNL     1     114.101 124.736 137.328  0.00  0.00    +0.000 A 
ENDBRANCH   7  16
ENDBRANCH   1   6
BRANCH   1  29
ATOM     22  O   UNL     1     111.282 126.648 136.864  0.00  0.00    +0.000 OA
ATOM     23  O   UNL     1     109.742 126.994 138.771  0.00  0.00    +0.000 OA
ATOM     24  O   UNL     1     109.147 126.530 137.304  0.00  0.00    +0.000 OA
ATOM     25  C   UNL     1     110.255 126.879 138.135  0.00  0.00    +0.000 C 
ATOM     26  C   UNL     1     109.958 126.647 137.403  0.00  0.00    +0.000 C 
ATOM     27  C   UNL     1     111.066 126.996 138.233  0.00  0.00    +0.000 C 
ATOM     28  C   UNL     1     110.471 126.531 136.767  0.00  0.00    +0.000 C 
ATOM     29  C   UNL     1     111.579 126.880 137.598  0.00  0.00    +0.000 C 
ATOM     30  C   UNL     1     110.173 126.299 136.033  0.00  0.00    +0.000 C 
BRANCH  27  31
ATOM     31  O   UNL     1     111.364 127.228 138.967  0.00  0.00    +0.000 OA
BRANCH  31  33
ATOM     32  O   UNL     1     111.631 125.979 139.608  0.00  0.00    +0.000 OA
ATOM     33  C   UNL     1     111.287 126.729 139.619  0.00  0.00    +0.000 C 
BRANCH  33  34
ATOM     34  C   UNL     1     110.868 126.980 140.284  0.00  0.00    +0.000 C 
ATOM     35  C   UNL     1     111.272 127.255 140.949  0.00  0.00    +0.000 C 
BRANCH  35  37
ATOM     36  O   UNL     1     114.570 127.349 140.949  0.00  0.00    +0.000 OA
ATOM     37  C   UNL     1     112.096 127.278 140.949  0.00  0.00    +0.000 A 
ATOM     38  C   UNL     1     112.489 127.987 140.793  0.00  0.00    +0.000 A 
ATOM     39  C   UNL     1     112.529 126.593 141.105  0.00  0.00    +0.000 A 
ATOM     40  C   UNL     1     113.314 128.010 140.793  0.00  0.00    +0.000 A 
ATOM     41  C   UNL     1     113.353 126.616 141.105  0.00  0.00    +0.000 A 
ATOM     42  C   UNL     1     113.746 127.325 140.949  0.00  0.00    +0.000 A 
ENDBRANCH  35  37
ENDBRANCH  33  34
ENDBRANCH  31  33
ENDBRANCH  27  31
ENDBRANCH   1  29
TORSDOF 7
ENDMDL
MODEL 8
REMARK VINA RESULT:      -9.7      1.700      4.518
REMARK  Name = 44259008
REMARK  7 active torsions:
REMARK  status: ('A' for Active; 'I' for Inactive)
REMARK    1  A    between atoms: O_2  and  C_15
REMARK    2  A    between atoms: O_2  and  C_20
REMARK    3  A    between atoms: O_3  and  C_17
REMARK    4  A    between atoms: O_3  and  C_19
REMARK    5  A    between atoms: C_20  and  C_26
REMARK    6  A    between atoms: C_21  and  C_25
REMARK    7  A    between atoms: C_32  and  C_36
REMARK                            x       y       z     vdW  Elec       q    Type
REMARK                         _______ _______ _______ _____ _____    ______ ____
ROOT
ATOM      1  O   UNL     1     112.723 128.831 136.923  0.00  0.00    +0.000 OA
ENDROOT
BRANCH   1   6
ATOM      2  O   UNL     1     113.679 130.762 136.581  0.00  0.00    +0.000 OA
ATOM      3  O   UNL     1     113.739 128.459 135.678  0.00  0.00    +0.000 OA
ATOM      4  O   UNL     1     114.745 128.832 134.714  0.00  0.00    +0.000 OA
ATOM      5  O   UNL     1     115.710 131.588 134.662  0.00  0.00    +0.000 OA
ATOM      6  C   UNL     1     113.211 129.413 136.602  0.00  0.00    +0.000 A 
ATOM      7  C   UNL     1     113.191 130.180 136.902  0.00  0.00    +0.000 A 
ATOM      8  C   UNL     1     113.719 129.226 135.979  0.00  0.00    +0.000 A 
ATOM      9  C   UNL     1     114.207 129.808 135.657  0.00  0.00    +0.000 A 
ATOM     10  C   UNL     1     114.187 130.577 135.958  0.00  0.00    +0.000 A 
ATOM     11  C   UNL     1     114.732 129.603 135.008  0.00  0.00    +0.000 A 
ATOM     12  C   UNL     1     114.691 131.191 135.631  0.00  0.00    +0.000 A 
ATOM     13  C   UNL     1     115.243 130.204 134.669  0.00  0.00    +0.000 A 
ATOM     14  C   UNL     1     115.223 131.004 134.982  0.00  0.00    +0.000 A 
BRANCH   7  16
ATOM     15  O   UNL     1     111.161 130.926 139.396  0.00  0.00    +0.000 OA
ATOM     16  C   UNL     1     112.683 130.367 137.525  0.00  0.00    +0.000 A 
ATOM     17  C   UNL     1     112.905 130.199 138.302  0.00  0.00    +0.000 A 
ATOM     18  C   UNL     1     111.954 130.721 137.372  0.00  0.00    +0.000 A 
ATOM     19  C   UNL     1     112.398 130.385 138.926  0.00  0.00    +0.000 A 
ATOM     20  C   UNL     1     111.446 130.907 137.995  0.00  0.00    +0.000 A 
ATOM     21  C   UNL     1     111.668 130.740 138.772  0.00  0.00    +0.000 A 
ENDBRANCH   7  16
ENDBRANCH   1   6
BRANCH   1  29
ATOM     22  O   UNL     1     111.782 128.827 135.847  0.00  0.00    +0.000 OA
ATOM     23  O   UNL     1     111.415 126.402 136.178  0.00  0.00    +0.000 OA
ATOM     24  O   UNL     1     110.597 127.206 134.991  0.00  0.00    +0.000 OA
ATOM     25  C   UNL     1     111.537 127.210 136.068  0.00  0.00    +0.000 C 
ATOM     26  C   UNL     1     111.129 127.612 135.475  0.00  0.00    +0.000 C 
ATOM     27  C   UNL     1     112.068 127.616 136.550  0.00  0.00    +0.000 C 
ATOM     28  C   UNL     1     111.251 128.420 135.365  0.00  0.00    +0.000 C 
ATOM     29  C   UNL     1     112.191 128.424 136.440  0.00  0.00    +0.000 C 
ATOM     30  C   UNL     1     110.842 128.823 134.771  0.00  0.00    +0.000 C 
BRANCH  27  31
ATOM     31  O   UNL     1     112.477 127.214 137.144  0.00  0.00    +0.000 OA
BRANCH  31  33
ATOM     32  O   UNL     1     111.522 127.180 138.206  0.00  0.00    +0.000 OA
ATOM     33  C   UNL     1     112.061 126.791 137.717  0.00  0.00    +0.000 C 
BRANCH  33  34
ATOM     34  C   UNL     1     112.184 125.980 137.802  0.00  0.00    +0.000 C 
ATOM     35  C   UNL     1     112.570 125.688 138.470  0.00  0.00    +0.000 C 
BRANCH  35  37
ATOM     36  O   UNL     1     113.625 127.768 140.804  0.00  0.00    +0.000 OA
ATOM     37  C   UNL     1     112.834 126.208 139.054  0.00  0.00    +0.000 A 
ATOM     38  C   UNL     1     113.620 126.457 139.060  0.00  0.00    +0.000 A 
ATOM     39  C   UNL     1     112.311 126.479 139.632  0.00  0.00    +0.000 A 
ATOM     40  C   UNL     1     113.884 126.977 139.644  0.00  0.00    +0.000 A 
ATOM     41  C   UNL     1     112.574 126.999 140.215  0.00  0.00    +0.000 A 
ATOM     42  C   UNL     1     113.361 127.248 140.221  0.00  0.00    +0.000 A 
ENDBRANCH  35  37
ENDBRANCH  33  34
ENDBRANCH  31  33
ENDBRANCH  27  31
ENDBRANCH   1  29
TORSDOF 7
ENDMDL
MODEL 9
REMARK VINA RESULT:      -9.6      1.855      4.168
REMARK  Name = 44259008
REMARK  7 active torsions:
REMARK  status: ('A' for Active; 'I' for Inactive)
REMARK    1  A    between atoms: O_2  and  C_15
REMARK    2  A    between atoms: O_2  and  C_20
REMARK    3  A    between atoms: O_3  and  C_17
REMARK    4  A    between atoms: O_3  and  C_19
REMARK    5  A    between atoms: C_20  and  C_26
REMARK    6  A    between atoms: C_21  and  C_25
REMARK    7  A    between atoms: C_32  and  C_36
REMARK                            x       y       z     vdW  Elec       q    Type
REMARK                         _______ _______ _______ _____ _____    ______ ____
ROOT
ATOM      1  O   UNL     1     112.165 127.683 138.455  0.00  0.00    +0.000 OA
ENDROOT
BRANCH   1   6
ATOM      2  O   UNL     1     110.796 129.354 138.149  0.00  0.00    +0.000 OA
ATOM      3  O   UNL     1     113.221 128.879 138.036  0.00  0.00    +0.000 OA
ATOM      4  O   UNL     1     113.499 130.241 137.651  0.00  0.00    +0.000 OA
ATOM      5  O   UNL     1     111.281 132.120 137.374  0.00  0.00    +0.000 OA
ATOM      6  C   UNL     1     111.884 128.439 138.283  0.00  0.00    +0.000 A 
ATOM      7  C   UNL     1     111.076 128.597 138.321  0.00  0.00    +0.000 A 
ATOM      8  C   UNL     1     112.413 129.037 138.074  0.00  0.00    +0.000 A 
ATOM      9  C   UNL     1     112.133 129.794 137.903  0.00  0.00    +0.000 A 
ATOM     10  C   UNL     1     111.323 129.953 137.940  0.00  0.00    +0.000 A 
ATOM     11  C   UNL     1     112.692 130.409 137.686  0.00  0.00    +0.000 A 
ATOM     12  C   UNL     1     111.019 130.736 137.764  0.00  0.00    +0.000 A 
ATOM     13  C   UNL     1     112.406 131.199 137.506  0.00  0.00    +0.000 A 
ATOM     14  C   UNL     1     111.564 131.364 137.545  0.00  0.00    +0.000 A 
BRANCH   7  16
ATOM     15  O   UNL     1     108.961 126.205 139.154  0.00  0.00    +0.000 OA
ATOM     16  C   UNL     1     110.547 128.000 138.530  0.00  0.00    +0.000 A 
ATOM     17  C   UNL     1     110.293 127.457 137.962  0.00  0.00    +0.000 A 
ATOM     18  C   UNL     1     110.273 127.943 139.305  0.00  0.00    +0.000 A 
ATOM     19  C   UNL     1     109.764 126.859 138.170  0.00  0.00    +0.000 A 
ATOM     20  C   UNL     1     109.744 127.346 139.514  0.00  0.00    +0.000 A 
ATOM     21  C   UNL     1     109.490 126.803 138.947  0.00  0.00    +0.000 A 
ENDBRANCH   7  16
ENDBRANCH   1   6
BRANCH   1  29
ATOM     22  O   UNL     1     112.644 128.008 139.761  0.00  0.00    +0.000 OA
ATOM     23  O   UNL     1     114.485 126.376 139.492  0.00  0.00    +0.000 OA
ATOM     24  O   UNL     1     114.350 127.245 140.888  0.00  0.00    +0.000 OA
ATOM     25  C   UNL     1     113.871 126.920 139.582  0.00  0.00    +0.000 C 
ATOM     26  C   UNL     1     113.804 127.354 140.279  0.00  0.00    +0.000 C 
ATOM     27  C   UNL     1     113.325 127.029 138.974  0.00  0.00    +0.000 C 
ATOM     28  C   UNL     1     113.190 127.898 140.369  0.00  0.00    +0.000 C 
ATOM     29  C   UNL     1     112.712 127.573 139.063  0.00  0.00    +0.000 C 
ATOM     30  C   UNL     1     113.123 128.333 141.067  0.00  0.00    +0.000 C 
BRANCH  27  31
ATOM     31  O   UNL     1     113.392 126.595 138.275  0.00  0.00    +0.000 OA
BRANCH  31  33
ATOM     32  O   UNL     1     112.792 125.351 138.646  0.00  0.00    +0.000 OA
ATOM     33  C   UNL     1     113.415 125.770 138.304  0.00  0.00    +0.000 C 
BRANCH  33  34
ATOM     34  C   UNL     1     114.061 125.364 137.990  0.00  0.00    +0.000 C 
ATOM     35  C   UNL     1     113.969 124.902 137.313  0.00  0.00    +0.000 C 
BRANCH  35  37
ATOM     36  O   UNL     1     111.015 124.676 135.860  0.00  0.00    +0.000 OA
ATOM     37  C   UNL     1     113.231 124.845 136.950  0.00  0.00    +0.000 A 
ATOM     38  C   UNL     1     113.030 125.364 136.341  0.00  0.00    +0.000 A 
ATOM     39  C   UNL     1     112.693 124.269 137.195  0.00  0.00    +0.000 A 
ATOM     40  C   UNL     1     112.291 125.308 135.978  0.00  0.00    +0.000 A 
ATOM     41  C   UNL     1     111.955 124.213 136.832  0.00  0.00    +0.000 A 
ATOM     42  C   UNL     1     111.754 124.732 136.223  0.00  0.00    +0.000 A 
ENDBRANCH  35  37
ENDBRANCH  33  34
ENDBRANCH  31  33
ENDBRANCH  27  31
ENDBRANCH   1  29
TORSDOF 7
ENDMDL
MODEL 10
REMARK VINA RESULT:      -9.6      1.821      4.358
REMARK  Name = 44259008
REMARK  7 active torsions:
REMARK  status: ('A' for Active; 'I' for Inactive)
REMARK    1  A    between atoms: O_2  and  C_15
REMARK    2  A    between atoms: O_2  and  C_20
REMARK    3  A    between atoms: O_3  and  C_17
REMARK    4  A    between atoms: O_3  and  C_19
REMARK    5  A    between atoms: C_20  and  C_26
REMARK    6  A    between atoms: C_21  and  C_25
REMARK    7  A    between atoms: C_32  and  C_36
REMARK                            x       y       z     vdW  Elec       q    Type
REMARK                         _______ _______ _______ _____ _____    ______ ____
ROOT
ATOM      1  O   UNL     1     112.545 128.399 138.913  0.00  0.00    +0.000 OA
ENDROOT
BRANCH   1   6
ATOM      2  O   UNL     1     113.569 129.065 140.721  0.00  0.00    +0.000 OA
ATOM      3  O   UNL     1     113.378 129.701 138.337  0.00  0.00    +0.000 OA
ATOM      4  O   UNL     1     114.282 130.810 138.531  0.00  0.00    +0.000 OA
ATOM      5  O   UNL     1     115.399 131.283 141.188  0.00  0.00    +0.000 OA
ATOM      6  C   UNL     1     113.025 128.838 139.420  0.00  0.00    +0.000 A 
ATOM      7  C   UNL     1     113.088 128.626 140.214  0.00  0.00    +0.000 A 
ATOM      8  C   UNL     1     113.442 129.489 139.131  0.00  0.00    +0.000 A 
ATOM      9  C   UNL     1     113.922 129.928 139.638  0.00  0.00    +0.000 A 
ATOM     10  C   UNL     1     113.986 129.716 140.434  0.00  0.00    +0.000 A 
ATOM     11  C   UNL     1     114.351 130.605 139.328  0.00  0.00    +0.000 A 
ATOM     12  C   UNL     1     114.482 130.166 140.972  0.00  0.00    +0.000 A 
ATOM     13  C   UNL     1     114.853 131.066 139.850  0.00  0.00    +0.000 A 
ATOM     14  C   UNL     1     114.919 130.846 140.678  0.00  0.00    +0.000 A 
BRANCH   7  16
ATOM     15  O   UNL     1     111.421 126.023 141.369  0.00  0.00    +0.000 OA
ATOM     16  C   UNL     1     112.672 127.975 140.502  0.00  0.00    +0.000 A 
ATOM     17  C   UNL     1     111.960 128.086 140.905  0.00  0.00    +0.000 A 
ATOM     18  C   UNL     1     112.966 127.213 140.389  0.00  0.00    +0.000 A 
ATOM     19  C   UNL     1     111.543 127.436 141.193  0.00  0.00    +0.000 A 
ATOM     20  C   UNL     1     112.550 126.562 140.677  0.00  0.00    +0.000 A 
ATOM     21  C   UNL     1     111.838 126.673 141.080  0.00  0.00    +0.000 A 
ENDBRANCH   7  16
ENDBRANCH   1   6
BRANCH   1  29
ATOM     22  O   UNL     1     111.465 129.335 138.901  0.00  0.00    +0.000 OA
ATOM     23  O   UNL     1     110.958 128.720 136.558  0.00  0.00    +0.000 OA
ATOM     24  O   UNL     1     110.048 129.861 137.327  0.00  0.00    +0.000 OA
ATOM     25  C   UNL     1     111.127 128.925 137.339  0.00  0.00    +0.000 C 
ATOM     26  C   UNL     1     110.672 129.495 137.723  0.00  0.00    +0.000 C 
ATOM     27  C   UNL     1     111.751 128.559 137.735  0.00  0.00    +0.000 C 
ATOM     28  C   UNL     1     110.841 129.700 138.504  0.00  0.00    +0.000 C 
ATOM     29  C   UNL     1     111.920 128.764 138.516  0.00  0.00    +0.000 C 
ATOM     30  C   UNL     1     110.386 130.271 138.889  0.00  0.00    +0.000 C 
BRANCH  27  31
ATOM     31  O   UNL     1     112.207 127.989 137.351  0.00  0.00    +0.000 OA
BRANCH  31  33
ATOM     32  O   UNL     1     111.494 126.774 137.596  0.00  0.00    +0.000 OA
ATOM     33  C   UNL     1     111.852 127.299 137.069  0.00  0.00    +0.000 C 
BRANCH  33  34
ATOM     34  C   UNL     1     111.854 127.133 136.261  0.00  0.00    +0.000 C 
ATOM     35  C   UNL     1     112.370 126.565 135.958  0.00  0.00    +0.000 C 
BRANCH  35  37
ATOM     36  O   UNL     1     114.424 124.955 137.976  0.00  0.00    +0.000 OA
ATOM     37  C   UNL     1     112.883 126.163 136.462  0.00  0.00    +0.000 A 
ATOM     38  C   UNL     1     113.660 126.424 136.554  0.00  0.00    +0.000 A 
ATOM     39  C   UNL     1     112.620 125.499 136.875  0.00  0.00    +0.000 A 
ATOM     40  C   UNL     1     114.174 126.021 137.059  0.00  0.00    +0.000 A 
ATOM     41  C   UNL     1     113.133 125.096 137.379  0.00  0.00    +0.000 A 
ATOM     42  C   UNL     1     113.910 125.357 137.471  0.00  0.00    +0.000 A 
ENDBRANCH  35  37
ENDBRANCH  33  34
ENDBRANCH  31  33
ENDBRANCH  27  31
ENDBRANCH   1  29
TORSDOF 7
ENDMDL
