MODEL 1
REMARK VINA RESULT:     -11.2      0.000      0.000
REMARK  Name = 44259086
REMARK  4 active torsions:
REMARK  status: ('A' for Active; 'I' for Inactive)
REMARK    1  A    between atoms: O_2  and  C_15
REMARK    2  A    between atoms: O_2  and  C_17
REMARK    3  A    between atoms: O_10  and  C_36
REMARK    4  A    between atoms: C_22  and  C_31
REMARK                            x       y       z     vdW  Elec       q    Type
REMARK                         _______ _______ _______ _____ _____    ______ ____
ROOT
ATOM      1  O   UNL     1     103.672 125.379 147.251  0.00  0.00    +0.000 OA
ATOM      2  O   UNL     1     102.266 123.103 146.089  0.00  0.00    +0.000 OA
ATOM      3  O   UNL     1     105.831 124.522 146.245  0.00  0.00    +0.000 OA
ATOM      4  O   UNL     1     105.102 123.409 145.686  0.00  0.00    +0.000 OA
ATOM      5  C   UNL     1     105.134 125.530 147.039  0.00  0.00    +0.000 A 
ATOM      6  C   UNL     1     101.528 123.386 146.427  0.00  0.00    +0.000 C 
ATOM      7  C   UNL     1     104.394 124.381 146.459  0.00  0.00    +0.000 A 
ATOM      8  C   UNL     1     103.689 124.658 146.785  0.00  0.00    +0.000 A 
ATOM      9  C   UNL     1     102.987 124.241 146.666  0.00  0.00    +0.000 A 
ATOM     10  C   UNL     1     104.399 125.818 147.379  0.00  0.00    +0.000 A 
ATOM     11  C   UNL     1     105.131 124.806 146.575  0.00  0.00    +0.000 A 
ATOM     12  C   UNL     1     102.990 123.546 146.221  0.00  0.00    +0.000 A 
ATOM     13  C   UNL     1     101.524 124.109 146.891  0.00  0.00    +0.000 C 
ATOM     14  C   UNL     1     102.259 124.540 147.012  0.00  0.00    +0.000 C 
ATOM     15  C   UNL     1     104.397 123.686 146.013  0.00  0.00    +0.000 A 
ATOM     16  C   UNL     1     103.695 123.269 145.894  0.00  0.00    +0.000 A 
ATOM     17  C   UNL     1     100.716 123.302 146.545  0.00  0.00    +0.000 C 
ATOM     18  C   UNL     1     101.128 122.743 146.100  0.00  0.00    +0.000 C 
ENDROOT
BRANCH  10  19
ATOM     19  C   UNL     1     104.392 126.513 147.825  0.00  0.00    +0.000 A 
ATOM     20  C   UNL     1     104.468 127.244 147.451  0.00  0.00    +0.000 A 
ATOM     21  C   UNL     1     104.310 126.475 148.645  0.00  0.00    +0.000 A 
ATOM     22  C   UNL     1     104.461 127.938 147.897  0.00  0.00    +0.000 A 
ATOM     23  C   UNL     1     104.304 127.169 149.091  0.00  0.00    +0.000 A 
ATOM     24  C   UNL     1     104.379 127.901 148.717  0.00  0.00    +0.000 A 
BRANCH  24  25
ATOM     25  O   UNL     1     104.372 128.595 149.163  0.00  0.00    +0.000 OA
ATOM     26  C   UNL     1     104.733 129.277 148.870  0.00  0.00    +0.000 C 
ENDBRANCH  24  25
ENDBRANCH  10  19
BRANCH   5  27
ATOM     27  O   UNL     1     105.837 125.946 147.156  0.00  0.00    +0.000 OA
BRANCH  27  36
ATOM     28  O   UNL     1     106.333 125.076 148.176  0.00  0.00    +0.000 OA
ATOM     29  O   UNL     1     108.648 125.508 147.419  0.00  0.00    +0.000 OA
ATOM     30  O   UNL     1     108.372 124.494 148.692  0.00  0.00    +0.000 OA
ATOM     31  O   UNL     1     107.380 126.233 146.651  0.00  0.00    +0.000 OA
ATOM     32  C   UNL     1     107.876 125.364 147.671  0.00  0.00    +0.000 C 
ATOM     33  C   UNL     1     107.738 124.857 148.308  0.00  0.00    +0.000 C 
ATOM     34  C   UNL     1     107.243 125.726 147.288  0.00  0.00    +0.000 C 
ATOM     35  C   UNL     1     106.966 124.713 148.561  0.00  0.00    +0.000 C 
ATOM     36  C   UNL     1     106.471 125.582 147.540  0.00  0.00    +0.000 C 
ATOM     37  C   UNL     1     106.828 124.207 149.196  0.00  0.00    +0.000 C 
ENDBRANCH  27  36
ENDBRANCH   5  27
TORSDOF 4
ENDMDL
MODEL 2
REMARK VINA RESULT:     -10.8     11.664     13.930
REMARK  Name = 44259086
REMARK  4 active torsions:
REMARK  status: ('A' for Active; 'I' for Inactive)
REMARK    1  A    between atoms: O_2  and  C_15
REMARK    2  A    between atoms: O_2  and  C_17
REMARK    3  A    between atoms: O_10  and  C_36
REMARK    4  A    between atoms: C_22  and  C_31
REMARK                            x       y       z     vdW  Elec       q    Type
REMARK                         _______ _______ _______ _____ _____    ______ ____
ROOT
ATOM      1  O   UNL     1     113.518 127.747 136.580  0.00  0.00    +0.000 OA
ATOM      2  O   UNL     1     114.388 130.460 135.957  0.00  0.00    +0.000 OA
ATOM      3  O   UNL     1     112.272 128.640 138.594  0.00  0.00    +0.000 OA
ATOM      4  O   UNL     1     112.722 129.969 138.254  0.00  0.00    +0.000 OA
ATOM      5  C   UNL     1     112.659 127.501 137.766  0.00  0.00    +0.000 A 
ATOM      6  C   UNL     1     114.815 130.166 135.271  0.00  0.00    +0.000 C 
ATOM      7  C   UNL     1     113.116 128.873 137.426  0.00  0.00    +0.000 A 
ATOM      8  C   UNL     1     113.523 128.584 136.769  0.00  0.00    +0.000 A 
ATOM      9  C   UNL     1     113.943 129.103 136.284  0.00  0.00    +0.000 A 
ATOM     10  C   UNL     1     113.083 127.202 137.082  0.00  0.00    +0.000 A 
ATOM     11  C   UNL     1     112.676 128.344 137.940  0.00  0.00    +0.000 A 
ATOM     12  C   UNL     1     113.955 129.910 136.455  0.00  0.00    +0.000 A 
ATOM     13  C   UNL     1     114.802 129.326 135.092  0.00  0.00    +0.000 C 
ATOM     14  C   UNL     1     114.363 128.790 135.602  0.00  0.00    +0.000 C 
ATOM     15  C   UNL     1     113.129 129.680 137.597  0.00  0.00    +0.000 A 
ATOM     16  C   UNL     1     113.548 130.199 137.112  0.00  0.00    +0.000 A 
ATOM     17  C   UNL     1     115.292 130.302 134.612  0.00  0.00    +0.000 C 
ATOM     18  C   UNL     1     115.062 130.933 135.092  0.00  0.00    +0.000 C 
ENDROOT
BRANCH  10  19
ATOM     19  C   UNL     1     113.073 126.395 136.908  0.00  0.00    +0.000 A 
ATOM     20  C   UNL     1     113.735 125.930 137.068  0.00  0.00    +0.000 A 
ATOM     21  C   UNL     1     112.400 126.054 136.574  0.00  0.00    +0.000 A 
ATOM     22  C   UNL     1     113.725 125.123 136.894  0.00  0.00    +0.000 A 
ATOM     23  C   UNL     1     112.390 125.247 136.400  0.00  0.00    +0.000 A 
ATOM     24  C   UNL     1     113.052 124.782 136.560  0.00  0.00    +0.000 A 
BRANCH  24  25
ATOM     25  O   UNL     1     113.042 123.976 136.386  0.00  0.00    +0.000 OA
ATOM     26  C   UNL     1     112.493 123.482 136.753  0.00  0.00    +0.000 C 
ENDBRANCH  24  25
ENDBRANCH  10  19
BRANCH   5  27
ATOM     27  O   UNL     1     112.239 126.985 138.254  0.00  0.00    +0.000 OA
BRANCH  27  36
ATOM     28  O   UNL     1     113.218 127.043 139.293  0.00  0.00    +0.000 OA
ATOM     29  O   UNL     1     111.486 126.451 140.958  0.00  0.00    +0.000 OA
ATOM     30  O   UNL     1     113.043 126.706 141.442  0.00  0.00    +0.000 OA
ATOM     31  O   UNL     1     111.084 126.591 139.363  0.00  0.00    +0.000 OA
ATOM     32  C   UNL     1     112.063 126.649 140.403  0.00  0.00    +0.000 C 
ATOM     33  C   UNL     1     112.842 126.776 140.645  0.00  0.00    +0.000 C 
ATOM     34  C   UNL     1     111.863 126.718 139.606  0.00  0.00    +0.000 C 
ATOM     35  C   UNL     1     113.419 126.973 140.090  0.00  0.00    +0.000 C 
ATOM     36  C   UNL     1     112.440 126.916 139.051  0.00  0.00    +0.000 C 
ATOM     37  C   UNL     1     114.197 127.100 140.332  0.00  0.00    +0.000 C 
ENDBRANCH  27  36
ENDBRANCH   5  27
TORSDOF 4
ENDMDL
MODEL 3
REMARK VINA RESULT:     -10.7     12.228     13.834
REMARK  Name = 44259086
REMARK  4 active torsions:
REMARK  status: ('A' for Active; 'I' for Inactive)
REMARK    1  A    between atoms: O_2  and  C_15
REMARK    2  A    between atoms: O_2  and  C_17
REMARK    3  A    between atoms: O_10  and  C_36
REMARK    4  A    between atoms: C_22  and  C_31
REMARK                            x       y       z     vdW  Elec       q    Type
REMARK                         _______ _______ _______ _____ _____    ______ ____
ROOT
ATOM      1  O   UNL     1     112.240 127.282 136.107  0.00  0.00    +0.000 OA
ATOM      2  O   UNL     1     111.728 124.420 136.349  0.00  0.00    +0.000 OA
ATOM      3  O   UNL     1     109.867 127.606 135.285  0.00  0.00    +0.000 OA
ATOM      4  O   UNL     1     109.651 126.186 135.418  0.00  0.00    +0.000 OA
ATOM      5  C   UNL     1     111.164 128.186 135.626  0.00  0.00    +0.000 A 
ATOM      6  C   UNL     1     112.532 124.300 136.629  0.00  0.00    +0.000 C 
ATOM      7  C   UNL     1     110.930 126.725 135.758  0.00  0.00    +0.000 A 
ATOM      8  C   UNL     1     111.703 126.616 136.027  0.00  0.00    +0.000 A 
ATOM      9  C   UNL     1     111.969 125.860 136.222  0.00  0.00    +0.000 A 
ATOM     10  C   UNL     1     111.968 128.072 135.905  0.00  0.00    +0.000 A 
ATOM     11  C   UNL     1     110.641 127.507 135.552  0.00  0.00    +0.000 A 
ATOM     12  C   UNL     1     111.463 125.213 136.149  0.00  0.00    +0.000 A 
ATOM     13  C   UNL     1     113.059 124.974 136.705  0.00  0.00    +0.000 C 
ATOM     14  C   UNL     1     112.776 125.760 136.500  0.00  0.00    +0.000 C 
ATOM     15  C   UNL     1     110.424 126.077 135.686  0.00  0.00    +0.000 A 
ATOM     16  C   UNL     1     110.690 125.321 135.881  0.00  0.00    +0.000 A 
ATOM     17  C   UNL     1     113.129 123.799 136.897  0.00  0.00    +0.000 C 
ATOM     18  C   UNL     1     112.390 123.490 136.699  0.00  0.00    +0.000 C 
ENDROOT
BRANCH  10  19
ATOM     19  C   UNL     1     112.477 128.717 135.979  0.00  0.00    +0.000 A 
ATOM     20  C   UNL     1     112.649 129.023 136.725  0.00  0.00    +0.000 A 
ATOM     21  C   UNL     1     112.814 129.056 135.306  0.00  0.00    +0.000 A 
ATOM     22  C   UNL     1     113.158 129.669 136.799  0.00  0.00    +0.000 A 
ATOM     23  C   UNL     1     113.323 129.701 135.380  0.00  0.00    +0.000 A 
ATOM     24  C   UNL     1     113.495 130.007 136.127  0.00  0.00    +0.000 A 
BRANCH  24  25
ATOM     25  O   UNL     1     114.004 130.653 136.201  0.00  0.00    +0.000 OA
ATOM     26  C   UNL     1     114.792 130.585 135.969  0.00  0.00    +0.000 C 
ENDBRANCH  24  25
ENDBRANCH  10  19
BRANCH   5  27
ATOM     27  O   UNL     1     110.895 128.940 135.429  0.00  0.00    +0.000 OA
BRANCH  27  36
ATOM     28  O   UNL     1     110.141 129.116 136.631  0.00  0.00    +0.000 OA
ATOM     29  O   UNL     1     108.518 130.526 135.406  0.00  0.00    +0.000 OA
ATOM     30  O   UNL     1     108.305 130.231 137.015  0.00  0.00    +0.000 OA
ATOM     31  O   UNL     1     109.813 129.880 134.613  0.00  0.00    +0.000 OA
ATOM     32  C   UNL     1     109.059 130.056 135.814  0.00  0.00    +0.000 C 
ATOM     33  C   UNL     1     108.952 129.909 136.619  0.00  0.00    +0.000 C 
ATOM     34  C   UNL     1     109.706 129.733 135.418  0.00  0.00    +0.000 C 
ATOM     35  C   UNL     1     109.493 129.438 137.028  0.00  0.00    +0.000 C 
ATOM     36  C   UNL     1     110.247 129.263 135.826  0.00  0.00    +0.000 C 
ATOM     37  C   UNL     1     109.387 129.291 137.832  0.00  0.00    +0.000 C 
ENDBRANCH  27  36
ENDBRANCH   5  27
TORSDOF 4
ENDMDL
MODEL 4
REMARK VINA RESULT:     -10.3     12.182     13.897
REMARK  Name = 44259086
REMARK  4 active torsions:
REMARK  status: ('A' for Active; 'I' for Inactive)
REMARK    1  A    between atoms: O_2  and  C_15
REMARK    2  A    between atoms: O_2  and  C_17
REMARK    3  A    between atoms: O_10  and  C_36
REMARK    4  A    between atoms: C_22  and  C_31
REMARK                            x       y       z     vdW  Elec       q    Type
REMARK                         _______ _______ _______ _____ _____    ______ ____
ROOT
ATOM      1  O   UNL     1     112.694 127.489 136.144  0.00  0.00    +0.000 OA
ATOM      2  O   UNL     1     111.602 124.930 137.019  0.00  0.00    +0.000 OA
ATOM      3  O   UNL     1     110.527 128.610 136.819  0.00  0.00    +0.000 OA
ATOM      4  O   UNL     1     110.021 127.327 137.241  0.00  0.00    +0.000 OA
ATOM      5  C   UNL     1     111.872 128.721 136.261  0.00  0.00    +0.000 A 
ATOM      6  C   UNL     1     112.334 124.539 136.793  0.00  0.00    +0.000 C 
ATOM      7  C   UNL     1     111.341 127.404 136.700  0.00  0.00    +0.000 A 
ATOM      8  C   UNL     1     112.046 127.036 136.481  0.00  0.00    +0.000 A 
ATOM      9  C   UNL     1     112.136 126.223 136.584  0.00  0.00    +0.000 A 
ATOM     10  C   UNL     1     112.606 128.337 136.034  0.00  0.00    +0.000 A 
ATOM     11  C   UNL     1     111.235 128.251 136.597  0.00  0.00    +0.000 A 
ATOM     12  C   UNL     1     111.521 125.777 136.906  0.00  0.00    +0.000 A 
ATOM     13  C   UNL     1     112.975 125.004 136.457  0.00  0.00    +0.000 C 
ATOM     14  C   UNL     1     112.875 125.851 136.352  0.00  0.00    +0.000 C 
ATOM     15  C   UNL     1     110.726 126.959 137.022  0.00  0.00    +0.000 A 
ATOM     16  C   UNL     1     110.816 126.145 137.126  0.00  0.00    +0.000 A 
ATOM     17  C   UNL     1     112.791 123.856 136.728  0.00  0.00    +0.000 C 
ATOM     18  C   UNL     1     112.028 123.814 137.040  0.00  0.00    +0.000 C 
ENDROOT
BRANCH  10  19
ATOM     19  C   UNL     1     113.223 128.779 135.711  0.00  0.00    +0.000 A 
ATOM     20  C   UNL     1     113.170 129.055 134.935  0.00  0.00    +0.000 A 
ATOM     21  C   UNL     1     113.892 128.946 136.163  0.00  0.00    +0.000 A 
ATOM     22  C   UNL     1     113.788 129.498 134.612  0.00  0.00    +0.000 A 
ATOM     23  C   UNL     1     114.509 129.388 135.840  0.00  0.00    +0.000 A 
ATOM     24  C   UNL     1     114.457 129.664 135.065  0.00  0.00    +0.000 A 
BRANCH  24  25
ATOM     25  O   UNL     1     115.074 130.107 134.742  0.00  0.00    +0.000 OA
ATOM     26  C   UNL     1     115.281 130.831 135.077  0.00  0.00    +0.000 C 
ENDBRANCH  24  25
ENDBRANCH  10  19
BRANCH   5  27
ATOM     27  O   UNL     1     111.779 129.534 136.159  0.00  0.00    +0.000 OA
BRANCH  27  36
ATOM     28  O   UNL     1     111.984 129.840 137.540  0.00  0.00    +0.000 OA
ATOM     29  O   UNL     1     110.529 131.828 137.316  0.00  0.00    +0.000 OA
ATOM     30  O   UNL     1     111.219 131.471 138.771  0.00  0.00    +0.000 OA
ATOM     31  O   UNL     1     110.809 130.859 136.010  0.00  0.00    +0.000 OA
ATOM     32  C   UNL     1     111.014 131.165 137.391  0.00  0.00    +0.000 C 
ATOM     33  C   UNL     1     111.359 130.987 138.119  0.00  0.00    +0.000 C 
ATOM     34  C   UNL     1     111.154 130.681 136.738  0.00  0.00    +0.000 C 
ATOM     35  C   UNL     1     111.844 130.324 138.193  0.00  0.00    +0.000 C 
ATOM     36  C   UNL     1     111.639 130.018 136.813  0.00  0.00    +0.000 C 
ATOM     37  C   UNL     1     112.189 130.146 138.921  0.00  0.00    +0.000 C 
ENDBRANCH  27  36
ENDBRANCH   5  27
TORSDOF 4
ENDMDL
MODEL 5
REMARK VINA RESULT:     -10.1     12.970     13.907
REMARK  Name = 44259086
REMARK  4 active torsions:
REMARK  status: ('A' for Active; 'I' for Inactive)
REMARK    1  A    between atoms: O_2  and  C_15
REMARK    2  A    between atoms: O_2  and  C_17
REMARK    3  A    between atoms: O_10  and  C_36
REMARK    4  A    between atoms: C_22  and  C_31
REMARK                            x       y       z     vdW  Elec       q    Type
REMARK                         _______ _______ _______ _____ _____    ______ ____
ROOT
ATOM      1  O   UNL     1     111.525 127.199 136.280  0.00  0.00    +0.000 OA
ATOM      2  O   UNL     1     112.648 124.636 137.102  0.00  0.00    +0.000 OA
ATOM      3  O   UNL     1     113.298 128.381 137.646  0.00  0.00    +0.000 OA
ATOM      4  O   UNL     1     113.826 127.095 138.032  0.00  0.00    +0.000 OA
ATOM      5  C   UNL     1     112.138 128.463 136.763  0.00  0.00    +0.000 A 
ATOM      6  C   UNL     1     112.050 124.225 136.641  0.00  0.00    +0.000 C 
ATOM      7  C   UNL     1     112.690 127.144 137.167  0.00  0.00    +0.000 A 
ATOM      8  C   UNL     1     112.113 126.756 136.722  0.00  0.00    +0.000 A 
ATOM      9  C   UNL     1     112.096 125.932 136.698  0.00  0.00    +0.000 A 
ATOM     10  C   UNL     1     111.538 128.058 136.300  0.00  0.00    +0.000 A 
ATOM     11  C   UNL     1     112.718 128.002 137.200  0.00  0.00    +0.000 A 
ATOM     12  C   UNL     1     112.655 125.495 137.119  0.00  0.00    +0.000 A 
ATOM     13  C   UNL     1     111.467 124.680 136.203  0.00  0.00    +0.000 C 
ATOM     14  C   UNL     1     111.490 125.539 136.231  0.00  0.00    +0.000 C 
ATOM     15  C   UNL     1     113.249 126.707 137.587  0.00  0.00    +0.000 A 
ATOM     16  C   UNL     1     113.232 125.882 137.563  0.00  0.00    +0.000 A 
ATOM     17  C   UNL     1     111.709 123.524 136.372  0.00  0.00    +0.000 C 
ATOM     18  C   UNL     1     112.365 123.499 136.872  0.00  0.00    +0.000 C 
ENDROOT
BRANCH  10  19
ATOM     19  C   UNL     1     110.977 128.492 135.879  0.00  0.00    +0.000 A 
ATOM     20  C   UNL     1     111.037 128.556 135.058  0.00  0.00    +0.000 A 
ATOM     21  C   UNL     1     110.356 128.861 136.277  0.00  0.00    +0.000 A 
ATOM     22  C   UNL     1     110.476 128.990 134.636  0.00  0.00    +0.000 A 
ATOM     23  C   UNL     1     109.795 129.295 135.855  0.00  0.00    +0.000 A 
ATOM     24  C   UNL     1     109.855 129.359 135.035  0.00  0.00    +0.000 A 
BRANCH  24  25
ATOM     25  O   UNL     1     109.294 129.793 134.613  0.00  0.00    +0.000 OA
ATOM     26  C   UNL     1     109.325 130.617 134.613  0.00  0.00    +0.000 C 
ENDBRANCH  24  25
ENDBRANCH  10  19
BRANCH   5  27
ATOM     27  O   UNL     1     112.158 129.287 136.789  0.00  0.00    +0.000 OA
BRANCH  27  36
ATOM     28  O   UNL     1     113.284 129.383 135.915  0.00  0.00    +0.000 OA
ATOM     29  O   UNL     1     113.926 131.523 136.978  0.00  0.00    +0.000 OA
ATOM     30  O   UNL     1     114.838 130.905 135.749  0.00  0.00    +0.000 OA
ATOM     31  O   UNL     1     112.586 130.713 137.497  0.00  0.00    +0.000 OA
ATOM     32  C   UNL     1     113.712 130.809 136.623  0.00  0.00    +0.000 C 
ATOM     33  C   UNL     1     114.169 130.501 136.009  0.00  0.00    +0.000 C 
ATOM     34  C   UNL     1     113.042 130.405 136.883  0.00  0.00    +0.000 C 
ATOM     35  C   UNL     1     113.955 129.788 135.655  0.00  0.00    +0.000 C 
ATOM     36  C   UNL     1     112.828 129.691 136.529  0.00  0.00    +0.000 C 
ATOM     37  C   UNL     1     114.410 129.479 135.041  0.00  0.00    +0.000 C 
ENDBRANCH  27  36
ENDBRANCH   5  27
TORSDOF 4
ENDMDL
MODEL 6
REMARK VINA RESULT:     -10.1     11.478     13.771
REMARK  Name = 44259086
REMARK  4 active torsions:
REMARK  status: ('A' for Active; 'I' for Inactive)
REMARK    1  A    between atoms: O_2  and  C_15
REMARK    2  A    between atoms: O_2  and  C_17
REMARK    3  A    between atoms: O_10  and  C_36
REMARK    4  A    between atoms: C_22  and  C_31
REMARK                            x       y       z     vdW  Elec       q    Type
REMARK                         _______ _______ _______ _____ _____    ______ ____
ROOT
ATOM      1  O   UNL     1     113.417 127.403 136.718  0.00  0.00    +0.000 OA
ATOM      2  O   UNL     1     114.248 130.120 136.060  0.00  0.00    +0.000 OA
ATOM      3  O   UNL     1     112.438 128.259 138.890  0.00  0.00    +0.000 OA
ATOM      4  O   UNL     1     112.864 129.590 138.530  0.00  0.00    +0.000 OA
ATOM      5  C   UNL     1     112.704 127.137 137.994  0.00  0.00    +0.000 A 
ATOM      6  C   UNL     1     114.583 129.839 135.320  0.00  0.00    +0.000 C 
ATOM      7  C   UNL     1     113.138 128.512 137.634  0.00  0.00    +0.000 A 
ATOM      8  C   UNL     1     113.458 128.235 136.926  0.00  0.00    +0.000 A 
ATOM      9  C   UNL     1     113.824 128.761 136.405  0.00  0.00    +0.000 A 
ATOM     10  C   UNL     1     113.037 126.850 137.256  0.00  0.00    +0.000 A 
ATOM     11  C   UNL     1     112.755 127.974 138.184  0.00  0.00    +0.000 A 
ATOM     12  C   UNL     1     113.869 129.563 136.593  0.00  0.00    +0.000 A 
ATOM     13  C   UNL     1     114.535 129.004 135.124  0.00  0.00    +0.000 C 
ATOM     14  C   UNL     1     114.153 128.460 135.671  0.00  0.00    +0.000 C 
ATOM     15  C   UNL     1     113.184 129.314 137.822  0.00  0.00    +0.000 A 
ATOM     16  C   UNL     1     113.550 129.839 137.302  0.00  0.00    +0.000 A 
ATOM     17  C   UNL     1     114.979 129.986 134.612  0.00  0.00    +0.000 C 
ATOM     18  C   UNL     1     114.819 130.607 135.131  0.00  0.00    +0.000 C 
ENDROOT
BRANCH  10  19
ATOM     19  C   UNL     1     112.993 126.049 137.065  0.00  0.00    +0.000 A 
ATOM     20  C   UNL     1     112.448 125.788 136.503  0.00  0.00    +0.000 A 
ATOM     21  C   UNL     1     113.494 125.508 137.435  0.00  0.00    +0.000 A 
ATOM     22  C   UNL     1     112.404 124.987 136.312  0.00  0.00    +0.000 A 
ATOM     23  C   UNL     1     113.450 124.706 137.244  0.00  0.00    +0.000 A 
ATOM     24  C   UNL     1     112.905 124.446 136.682  0.00  0.00    +0.000 A 
BRANCH  24  25
ATOM     25  O   UNL     1     112.860 123.644 136.491  0.00  0.00    +0.000 OA
ATOM     26  C   UNL     1     112.309 123.161 136.867  0.00  0.00    +0.000 C 
ENDBRANCH  24  25
ENDBRANCH  10  19
BRANCH   5  27
ATOM     27  O   UNL     1     112.338 126.614 138.516  0.00  0.00    +0.000 OA
BRANCH  27  36
ATOM     28  O   UNL     1     111.023 127.047 138.160  0.00  0.00    +0.000 OA
ATOM     29  O   UNL     1     110.189 126.341 140.380  0.00  0.00    +0.000 OA
ATOM     30  O   UNL     1     109.153 127.010 139.284  0.00  0.00    +0.000 OA
ATOM     31  O   UNL     1     111.782 126.144 139.995  0.00  0.00    +0.000 OA
ATOM     32  C   UNL     1     110.467 126.577 139.639  0.00  0.00    +0.000 C 
ATOM     33  C   UNL     1     109.949 126.911 139.092  0.00  0.00    +0.000 C 
ATOM     34  C   UNL     1     111.263 126.478 139.448  0.00  0.00    +0.000 C 
ATOM     35  C   UNL     1     110.227 127.147 138.352  0.00  0.00    +0.000 C 
ATOM     36  C   UNL     1     111.541 126.713 138.707  0.00  0.00    +0.000 C 
ATOM     37  C   UNL     1     109.709 127.481 137.804  0.00  0.00    +0.000 C 
ENDBRANCH  27  36
ENDBRANCH   5  27
TORSDOF 4
ENDMDL
MODEL 7
REMARK VINA RESULT:     -10.0     11.847     14.160
REMARK  Name = 44259086
REMARK  4 active torsions:
REMARK  status: ('A' for Active; 'I' for Inactive)
REMARK    1  A    between atoms: O_2  and  C_15
REMARK    2  A    between atoms: O_2  and  C_17
REMARK    3  A    between atoms: O_10  and  C_36
REMARK    4  A    between atoms: C_22  and  C_31
REMARK                            x       y       z     vdW  Elec       q    Type
REMARK                         _______ _______ _______ _____ _____    ______ ____
ROOT
ATOM      1  O   UNL     1     113.400 128.568 136.594  0.00  0.00    +0.000 OA
ATOM      2  O   UNL     1     114.780 131.067 135.995  0.00  0.00    +0.000 OA
ATOM      3  O   UNL     1     112.430 129.635 138.674  0.00  0.00    +0.000 OA
ATOM      4  O   UNL     1     113.128 130.855 138.346  0.00  0.00    +0.000 OA
ATOM      5  C   UNL     1     112.550 128.466 137.807  0.00  0.00    +0.000 A 
ATOM      6  C   UNL     1     115.114 130.714 135.287  0.00  0.00    +0.000 C 
ATOM      7  C   UNL     1     113.264 129.727 137.479  0.00  0.00    +0.000 A 
ATOM      8  C   UNL     1     113.581 129.381 136.800  0.00  0.00    +0.000 A 
ATOM      9  C   UNL     1     114.080 129.818 136.310  0.00  0.00    +0.000 A 
ATOM     10  C   UNL     1     112.881 128.107 137.100  0.00  0.00    +0.000 A 
ATOM     11  C   UNL     1     112.743 129.282 137.998  0.00  0.00    +0.000 A 
ATOM     12  C   UNL     1     114.261 130.601 136.498  0.00  0.00    +0.000 A 
ATOM     13  C   UNL     1     114.925 129.898 135.091  0.00  0.00    +0.000 C 
ATOM     14  C   UNL     1     114.404 129.448 135.606  0.00  0.00    +0.000 C 
ATOM     15  C   UNL     1     113.445 130.509 137.667  0.00  0.00    +0.000 A 
ATOM     16  C   UNL     1     113.944 130.947 137.176  0.00  0.00    +0.000 A 
ATOM     17  C   UNL     1     115.586 130.769 134.613  0.00  0.00    +0.000 C 
ATOM     18  C   UNL     1     115.505 131.419 135.115  0.00  0.00    +0.000 C 
ENDROOT
BRANCH  10  19
ATOM     19  C   UNL     1     112.701 127.325 136.909  0.00  0.00    +0.000 A 
ATOM     20  C   UNL     1     112.155 127.161 136.313  0.00  0.00    +0.000 A 
ATOM     21  C   UNL     1     113.067 126.707 137.315  0.00  0.00    +0.000 A 
ATOM     22  C   UNL     1     111.976 126.378 136.122  0.00  0.00    +0.000 A 
ATOM     23  C   UNL     1     112.888 125.924 137.124  0.00  0.00    +0.000 A 
ATOM     24  C   UNL     1     112.342 125.760 136.527  0.00  0.00    +0.000 A 
BRANCH  24  25
ATOM     25  O   UNL     1     112.162 124.978 136.336  0.00  0.00    +0.000 OA
ATOM     26  C   UNL     1     111.618 124.557 136.791  0.00  0.00    +0.000 C 
ENDBRANCH  24  25
ENDBRANCH  10  19
BRANCH   5  27
ATOM     27  O   UNL     1     112.051 128.031 138.300  0.00  0.00    +0.000 OA
BRANCH  27  36
ATOM     28  O   UNL     1     110.855 128.674 137.854  0.00  0.00    +0.000 OA
ATOM     29  O   UNL     1     109.847 128.348 140.090  0.00  0.00    +0.000 OA
ATOM     30  O   UNL     1     108.987 129.100 138.899  0.00  0.00    +0.000 OA
ATOM     31  O   UNL     1     111.379 127.814 139.790  0.00  0.00    +0.000 OA
ATOM     32  C   UNL     1     110.183 128.457 139.344  0.00  0.00    +0.000 C 
ATOM     33  C   UNL     1     109.752 128.833 138.749  0.00  0.00    +0.000 C 
ATOM     34  C   UNL     1     110.948 128.190 139.195  0.00  0.00    +0.000 C 
ATOM     35  C   UNL     1     110.088 128.942 138.004  0.00  0.00    +0.000 C 
ATOM     36  C   UNL     1     111.284 128.299 138.449  0.00  0.00    +0.000 C 
ATOM     37  C   UNL     1     109.659 129.317 137.409  0.00  0.00    +0.000 C 
ENDBRANCH  27  36
ENDBRANCH   5  27
TORSDOF 4
ENDMDL
MODEL 8
REMARK VINA RESULT:     -10.0     11.507     12.781
REMARK  Name = 44259086
REMARK  4 active torsions:
REMARK  status: ('A' for Active; 'I' for Inactive)
REMARK    1  A    between atoms: O_2  and  C_15
REMARK    2  A    between atoms: O_2  and  C_17
REMARK    3  A    between atoms: O_10  and  C_36
REMARK    4  A    between atoms: C_22  and  C_31
REMARK                            x       y       z     vdW  Elec       q    Type
REMARK                         _______ _______ _______ _____ _____    ______ ____
ROOT
ATOM      1  O   UNL     1     112.913 128.126 137.990  0.00  0.00    +0.000 OA
ATOM      2  O   UNL     1     114.110 125.466 138.034  0.00  0.00    +0.000 OA
ATOM      3  O   UNL     1     113.000 128.176 140.519  0.00  0.00    +0.000 OA
ATOM      4  O   UNL     1     113.591 126.859 140.502  0.00  0.00    +0.000 OA
ATOM      5  C   UNL     1     112.648 128.838 139.266  0.00  0.00    +0.000 A 
ATOM      6  C   UNL     1     114.085 125.440 137.176  0.00  0.00    +0.000 C 
ATOM      7  C   UNL     1     113.257 127.483 139.260  0.00  0.00    +0.000 A 
ATOM      8  C   UNL     1     113.230 127.464 138.436  0.00  0.00    +0.000 A 
ATOM      9  C   UNL     1     113.509 126.803 138.029  0.00  0.00    +0.000 A 
ATOM     10  C   UNL     1     112.620 128.817 138.407  0.00  0.00    +0.000 A 
ATOM     11  C   UNL     1     112.969 128.165 139.695  0.00  0.00    +0.000 A 
ATOM     12  C   UNL     1     113.816 126.161 138.446  0.00  0.00    +0.000 A 
ATOM     13  C   UNL     1     113.765 126.109 136.741  0.00  0.00    +0.000 C 
ATOM     14  C   UNL     1     113.475 126.795 137.170  0.00  0.00    +0.000 C 
ATOM     15  C   UNL     1     113.564 126.840 139.677  0.00  0.00    +0.000 A 
ATOM     16  C   UNL     1     113.843 126.179 139.270  0.00  0.00    +0.000 A 
ATOM     17  C   UNL     1     114.231 125.045 136.467  0.00  0.00    +0.000 C 
ATOM     18  C   UNL     1     114.423 124.687 137.185  0.00  0.00    +0.000 C 
ENDROOT
BRANCH  10  19
ATOM     19  C   UNL     1     112.314 129.458 137.987  0.00  0.00    +0.000 A 
ATOM     20  C   UNL     1     111.499 129.583 137.962  0.00  0.00    +0.000 A 
ATOM     21  C   UNL     1     112.823 129.973 137.592  0.00  0.00    +0.000 A 
ATOM     22  C   UNL     1     111.193 130.223 137.541  0.00  0.00    +0.000 A 
ATOM     23  C   UNL     1     112.517 130.614 137.171  0.00  0.00    +0.000 A 
ATOM     24  C   UNL     1     111.702 130.739 137.146  0.00  0.00    +0.000 A 
BRANCH  24  25
ATOM     25  O   UNL     1     111.396 131.379 136.726  0.00  0.00    +0.000 OA
ATOM     26  C   UNL     1     111.207 132.079 137.120  0.00  0.00    +0.000 C 
ENDBRANCH  24  25
ENDBRANCH  10  19
BRANCH   5  27
ATOM     27  O   UNL     1     112.370 129.497 139.675  0.00  0.00    +0.000 OA
BRANCH  27  36
ATOM     28  O   UNL     1     113.677 129.993 139.970  0.00  0.00    +0.000 OA
ATOM     29  O   UNL     1     112.808 131.066 142.023  0.00  0.00    +0.000 OA
ATOM     30  O   UNL     1     114.405 131.204 141.633  0.00  0.00    +0.000 OA
ATOM     31  O   UNL     1     111.791 130.212 141.044  0.00  0.00    +0.000 OA
ATOM     32  C   UNL     1     113.098 130.708 141.338  0.00  0.00    +0.000 C 
ATOM     33  C   UNL     1     113.897 130.777 141.144  0.00  0.00    +0.000 C 
ATOM     34  C   UNL     1     112.589 130.282 140.849  0.00  0.00    +0.000 C 
ATOM     35  C   UNL     1     114.187 130.420 140.459  0.00  0.00    +0.000 C 
ATOM     36  C   UNL     1     112.879 129.924 140.165  0.00  0.00    +0.000 C 
ATOM     37  C   UNL     1     114.985 130.489 140.264  0.00  0.00    +0.000 C 
ENDBRANCH  27  36
ENDBRANCH   5  27
TORSDOF 4
ENDMDL
MODEL 9
REMARK VINA RESULT:     -10.0     11.354     13.206
REMARK  Name = 44259086
REMARK  4 active torsions:
REMARK  status: ('A' for Active; 'I' for Inactive)
REMARK    1  A    between atoms: O_2  and  C_15
REMARK    2  A    between atoms: O_2  and  C_17
REMARK    3  A    between atoms: O_10  and  C_36
REMARK    4  A    between atoms: C_22  and  C_31
REMARK                            x       y       z     vdW  Elec       q    Type
REMARK                         _______ _______ _______ _____ _____    ______ ____
ROOT
ATOM      1  O   UNL     1     113.086 127.950 137.588  0.00  0.00    +0.000 OA
ATOM      2  O   UNL     1     112.920 125.264 136.462  0.00  0.00    +0.000 OA
ATOM      3  O   UNL     1     110.986 128.578 136.322  0.00  0.00    +0.000 OA
ATOM      4  O   UNL     1     110.937 127.239 135.784  0.00  0.00    +0.000 OA
ATOM      5  C   UNL     1     112.060 128.963 137.234  0.00  0.00    +0.000 A 
ATOM      6  C   UNL     1     113.633 125.040 136.888  0.00  0.00    +0.000 C 
ATOM      7  C   UNL     1     111.999 127.588 136.675  0.00  0.00    +0.000 A 
ATOM      8  C   UNL     1     112.683 127.380 137.086  0.00  0.00    +0.000 A 
ATOM      9  C   UNL     1     112.990 126.617 137.019  0.00  0.00    +0.000 A 
ATOM     10  C   UNL     1     112.772 128.746 137.662  0.00  0.00    +0.000 A 
ATOM     11  C   UNL     1     111.670 128.379 136.736  0.00  0.00    +0.000 A 
ATOM     12  C   UNL     1     112.612 126.062 136.541  0.00  0.00    +0.000 A 
ATOM     13  C   UNL     1     114.027 125.619 137.387  0.00  0.00    +0.000 C 
ATOM     14  C   UNL     1     113.703 126.413 137.453  0.00  0.00    +0.000 C 
ATOM     15  C   UNL     1     111.621 127.032 136.196  0.00  0.00    +0.000 A 
ATOM     16  C   UNL     1     111.928 126.269 136.129  0.00  0.00    +0.000 A 
ATOM     17  C   UNL     1     114.203 124.478 137.085  0.00  0.00    +0.000 C 
ATOM     18  C   UNL     1     113.589 124.280 136.571  0.00  0.00    +0.000 C 
ENDROOT
BRANCH  10  19
ATOM     19  C   UNL     1     113.153 129.299 138.142  0.00  0.00    +0.000 A 
ATOM     20  C   UNL     1     113.094 129.242 138.963  0.00  0.00    +0.000 A 
ATOM     21  C   UNL     1     113.591 129.909 137.800  0.00  0.00    +0.000 A 
ATOM     22  C   UNL     1     113.475 129.796 139.442  0.00  0.00    +0.000 A 
ATOM     23  C   UNL     1     113.972 130.462 138.280  0.00  0.00    +0.000 A 
ATOM     24  C   UNL     1     113.913 130.405 139.101  0.00  0.00    +0.000 A 
BRANCH  24  25
ATOM     25  O   UNL     1     114.294 130.959 139.581  0.00  0.00    +0.000 OA
ATOM     26  C   UNL     1     114.835 130.708 140.150  0.00  0.00    +0.000 C 
ENDBRANCH  24  25
ENDBRANCH  10  19
BRANCH   5  27
ATOM     27  O   UNL     1     111.751 129.725 137.299  0.00  0.00    +0.000 OA
BRANCH  27  36
ATOM     28  O   UNL     1     110.693 129.340 138.178  0.00  0.00    +0.000 OA
ATOM     29  O   UNL     1     109.286 131.169 137.286  0.00  0.00    +0.000 OA
ATOM     30  O   UNL     1     108.697 130.173 138.463  0.00  0.00    +0.000 OA
ATOM     31  O   UNL     1     110.814 130.944 136.704  0.00  0.00    +0.000 OA
ATOM     32  C   UNL     1     109.755 130.559 137.584  0.00  0.00    +0.000 C 
ATOM     33  C   UNL     1     109.460 130.061 138.172  0.00  0.00    +0.000 C 
ATOM     34  C   UNL     1     110.518 130.447 137.293  0.00  0.00    +0.000 C 
ATOM     35  C   UNL     1     109.929 129.451 138.469  0.00  0.00    +0.000 C 
ATOM     36  C   UNL     1     110.987 129.837 137.590  0.00  0.00    +0.000 C 
ATOM     37  C   UNL     1     109.634 128.954 139.057  0.00  0.00    +0.000 C 
ENDBRANCH  27  36
ENDBRANCH   5  27
TORSDOF 4
ENDMDL
