MODEL 1
REMARK VINA RESULT:      -9.2      0.000      0.000
REMARK  Name = 131752176
REMARK  4 active torsions:
REMARK  status: ('A' for Active; 'I' for Inactive)
REMARK    1  A    between atoms: O_2  and  C_15
REMARK    2  A    between atoms: O_2  and  C_17
REMARK    3  A    between atoms: O_8  and  C_23
REMARK    4  A    between atoms: C_18  and  C_22
REMARK                            x       y       z     vdW  Elec       q    Type
REMARK                         _______ _______ _______ _____ _____    ______ ____
ROOT
ATOM      1  O   UNL     1     111.886 125.831 136.099  0.00  0.00    +0.000 OA
ATOM      2  O   UNL     1     111.499 128.268 136.292  0.00  0.00    +0.000 OA
ATOM      3  O   UNL     1     109.400 125.533 134.612  0.00  0.00    +0.000 OA
ATOM      4  C   UNL     1     112.303 127.118 136.561  0.00  0.00    +0.000 A 
ATOM      5  C   UNL     1     112.432 126.306 136.496  0.00  0.00    +0.000 A 
ATOM      6  C   UNL     1     111.628 127.455 136.228  0.00  0.00    +0.000 A 
ATOM      7  C   UNL     1     111.082 126.981 135.832  0.00  0.00    +0.000 A 
ATOM      8  C   UNL     1     111.211 126.169 135.767  0.00  0.00    +0.000 A 
ATOM      9  C   UNL     1     110.382 127.345 135.490  0.00  0.00    +0.000 A 
ATOM     10  C   UNL     1     110.649 125.665 135.357  0.00  0.00    +0.000 A 
ATOM     11  C   UNL     1     109.810 126.857 135.076  0.00  0.00    +0.000 A 
ATOM     12  C   UNL     1     109.944 126.011 135.009  0.00  0.00    +0.000 A 
ENDROOT
BRANCH   5  15
ATOM     13  O   UNL     1     115.041 125.179 136.195  0.00  0.00    +0.000 OA
ATOM     14  O   UNL     1     115.132 124.951 137.827  0.00  0.00    +0.000 OA
ATOM     15  C   UNL     1     113.107 125.967 136.828  0.00  0.00    +0.000 A 
ATOM     16  C   UNL     1     113.737 125.742 136.345  0.00  0.00    +0.000 A 
ATOM     17  C   UNL     1     113.152 125.853 137.645  0.00  0.00    +0.000 A 
ATOM     18  C   UNL     1     114.412 125.404 136.678  0.00  0.00    +0.000 A 
ATOM     19  C   UNL     1     113.827 125.515 137.977  0.00  0.00    +0.000 A 
ATOM     20  C   UNL     1     114.457 125.290 137.494  0.00  0.00    +0.000 A 
ENDBRANCH   5  15
BRANCH   9  21
ATOM     21  O   UNL     1     110.261 128.159 135.559  0.00  0.00    +0.000 OA
ATOM     22  C   UNL     1     109.636 128.517 135.159  0.00  0.00    +0.000 C 
ENDBRANCH   9  21
BRANCH   4  23
ATOM     23  O   UNL     1     112.849 127.592 136.957  0.00  0.00    +0.000 OA
BRANCH  23  31
ATOM     24  O   UNL     1     113.357 128.174 135.755  0.00  0.00    +0.000 OA
ATOM     25  O   UNL     1     113.995 130.209 137.009  0.00  0.00    +0.000 OA
ATOM     26  O   UNL     1     113.274 128.949 137.793  0.00  0.00    +0.000 OA
ATOM     27  O   UNL     1     114.290 130.112 135.389  0.00  0.00    +0.000 OA
ATOM     28  C   UNL     1     113.783 129.531 136.591  0.00  0.00    +0.000 C 
ATOM     29  C   UNL     1     113.422 128.901 136.983  0.00  0.00    +0.000 C 
ATOM     30  C   UNL     1     113.930 129.482 135.781  0.00  0.00    +0.000 C 
ATOM     31  C   UNL     1     113.209 128.222 136.565  0.00  0.00    +0.000 C 
ATOM     32  C   UNL     1     113.718 128.804 135.363  0.00  0.00    +0.000 C 
ENDBRANCH  23  31
ENDBRANCH   4  23
TORSDOF 4
ENDMDL
MODEL 2
REMARK VINA RESULT:      -9.2     13.234     13.891
REMARK  Name = 131752176
REMARK  4 active torsions:
REMARK  status: ('A' for Active; 'I' for Inactive)
REMARK    1  A    between atoms: O_2  and  C_15
REMARK    2  A    between atoms: O_2  and  C_17
REMARK    3  A    between atoms: O_8  and  C_23
REMARK    4  A    between atoms: C_18  and  C_22
REMARK                            x       y       z     vdW  Elec       q    Type
REMARK                         _______ _______ _______ _____ _____    ______ ____
ROOT
ATOM      1  O   UNL     1     105.107 124.212 146.890  0.00  0.00    +0.000 OA
ATOM      2  O   UNL     1     103.506 125.633 148.132  0.00  0.00    +0.000 OA
ATOM      3  O   UNL     1     102.900 122.794 145.627  0.00  0.00    +0.000 OA
ATOM      4  C   UNL     1     104.851 125.268 147.819  0.00  0.00    +0.000 A 
ATOM      5  C   UNL     1     105.385 124.794 147.405  0.00  0.00    +0.000 A 
ATOM      6  C   UNL     1     104.040 125.159 147.718  0.00  0.00    +0.000 A 
ATOM      7  C   UNL     1     103.762 124.578 147.204  0.00  0.00    +0.000 A 
ATOM      8  C   UNL     1     104.296 124.104 146.790  0.00  0.00    +0.000 A 
ATOM      9  C   UNL     1     102.914 124.475 147.107  0.00  0.00    +0.000 A 
ATOM     10  C   UNL     1     104.018 123.494 146.251  0.00  0.00    +0.000 A 
ATOM     11  C   UNL     1     102.618 123.870 146.573  0.00  0.00    +0.000 A 
ATOM     12  C   UNL     1     103.174 123.377 146.142  0.00  0.00    +0.000 A 
ENDROOT
BRANCH   5  15
ATOM     13  O   UNL     1     107.757 124.438 148.959  0.00  0.00    +0.000 OA
ATOM     14  O   UNL     1     108.632 125.226 147.804  0.00  0.00    +0.000 OA
ATOM     15  C   UNL     1     106.197 124.902 147.505  0.00  0.00    +0.000 A 
ATOM     16  C   UNL     1     106.571 124.616 148.183  0.00  0.00    +0.000 A 
ATOM     17  C   UNL     1     106.635 125.296 146.927  0.00  0.00    +0.000 A 
ATOM     18  C   UNL     1     107.383 124.724 148.282  0.00  0.00    +0.000 A 
ATOM     19  C   UNL     1     107.446 125.404 147.027  0.00  0.00    +0.000 A 
ATOM     20  C   UNL     1     107.820 125.118 147.705  0.00  0.00    +0.000 A 
ENDBRANCH   5  15
BRANCH   9  21
ATOM     21  O   UNL     1     102.388 124.953 147.526  0.00  0.00    +0.000 OA
ATOM     22  C   UNL     1     101.575 124.833 147.452  0.00  0.00    +0.000 C 
ENDBRANCH   9  21
BRANCH   4  23
ATOM     23  O   UNL     1     105.129 125.849 148.333  0.00  0.00    +0.000 OA
BRANCH  23  31
ATOM     24  O   UNL     1     104.777 126.911 147.443  0.00  0.00    +0.000 OA
ATOM     25  O   UNL     1     104.643 128.473 149.357  0.00  0.00    +0.000 OA
ATOM     26  O   UNL     1     105.040 126.891 149.609  0.00  0.00    +0.000 OA
ATOM     27  O   UNL     1     104.336 129.013 147.829  0.00  0.00    +0.000 OA
ATOM     28  C   UNL     1     104.688 127.953 148.719  0.00  0.00    +0.000 C 
ATOM     29  C   UNL     1     104.886 127.162 148.846  0.00  0.00    +0.000 C 
ATOM     30  C   UNL     1     104.534 128.222 147.955  0.00  0.00    +0.000 C 
ATOM     31  C   UNL     1     104.931 126.640 148.207  0.00  0.00    +0.000 C 
ATOM     32  C   UNL     1     104.579 127.702 147.317  0.00  0.00    +0.000 C 
ENDBRANCH  23  31
ENDBRANCH   4  23
TORSDOF 4
ENDMDL
MODEL 3
REMARK VINA RESULT:      -9.2      1.270      4.243
REMARK  Name = 131752176
REMARK  4 active torsions:
REMARK  status: ('A' for Active; 'I' for Inactive)
REMARK    1  A    between atoms: O_2  and  C_15
REMARK    2  A    between atoms: O_2  and  C_17
REMARK    3  A    between atoms: O_8  and  C_23
REMARK    4  A    between atoms: C_18  and  C_22
REMARK                            x       y       z     vdW  Elec       q    Type
REMARK                         _______ _______ _______ _____ _____    ______ ____
ROOT
ATOM      1  O   UNL     1     113.576 126.800 136.803  0.00  0.00    +0.000 OA
ATOM      2  O   UNL     1     111.612 125.479 136.078  0.00  0.00    +0.000 OA
ATOM      3  O   UNL     1     114.987 124.353 137.508  0.00  0.00    +0.000 OA
ATOM      4  C   UNL     1     112.251 126.743 136.269  0.00  0.00    +0.000 A 
ATOM      5  C   UNL     1     112.905 127.183 136.510  0.00  0.00    +0.000 A 
ATOM      6  C   UNL     1     112.267 125.919 136.319  0.00  0.00    +0.000 A 
ATOM      7  C   UNL     1     112.936 125.537 136.612  0.00  0.00    +0.000 A 
ATOM      8  C   UNL     1     113.590 125.977 136.853  0.00  0.00    +0.000 A 
ATOM      9  C   UNL     1     112.940 124.678 136.660  0.00  0.00    +0.000 A 
ATOM     10  C   UNL     1     114.294 125.589 137.160  0.00  0.00    +0.000 A 
ATOM     11  C   UNL     1     113.634 124.274 136.963  0.00  0.00    +0.000 A 
ATOM     12  C   UNL     1     114.315 124.732 137.215  0.00  0.00    +0.000 A 
ENDROOT
BRANCH   5  15
ATOM     13  O   UNL     1     112.654 129.737 137.768  0.00  0.00    +0.000 OA
ATOM     14  O   UNL     1     112.847 130.477 136.306  0.00  0.00    +0.000 OA
ATOM     15  C   UNL     1     112.891 128.006 136.460  0.00  0.00    +0.000 A 
ATOM     16  C   UNL     1     112.779 128.460 137.140  0.00  0.00    +0.000 A 
ATOM     17  C   UNL     1     112.988 128.376 135.728  0.00  0.00    +0.000 A 
ATOM     18  C   UNL     1     112.765 129.284 137.088  0.00  0.00    +0.000 A 
ATOM     19  C   UNL     1     112.973 129.199 135.678  0.00  0.00    +0.000 A 
ATOM     20  C   UNL     1     112.862 129.653 136.358  0.00  0.00    +0.000 A 
ENDBRANCH   5  15
BRANCH   9  21
ATOM     21  O   UNL     1     112.280 124.246 136.415  0.00  0.00    +0.000 OA
ATOM     22  C   UNL     1     112.120 123.513 136.757  0.00  0.00    +0.000 C 
ENDBRANCH   9  21
BRANCH   4  23
ATOM     23  O   UNL     1     111.582 127.126 135.976  0.00  0.00    +0.000 OA
BRANCH  23  31
ATOM     24  O   UNL     1     110.816 126.868 137.155  0.00  0.00    +0.000 OA
ATOM     25  O   UNL     1     108.730 127.000 135.830  0.00  0.00    +0.000 OA
ATOM     26  O   UNL     1     110.191 127.214 135.093  0.00  0.00    +0.000 OA
ATOM     27  O   UNL     1     108.661 126.698 137.451  0.00  0.00    +0.000 OA
ATOM     28  C   UNL     1     109.425 126.956 136.272  0.00  0.00    +0.000 C 
ATOM     29  C   UNL     1     110.155 127.063 135.903  0.00  0.00    +0.000 C 
ATOM     30  C   UNL     1     109.391 126.805 137.082  0.00  0.00    +0.000 C 
ATOM     31  C   UNL     1     110.852 127.019 136.345  0.00  0.00    +0.000 C 
ATOM     32  C   UNL     1     110.086 126.761 137.524  0.00  0.00    +0.000 C 
ENDBRANCH  23  31
ENDBRANCH   4  23
TORSDOF 4
ENDMDL
MODEL 4
REMARK VINA RESULT:      -9.1      1.287      3.690
REMARK  Name = 131752176
REMARK  4 active torsions:
REMARK  status: ('A' for Active; 'I' for Inactive)
REMARK    1  A    between atoms: O_2  and  C_15
REMARK    2  A    between atoms: O_2  and  C_17
REMARK    3  A    between atoms: O_8  and  C_23
REMARK    4  A    between atoms: C_18  and  C_22
REMARK                            x       y       z     vdW  Elec       q    Type
REMARK                         _______ _______ _______ _____ _____    ______ ____
ROOT
ATOM      1  O   UNL     1     111.055 125.505 136.370  0.00  0.00    +0.000 OA
ATOM      2  O   UNL     1     113.323 126.493 136.319  0.00  0.00    +0.000 OA
ATOM      3  O   UNL     1     112.176 122.916 137.092  0.00  0.00    +0.000 OA
ATOM      4  C   UNL     1     111.910 126.633 136.168  0.00  0.00    +0.000 A 
ATOM      5  C   UNL     1     111.153 126.304 136.185  0.00  0.00    +0.000 A 
ATOM      6  C   UNL     1     112.567 126.163 136.336  0.00  0.00    +0.000 A 
ATOM      7  C   UNL     1     112.469 125.366 136.521  0.00  0.00    +0.000 A 
ATOM      8  C   UNL     1     111.713 125.037 136.539  0.00  0.00    +0.000 A 
ATOM      9  C   UNL     1     113.162 124.888 136.695  0.00  0.00    +0.000 A 
ATOM     10  C   UNL     1     111.597 124.207 136.730  0.00  0.00    +0.000 A 
ATOM     11  C   UNL     1     113.066 124.057 136.889  0.00  0.00    +0.000 A 
ATOM     12  C   UNL     1     112.278 123.714 136.906  0.00  0.00    +0.000 A 
ENDROOT
BRANCH   5  15
ATOM     13  O   UNL     1     108.855 127.753 137.069  0.00  0.00    +0.000 OA
ATOM     14  O   UNL     1     108.521 128.176 135.510  0.00  0.00    +0.000 OA
ATOM     15  C   UNL     1     110.495 126.772 136.017  0.00  0.00    +0.000 A 
ATOM     16  C   UNL     1     110.004 127.028 136.628  0.00  0.00    +0.000 A 
ATOM     17  C   UNL     1     110.329 126.983 135.236  0.00  0.00    +0.000 A 
ATOM     18  C   UNL     1     109.346 127.497 136.458  0.00  0.00    +0.000 A 
ATOM     19  C   UNL     1     109.670 127.451 135.068  0.00  0.00    +0.000 A 
ATOM     20  C   UNL     1     109.179 127.708 135.679  0.00  0.00    +0.000 A 
ENDBRANCH   5  15
BRANCH   9  21
ATOM     21  O   UNL     1     113.914 125.226 136.675  0.00  0.00    +0.000 OA
ATOM     22  C   UNL     1     114.545 124.848 137.049  0.00  0.00    +0.000 C 
ENDBRANCH   9  21
BRANCH   4  23
ATOM     23  O   UNL     1     112.008 127.430 135.982  0.00  0.00    +0.000 OA
BRANCH  23  31
ATOM     24  O   UNL     1     112.319 127.795 137.329  0.00  0.00    +0.000 OA
ATOM     25  O   UNL     1     113.621 129.730 136.504  0.00  0.00    +0.000 OA
ATOM     26  O   UNL     1     112.877 128.721 135.432  0.00  0.00    +0.000 OA
ATOM     27  O   UNL     1     113.498 129.450 138.125  0.00  0.00    +0.000 OA
ATOM     28  C   UNL     1     113.187 129.086 136.779  0.00  0.00    +0.000 C 
ATOM     29  C   UNL     1     112.815 128.581 136.243  0.00  0.00    +0.000 C 
ATOM     30  C   UNL     1     113.125 128.945 137.589  0.00  0.00    +0.000 C 
ATOM     31  C   UNL     1     112.380 127.935 136.518  0.00  0.00    +0.000 C 
ATOM     32  C   UNL     1     112.691 128.300 137.864  0.00  0.00    +0.000 C 
ENDBRANCH  23  31
ENDBRANCH   4  23
TORSDOF 4
ENDMDL
MODEL 5
REMARK VINA RESULT:      -9.1      1.997      3.641
REMARK  Name = 131752176
REMARK  4 active torsions:
REMARK  status: ('A' for Active; 'I' for Inactive)
REMARK    1  A    between atoms: O_2  and  C_15
REMARK    2  A    between atoms: O_2  and  C_17
REMARK    3  A    between atoms: O_8  and  C_23
REMARK    4  A    between atoms: C_18  and  C_22
REMARK                            x       y       z     vdW  Elec       q    Type
REMARK                         _______ _______ _______ _____ _____    ______ ____
ROOT
ATOM      1  O   UNL     1     113.594 127.243 136.444  0.00  0.00    +0.000 OA
ATOM      2  O   UNL     1     112.409 128.334 138.323  0.00  0.00    +0.000 OA
ATOM      3  O   UNL     1     114.241 129.847 135.313  0.00  0.00    +0.000 OA
ATOM      4  C   UNL     1     112.844 127.147 137.658  0.00  0.00    +0.000 A 
ATOM      5  C   UNL     1     113.239 126.783 137.032  0.00  0.00    +0.000 A 
ATOM      6  C   UNL     1     112.804 127.970 137.697  0.00  0.00    +0.000 A 
ATOM      7  C   UNL     1     113.157 128.429 137.111  0.00  0.00    +0.000 A 
ATOM      8  C   UNL     1     113.552 128.066 136.484  0.00  0.00    +0.000 A 
ATOM      9  C   UNL     1     113.108 129.286 137.163  0.00  0.00    +0.000 A 
ATOM     10  C   UNL     1     113.925 128.533 135.867  0.00  0.00    +0.000 A 
ATOM     11  C   UNL     1     113.474 129.769 136.554  0.00  0.00    +0.000 A 
ATOM     12  C   UNL     1     113.885 129.391 135.902  0.00  0.00    +0.000 A 
ENDROOT
BRANCH   5  15
ATOM     13  O   UNL     1     114.714 124.359 137.370  0.00  0.00    +0.000 OA
ATOM     14  O   UNL     1     113.402 123.491 136.871  0.00  0.00    +0.000 OA
ATOM     15  C   UNL     1     113.281 125.961 136.992  0.00  0.00    +0.000 A 
ATOM     16  C   UNL     1     113.977 125.571 137.201  0.00  0.00    +0.000 A 
ATOM     17  C   UNL     1     112.624 125.526 136.742  0.00  0.00    +0.000 A 
ATOM     18  C   UNL     1     114.017 124.748 137.161  0.00  0.00    +0.000 A 
ATOM     19  C   UNL     1     112.665 124.704 136.702  0.00  0.00    +0.000 A 
ATOM     20  C   UNL     1     113.362 124.314 136.912  0.00  0.00    +0.000 A 
ENDBRANCH   5  15
BRANCH   9  21
ATOM     21  O   UNL     1     112.711 129.641 137.793  0.00  0.00    +0.000 OA
ATOM     22  C   UNL     1     112.740 130.460 137.889  0.00  0.00    +0.000 C 
ENDBRANCH   9  21
BRANCH   4  23
ATOM     23  O   UNL     1     112.491 126.688 138.245  0.00  0.00    +0.000 OA
BRANCH  23  31
ATOM     24  O   UNL     1     113.498 127.020 139.203  0.00  0.00    +0.000 OA
ATOM     25  O   UNL     1     111.929 126.480 141.039  0.00  0.00    +0.000 OA
ATOM     26  O   UNL     1     111.445 126.328 139.469  0.00  0.00    +0.000 OA
ATOM     27  O   UNL     1     113.459 126.992 141.385  0.00  0.00    +0.000 OA
ATOM     28  C   UNL     1     112.452 126.660 140.427  0.00  0.00    +0.000 C 
ATOM     29  C   UNL     1     112.210 126.584 139.642  0.00  0.00    +0.000 C 
ATOM     30  C   UNL     1     113.217 126.916 140.600  0.00  0.00    +0.000 C 
ATOM     31  C   UNL     1     112.733 126.764 139.030  0.00  0.00    +0.000 C 
ATOM     32  C   UNL     1     113.740 127.096 139.988  0.00  0.00    +0.000 C 
ENDBRANCH  23  31
ENDBRANCH   4  23
TORSDOF 4
ENDMDL
MODEL 6
REMARK VINA RESULT:      -9.0      2.585      4.509
REMARK  Name = 131752176
REMARK  4 active torsions:
REMARK  status: ('A' for Active; 'I' for Inactive)
REMARK    1  A    between atoms: O_2  and  C_15
REMARK    2  A    between atoms: O_2  and  C_17
REMARK    3  A    between atoms: O_8  and  C_23
REMARK    4  A    between atoms: C_18  and  C_22
REMARK                            x       y       z     vdW  Elec       q    Type
REMARK                         _______ _______ _______ _____ _____    ______ ____
ROOT
ATOM      1  O   UNL     1     113.786 126.256 138.492  0.00  0.00    +0.000 OA
ATOM      2  O   UNL     1     111.715 124.950 138.127  0.00  0.00    +0.000 OA
ATOM      3  O   UNL     1     115.097 124.820 136.324  0.00  0.00    +0.000 OA
ATOM      4  C   UNL     1     112.432 125.958 138.842  0.00  0.00    +0.000 A 
ATOM      5  C   UNL     1     113.122 126.393 138.964  0.00  0.00    +0.000 A 
ATOM      6  C   UNL     1     112.406 125.385 138.249  0.00  0.00    +0.000 A 
ATOM      7  C   UNL     1     113.068 125.248 137.777  0.00  0.00    +0.000 A 
ATOM      8  C   UNL     1     113.758 125.683 137.899  0.00  0.00    +0.000 A 
ATOM      9  C   UNL     1     113.027 124.649 137.162  0.00  0.00    +0.000 A 
ATOM     10  C   UNL     1     114.455 125.550 137.413  0.00  0.00    +0.000 A 
ATOM     11  C   UNL     1     113.714 124.501 136.668  0.00  0.00    +0.000 A 
ATOM     12  C   UNL     1     114.432 124.955 136.794  0.00  0.00    +0.000 A 
ENDROOT
BRANCH   5  15
ATOM     13  O   UNL     1     113.078 129.137 139.760  0.00  0.00    +0.000 OA
ATOM     14  O   UNL     1     113.235 128.682 141.338  0.00  0.00    +0.000 OA
ATOM     15  C   UNL     1     113.150 126.966 139.557  0.00  0.00    +0.000 A 
ATOM     16  C   UNL     1     113.100 127.766 139.361  0.00  0.00    +0.000 A 
ATOM     17  C   UNL     1     113.229 126.738 140.347  0.00  0.00    +0.000 A 
ATOM     18  C   UNL     1     113.128 128.337 139.956  0.00  0.00    +0.000 A 
ATOM     19  C   UNL     1     113.257 127.310 140.940  0.00  0.00    +0.000 A 
ATOM     20  C   UNL     1     113.207 128.110 140.744  0.00  0.00    +0.000 A 
ENDBRANCH   5  15
BRANCH   9  21
ATOM     21  O   UNL     1     112.332 124.218 137.048  0.00  0.00    +0.000 OA
ATOM     22  C   UNL     1     112.250 123.740 136.381  0.00  0.00    +0.000 C 
ENDBRANCH   9  21
BRANCH   4  23
ATOM     23  O   UNL     1     111.770 126.095 139.314  0.00  0.00    +0.000 OA
BRANCH  23  31
ATOM     24  O   UNL     1     111.051 126.748 138.266  0.00  0.00    +0.000 OA
ATOM     25  O   UNL     1     108.912 126.091 139.324  0.00  0.00    +0.000 OA
ATOM     26  O   UNL     1     110.344 125.657 140.019  0.00  0.00    +0.000 OA
ATOM     27  O   UNL     1     108.906 126.963 137.924  0.00  0.00    +0.000 OA
ATOM     28  C   UNL     1     109.625 126.310 138.972  0.00  0.00    +0.000 C 
ATOM     29  C   UNL     1     110.341 126.093 139.319  0.00  0.00    +0.000 C 
ATOM     30  C   UNL     1     109.622 126.746 138.271  0.00  0.00    +0.000 C 
ATOM     31  C   UNL     1     111.054 126.312 138.966  0.00  0.00    +0.000 C 
ATOM     32  C   UNL     1     110.335 126.965 137.919  0.00  0.00    +0.000 C 
ENDBRANCH  23  31
ENDBRANCH   4  23
TORSDOF 4
ENDMDL
MODEL 7
REMARK VINA RESULT:      -9.0     12.857     13.625
REMARK  Name = 131752176
REMARK  4 active torsions:
REMARK  status: ('A' for Active; 'I' for Inactive)
REMARK    1  A    between atoms: O_2  and  C_15
REMARK    2  A    between atoms: O_2  and  C_17
REMARK    3  A    between atoms: O_8  and  C_23
REMARK    4  A    between atoms: C_18  and  C_22
REMARK                            x       y       z     vdW  Elec       q    Type
REMARK                         _______ _______ _______ _____ _____    ______ ____
ROOT
ATOM      1  O   UNL     1     103.862 124.337 148.079  0.00  0.00    +0.000 OA
ATOM      2  O   UNL     1     104.072 124.008 145.635  0.00  0.00    +0.000 OA
ATOM      3  O   UNL     1     101.068 123.523 147.968  0.00  0.00    +0.000 OA
ATOM      4  C   UNL     1     104.652 124.373 146.889  0.00  0.00    +0.000 A 
ATOM      5  C   UNL     1     104.582 124.482 147.703  0.00  0.00    +0.000 A 
ATOM      6  C   UNL     1     104.002 124.117 146.450  0.00  0.00    +0.000 A 
ATOM      7  C   UNL     1     103.282 123.972 146.825  0.00  0.00    +0.000 A 
ATOM      8  C   UNL     1     103.212 124.081 147.639  0.00  0.00    +0.000 A 
ATOM      9  C   UNL     1     102.612 123.706 146.356  0.00  0.00    +0.000 A 
ATOM     10  C   UNL     1     102.467 123.933 148.042  0.00  0.00    +0.000 A 
ATOM     11  C   UNL     1     101.860 123.553 146.741  0.00  0.00    +0.000 A 
ATOM     12  C   UNL     1     101.787 123.667 147.589  0.00  0.00    +0.000 A 
ENDROOT
BRANCH   5  15
ATOM     13  O   UNL     1     105.941 126.541 149.147  0.00  0.00    +0.000 OA
ATOM     14  O   UNL     1     107.182 125.500 149.463  0.00  0.00    +0.000 OA
ATOM     15  C   UNL     1     105.232 124.737 148.143  0.00  0.00    +0.000 A 
ATOM     16  C   UNL     1     105.261 125.512 148.425  0.00  0.00    +0.000 A 
ATOM     17  C   UNL     1     105.853 124.216 148.301  0.00  0.00    +0.000 A 
ATOM     18  C   UNL     1     105.912 125.766 148.865  0.00  0.00    +0.000 A 
ATOM     19  C   UNL     1     106.502 124.471 148.741  0.00  0.00    +0.000 A 
ATOM     20  C   UNL     1     106.532 125.246 149.023  0.00  0.00    +0.000 A 
ENDBRANCH   5  15
BRANCH   9  21
ATOM     21  O   UNL     1     102.692 123.600 145.542  0.00  0.00    +0.000 OA
ATOM     22  C   UNL     1     102.193 123.077 145.145  0.00  0.00    +0.000 C 
ENDBRANCH   9  21
BRANCH   4  23
ATOM     23  O   UNL     1     105.372 124.518 146.514  0.00  0.00    +0.000 OA
BRANCH  23  31
ATOM     24  O   UNL     1     104.944 125.765 145.963  0.00  0.00    +0.000 OA
ATOM     25  O   UNL     1     106.524 125.478 144.081  0.00  0.00    +0.000 OA
ATOM     26  O   UNL     1     106.426 124.327 145.258  0.00  0.00    +0.000 OA
ATOM     27  O   UNL     1     105.569 126.821 144.158  0.00  0.00    +0.000 OA
ATOM     28  C   UNL     1     105.998 125.574 144.708  0.00  0.00    +0.000 C 
ATOM     29  C   UNL     1     105.948 124.998 145.297  0.00  0.00    +0.000 C 
ATOM     30  C   UNL     1     105.519 126.245 144.747  0.00  0.00    +0.000 C 
ATOM     31  C   UNL     1     105.421 125.094 145.925  0.00  0.00    +0.000 C 
ATOM     32  C   UNL     1     104.993 126.341 145.374  0.00  0.00    +0.000 C 
ENDBRANCH  23  31
ENDBRANCH   4  23
TORSDOF 4
ENDMDL
MODEL 8
REMARK VINA RESULT:      -8.9      1.902      3.963
REMARK  Name = 131752176
REMARK  4 active torsions:
REMARK  status: ('A' for Active; 'I' for Inactive)
REMARK    1  A    between atoms: O_2  and  C_15
REMARK    2  A    between atoms: O_2  and  C_17
REMARK    3  A    between atoms: O_8  and  C_23
REMARK    4  A    between atoms: C_18  and  C_22
REMARK                            x       y       z     vdW  Elec       q    Type
REMARK                         _______ _______ _______ _____ _____    ______ ____
ROOT
ATOM      1  O   UNL     1     113.442 126.200 138.714  0.00  0.00    +0.000 OA
ATOM      2  O   UNL     1     111.056 125.693 138.298  0.00  0.00    +0.000 OA
ATOM      3  O   UNL     1     112.775 127.300 141.326  0.00  0.00    +0.000 OA
ATOM      4  C   UNL     1     112.417 125.678 137.865  0.00  0.00    +0.000 A 
ATOM      5  C   UNL     1     113.213 125.847 138.004  0.00  0.00    +0.000 A 
ATOM      6  C   UNL     1     111.851 125.862 138.437  0.00  0.00    +0.000 A 
ATOM      7  C   UNL     1     112.080 126.215 139.146  0.00  0.00    +0.000 A 
ATOM      8  C   UNL     1     112.876 126.384 139.284  0.00  0.00    +0.000 A 
ATOM      9  C   UNL     1     111.481 126.402 139.733  0.00  0.00    +0.000 A 
ATOM     10  C   UNL     1     113.127 126.752 140.020  0.00  0.00    +0.000 A 
ATOM     11  C   UNL     1     111.713 126.770 140.473  0.00  0.00    +0.000 A 
ATOM     12  C   UNL     1     112.542 126.946 140.618  0.00  0.00    +0.000 A 
ENDROOT
BRANCH   5  15
ATOM     13  O   UNL     1     114.932 126.657 135.870  0.00  0.00    +0.000 OA
ATOM     14  O   UNL     1     115.480 125.108 135.722  0.00  0.00    +0.000 OA
ATOM     15  C   UNL     1     113.779 125.663 137.433  0.00  0.00    +0.000 A 
ATOM     16  C   UNL     1     114.072 126.253 136.937  0.00  0.00    +0.000 A 
ATOM     17  C   UNL     1     114.054 124.887 137.360  0.00  0.00    +0.000 A 
ATOM     18  C   UNL     1     114.639 126.067 136.366  0.00  0.00    +0.000 A 
ATOM     19  C   UNL     1     114.620 124.703 136.789  0.00  0.00    +0.000 A 
ATOM     20  C   UNL     1     114.913 125.293 136.293  0.00  0.00    +0.000 A 
ENDBRANCH   5  15
BRANCH   9  21
ATOM     21  O   UNL     1     110.688 126.230 139.586  0.00  0.00    +0.000 OA
ATOM     22  C   UNL     1     110.104 126.512 140.095  0.00  0.00    +0.000 C 
ENDBRANCH   9  21
BRANCH   4  23
ATOM     23  O   UNL     1     112.188 125.325 137.156  0.00  0.00    +0.000 OA
BRANCH  23  31
ATOM     24  O   UNL     1     111.606 126.533 136.664  0.00  0.00    +0.000 OA
ATOM     25  O   UNL     1     110.163 125.219 135.142  0.00  0.00    +0.000 OA
ATOM     26  O   UNL     1     111.226 124.448 136.142  0.00  0.00    +0.000 OA
ATOM     27  O   UNL     1     110.063 126.866 135.157  0.00  0.00    +0.000 OA
ATOM     28  C   UNL     1     110.644 125.657 135.649  0.00  0.00    +0.000 C 
ATOM     29  C   UNL     1     111.175 125.272 136.149  0.00  0.00    +0.000 C 
ATOM     30  C   UNL     1     110.594 126.481 135.657  0.00  0.00    +0.000 C 
ATOM     31  C   UNL     1     111.657 125.710 136.657  0.00  0.00    +0.000 C 
ATOM     32  C   UNL     1     111.075 126.919 136.164  0.00  0.00    +0.000 C 
ENDBRANCH  23  31
ENDBRANCH   4  23
TORSDOF 4
ENDMDL
MODEL 9
REMARK VINA RESULT:      -8.8      1.891      3.678
REMARK  Name = 131752176
REMARK  4 active torsions:
REMARK  status: ('A' for Active; 'I' for Inactive)
REMARK    1  A    between atoms: O_2  and  C_15
REMARK    2  A    between atoms: O_2  and  C_17
REMARK    3  A    between atoms: O_8  and  C_23
REMARK    4  A    between atoms: C_18  and  C_22
REMARK                            x       y       z     vdW  Elec       q    Type
REMARK                         _______ _______ _______ _____ _____    ______ ____
ROOT
ATOM      1  O   UNL     1     113.302 126.080 138.929  0.00  0.00    +0.000 OA
ATOM      2  O   UNL     1     112.551 128.357 138.316  0.00  0.00    +0.000 OA
ATOM      3  O   UNL     1     114.676 127.141 141.267  0.00  0.00    +0.000 OA
ATOM      4  C   UNL     1     112.590 126.954 138.049  0.00  0.00    +0.000 A 
ATOM      5  C   UNL     1     112.841 126.195 138.253  0.00  0.00    +0.000 A 
ATOM      6  C   UNL     1     112.801 127.598 138.520  0.00  0.00    +0.000 A 
ATOM      7  C   UNL     1     113.261 127.484 139.194  0.00  0.00    +0.000 A 
ATOM      8  C   UNL     1     113.512 126.725 139.398  0.00  0.00    +0.000 A 
ATOM      9  C   UNL     1     113.474 128.163 139.676  0.00  0.00    +0.000 A 
ATOM     10  C   UNL     1     113.992 126.593 140.099  0.00  0.00    +0.000 A 
ATOM     11  C   UNL     1     113.954 128.050 140.380  0.00  0.00    +0.000 A 
ATOM     12  C   UNL     1     114.214 127.259 140.593  0.00  0.00    +0.000 A 
ENDROOT
BRANCH   5  15
ATOM     13  O   UNL     1     113.533 124.218 136.310  0.00  0.00    +0.000 OA
ATOM     14  O   UNL     1     111.998 123.616 136.375  0.00  0.00    +0.000 OA
ATOM     15  C   UNL     1     112.631 125.550 137.784  0.00  0.00    +0.000 A 
ATOM     16  C   UNL     1     113.188 125.206 137.281  0.00  0.00    +0.000 A 
ATOM     17  C   UNL     1     111.862 125.250 137.816  0.00  0.00    +0.000 A 
ATOM     18  C   UNL     1     112.976 124.562 136.812  0.00  0.00    +0.000 A 
ATOM     19  C   UNL     1     111.652 124.605 137.346  0.00  0.00    +0.000 A 
ATOM     20  C   UNL     1     112.209 124.261 136.844  0.00  0.00    +0.000 A 
ENDBRANCH   5  15
BRANCH   9  21
ATOM     21  O   UNL     1     113.219 128.918 139.464  0.00  0.00    +0.000 OA
ATOM     22  C   UNL     1     113.511 129.579 139.863  0.00  0.00    +0.000 C 
ENDBRANCH   9  21
BRANCH   4  23
ATOM     23  O   UNL     1     112.130 127.069 137.375  0.00  0.00    +0.000 OA
BRANCH  23  31
ATOM     24  O   UNL     1     113.206 127.658 136.642  0.00  0.00    +0.000 OA
ATOM     25  O   UNL     1     111.578 128.874 135.230  0.00  0.00    +0.000 OA
ATOM     26  O   UNL     1     111.044 127.879 136.433  0.00  0.00    +0.000 OA
ATOM     27  O   UNL     1     113.196 129.058 134.968  0.00  0.00    +0.000 OA
ATOM     28  C   UNL     1     112.120 128.469 135.700  0.00  0.00    +0.000 C 
ATOM     29  C   UNL     1     111.853 127.972 136.302  0.00  0.00    +0.000 C 
ATOM     30  C   UNL     1     112.930 128.561 135.569  0.00  0.00    +0.000 C 
ATOM     31  C   UNL     1     112.397 127.566 136.773  0.00  0.00    +0.000 C 
ATOM     32  C   UNL     1     113.472 128.156 136.040  0.00  0.00    +0.000 C 
ENDBRANCH  23  31
ENDBRANCH   4  23
TORSDOF 4
ENDMDL
MODEL 10
REMARK VINA RESULT:      -8.8      2.012      4.236
REMARK  Name = 131752176
REMARK  4 active torsions:
REMARK  status: ('A' for Active; 'I' for Inactive)
REMARK    1  A    between atoms: O_2  and  C_15
REMARK    2  A    between atoms: O_2  and  C_17
REMARK    3  A    between atoms: O_8  and  C_23
REMARK    4  A    between atoms: C_18  and  C_22
REMARK                            x       y       z     vdW  Elec       q    Type
REMARK                         _______ _______ _______ _____ _____    ______ ____
ROOT
ATOM      1  O   UNL     1     112.405 128.070 135.552  0.00  0.00    +0.000 OA
ATOM      2  O   UNL     1     111.290 129.968 136.684  0.00  0.00    +0.000 OA
ATOM      3  O   UNL     1     114.919 129.540 135.521  0.00  0.00    +0.000 OA
ATOM      4  C   UNL     1     111.232 128.655 136.123  0.00  0.00    +0.000 A 
ATOM      5  C   UNL     1     111.604 128.022 135.746  0.00  0.00    +0.000 A 
ATOM      6  C   UNL     1     111.662 129.335 136.306  0.00  0.00    +0.000 A 
ATOM      7  C   UNL     1     112.462 129.383 136.113  0.00  0.00    +0.000 A 
ATOM      8  C   UNL     1     112.833 128.751 135.736  0.00  0.00    +0.000 A 
ATOM      9  C   UNL     1     112.898 130.098 136.309  0.00  0.00    +0.000 A 
ATOM     10  C   UNL     1     113.667 128.789 135.528  0.00  0.00    +0.000 A 
ATOM     11  C   UNL     1     113.731 130.154 136.109  0.00  0.00    +0.000 A 
ATOM     12  C   UNL     1     114.118 129.495 135.717  0.00  0.00    +0.000 A 
ENDROOT
BRANCH   5  15
ATOM     13  O   UNL     1     110.470 125.521 136.539  0.00  0.00    +0.000 OA
ATOM     14  O   UNL     1     109.891 125.299 135.010  0.00  0.00    +0.000 OA
ATOM     15  C   UNL     1     111.176 127.341 135.563  0.00  0.00    +0.000 A 
ATOM     16  C   UNL     1     111.037 126.772 136.143  0.00  0.00    +0.000 A 
ATOM     17  C   UNL     1     110.886 127.230 134.798  0.00  0.00    +0.000 A 
ATOM     18  C   UNL     1     110.609 126.091 135.959  0.00  0.00    +0.000 A 
ATOM     19  C   UNL     1     110.458 126.549 134.614  0.00  0.00    +0.000 A 
ATOM     20  C   UNL     1     110.320 125.980 135.195  0.00  0.00    +0.000 A 
ENDBRANCH   5  15
BRANCH   9  21
ATOM     21  O   UNL     1     112.517 130.725 136.686  0.00  0.00    +0.000 OA
ATOM     22  C   UNL     1     112.952 131.383 136.930  0.00  0.00    +0.000 C 
ENDBRANCH   9  21
BRANCH   4  23
ATOM     23  O   UNL     1     110.433 128.606 136.317  0.00  0.00    +0.000 OA
BRANCH  23  31
ATOM     24  O   UNL     1     110.059 129.533 135.295  0.00  0.00    +0.000 OA
ATOM     25  O   UNL     1     107.986 130.068 136.536  0.00  0.00    +0.000 OA
ATOM     26  O   UNL     1     109.050 128.963 137.145  0.00  0.00    +0.000 OA
ATOM     27  O   UNL     1     108.305 130.816 135.100  0.00  0.00    +0.000 OA
ATOM     28  C   UNL     1     108.677 129.890 136.123  0.00  0.00    +0.000 C 
ATOM     29  C   UNL     1     109.209 129.337 136.427  0.00  0.00    +0.000 C 
ATOM     30  C   UNL     1     108.837 130.263 135.404  0.00  0.00    +0.000 C 
ATOM     31  C   UNL     1     109.901 129.159 136.013  0.00  0.00    +0.000 C 
ATOM     32  C   UNL     1     109.527 130.085 134.991  0.00  0.00    +0.000 C 
ENDBRANCH  23  31
ENDBRANCH   4  23
TORSDOF 4
ENDMDL
