MODEL 1
REMARK VINA RESULT:      -9.5      0.000      0.000
REMARK  Name = 
REMARK  7 active torsions:
REMARK  status: ('A' for Active; 'I' for Inactive)
REMARK    1  A    between atoms: C_6  and  C_7
REMARK    2  A    between atoms: C_8  and  O_20
REMARK    3  A    between atoms: O_20  and  C_21
REMARK    4  A    between atoms: C_22  and  O_31
REMARK    5  A    between atoms: C_25  and  C_27
REMARK    6  A    between atoms: O_31  and  C_32
REMARK    7  A    between atoms: C_36  and  C_38
REMARK                            x       y       z     vdW  Elec       q    Type
REMARK                         _______ _______ _______ _____ _____    ______ ____
ROOT
ATOM      1  C   UNL     1     112.472 129.240 137.301  0.00  0.00    +0.000 C 
ATOM      2  C   UNL     1     112.746 129.978 137.911  0.00  0.00    +0.000 C 
ATOM      3  C   UNL     1     113.583 130.507 137.720  0.00  0.00    +0.000 C 
ATOM      4  C   UNL     1     114.136 130.292 136.921  0.00  0.00    +0.000 C 
ATOM      5  C   UNL     1     113.863 129.554 136.310  0.00  0.00    +0.000 C 
ATOM      6  O   UNL     1     113.027 129.025 136.501  0.00  0.00    +0.000 OA
ATOM      7  O   UNL     1     114.965 130.816 136.732  0.00  0.00    +0.000 OA
ATOM      8  O   UNL     1     113.854 131.251 138.339  0.00  0.00    +0.000 OA
ENDROOT
BRANCH   5   9
ATOM      9  C   UNL     1     114.419 129.333 135.502  0.00  0.00    +0.000 C 
ATOM     10  O   UNL     1     114.555 128.385 135.231  0.00  0.00    +0.000 OA
ENDBRANCH   5   9
BRANCH   1  11
ATOM     11  O   UNL     1     111.645 128.717 137.490  0.00  0.00    +0.000 OA
BRANCH  11  13
ATOM     12  C   UNL     1     110.873 127.585 136.439  0.00  0.00    +0.000 A 
ATOM     13  C   UNL     1     111.551 127.788 137.141  0.00  0.00    +0.000 A 
ATOM     14  C   UNL     1     112.139 127.053 137.494  0.00  0.00    +0.000 A 
ATOM     15  O   UNL     1     112.818 127.257 138.196  0.00  0.00    +0.000 OA
ATOM     16  C   UNL     1     112.045 126.125 137.145  0.00  0.00    +0.000 A 
ATOM     17  C   UNL     1     112.630 125.401 137.498  0.00  0.00    +0.000 A 
ATOM     18  C   UNL     1     112.540 124.462 137.149  0.00  0.00    +0.000 A 
ATOM     19  C   UNL     1     111.861 124.259 136.448  0.00  0.00    +0.000 A 
ATOM     20  C   UNL     1     111.273 124.994 136.094  0.00  0.00    +0.000 A 
ATOM     21  C   UNL     1     111.367 125.922 136.443  0.00  0.00    +0.000 A 
ATOM     22  O   UNL     1     110.782 126.646 136.090  0.00  0.00    +0.000 OA
ATOM     23  O   UNL     1     111.767 123.330 136.099  0.00  0.00    +0.000 OA
ATOM     24  O   UNL     1     113.309 125.604 138.200  0.00  0.00    +0.000 OA
BRANCH  12  30
ATOM     25  C   UNL     1     110.518 128.767 135.217  0.00  0.00    +0.000 A 
ATOM     26  C   UNL     1     109.933 129.492 134.864  0.00  0.00    +0.000 A 
ATOM     27  C   UNL     1     109.111 129.771 135.371  0.00  0.00    +0.000 A 
ATOM     28  C   UNL     1     108.881 129.314 136.240  0.00  0.00    +0.000 A 
ATOM     29  C   UNL     1     109.474 128.583 136.592  0.00  0.00    +0.000 A 
ATOM     30  C   UNL     1     110.287 128.310 136.086  0.00  0.00    +0.000 A 
ATOM     31  O   UNL     1     108.527 130.496 135.018  0.00  0.00    +0.000 OA
ENDBRANCH  12  30
ENDBRANCH  11  13
ENDBRANCH   1  11
BRANCH   2  32
ATOM     32  O   UNL     1     112.190 130.199 138.719  0.00  0.00    +0.000 OA
BRANCH  32  33
ATOM     33  C   UNL     1     111.407 130.808 138.637  0.00  0.00    +0.000 C 
ATOM     34  C   UNL     1     110.673 130.767 139.310  0.00  0.00    +0.000 C 
ATOM     35  C   UNL     1     109.880 131.380 139.231  0.00  0.00    +0.000 C 
ATOM     36  C   UNL     1     109.829 132.037 138.468  0.00  0.00    +0.000 C 
ATOM     37  C   UNL     1     110.572 132.074 137.792  0.00  0.00    +0.000 C 
ATOM     38  O   UNL     1     111.356 131.465 137.874  0.00  0.00    +0.000 OA
ATOM     39  O   UNL     1     109.045 132.646 138.387  0.00  0.00    +0.000 OA
ATOM     40  O   UNL     1     109.146 131.340 139.904  0.00  0.00    +0.000 OA
ATOM     41  O   UNL     1     110.723 130.118 140.064  0.00  0.00    +0.000 OA
BRANCH  37  42
ATOM     42  C   UNL     1     110.522 132.725 137.037  0.00  0.00    +0.000 C 
ATOM     43  O   UNL     1     111.358 133.078 136.628  0.00  0.00    +0.000 OA
ENDBRANCH  37  42
ENDBRANCH  32  33
ENDBRANCH   2  32
TORSDOF 7
ENDMDL
MODEL 2
REMARK VINA RESULT:      -9.3      1.552      3.597
REMARK  Name = 
REMARK  7 active torsions:
REMARK  status: ('A' for Active; 'I' for Inactive)
REMARK    1  A    between atoms: C_6  and  C_7
REMARK    2  A    between atoms: C_8  and  O_20
REMARK    3  A    between atoms: O_20  and  C_21
REMARK    4  A    between atoms: C_22  and  O_31
REMARK    5  A    between atoms: C_25  and  C_27
REMARK    6  A    between atoms: O_31  and  C_32
REMARK    7  A    between atoms: C_36  and  C_38
REMARK                            x       y       z     vdW  Elec       q    Type
REMARK                         _______ _______ _______ _____ _____    ______ ____
ROOT
ATOM      1  C   UNL     1     110.703 128.741 138.441  0.00  0.00    +0.000 C 
ATOM      2  C   UNL     1     109.775 129.095 138.520  0.00  0.00    +0.000 C 
ATOM      3  C   UNL     1     109.392 129.308 139.428  0.00  0.00    +0.000 C 
ATOM      4  C   UNL     1     109.940 129.165 140.246  0.00  0.00    +0.000 C 
ATOM      5  C   UNL     1     110.868 128.810 140.168  0.00  0.00    +0.000 C 
ATOM      6  O   UNL     1     111.251 128.597 139.261  0.00  0.00    +0.000 OA
ATOM      7  O   UNL     1     109.560 129.376 141.145  0.00  0.00    +0.000 OA
ATOM      8  O   UNL     1     108.455 129.666 139.501  0.00  0.00    +0.000 OA
ENDROOT
BRANCH   5   9
ATOM      9  C   UNL     1     111.426 128.664 140.991  0.00  0.00    +0.000 C 
ATOM     10  O   UNL     1     112.304 128.200 140.927  0.00  0.00    +0.000 OA
ENDBRANCH   5   9
BRANCH   1  11
ATOM     11  O   UNL     1     111.082 128.530 137.543  0.00  0.00    +0.000 OA
BRANCH  11  13
ATOM     12  C   UNL     1     112.736 128.153 137.221  0.00  0.00    +0.000 A 
ATOM     13  C   UNL     1     111.813 127.858 137.456  0.00  0.00    +0.000 A 
ATOM     14  C   UNL     1     111.624 126.882 137.604  0.00  0.00    +0.000 A 
ATOM     15  O   UNL     1     110.701 126.587 137.839  0.00  0.00    +0.000 OA
ATOM     16  C   UNL     1     112.355 126.211 137.516  0.00  0.00    +0.000 A 
ATOM     17  C   UNL     1     112.162 125.245 137.664  0.00  0.00    +0.000 A 
ATOM     18  C   UNL     1     112.896 124.564 137.577  0.00  0.00    +0.000 A 
ATOM     19  C   UNL     1     113.819 124.859 137.342  0.00  0.00    +0.000 A 
ATOM     20  C   UNL     1     114.009 125.835 137.194  0.00  0.00    +0.000 A 
ATOM     21  C   UNL     1     113.278 126.506 137.281  0.00  0.00    +0.000 A 
ATOM     22  O   UNL     1     113.471 127.472 137.134  0.00  0.00    +0.000 OA
ATOM     23  O   UNL     1     114.550 124.188 137.254  0.00  0.00    +0.000 OA
ATOM     24  O   UNL     1     111.239 124.950 137.899  0.00  0.00    +0.000 OA
BRANCH  12  30
ATOM     25  C   UNL     1     113.392 129.657 137.790  0.00  0.00    +0.000 A 
ATOM     26  C   UNL     1     113.584 130.623 137.643  0.00  0.00    +0.000 A 
ATOM     27  C   UNL     1     113.318 131.066 136.780  0.00  0.00    +0.000 A 
ATOM     28  C   UNL     1     112.855 130.529 136.064  0.00  0.00    +0.000 A 
ATOM     29  C   UNL     1     112.663 129.554 136.217  0.00  0.00    +0.000 A 
ATOM     30  C   UNL     1     112.929 129.120 137.073  0.00  0.00    +0.000 A 
ATOM     31  O   UNL     1     113.511 132.032 136.633  0.00  0.00    +0.000 OA
ENDBRANCH  12  30
ENDBRANCH  11  13
ENDBRANCH   1  11
BRANCH   2  32
ATOM     32  O   UNL     1     109.218 129.242 137.696  0.00  0.00    +0.000 OA
BRANCH  32  33
ATOM     33  C   UNL     1     109.246 130.117 137.221  0.00  0.00    +0.000 C 
ATOM     34  C   UNL     1     108.842 130.203 136.315  0.00  0.00    +0.000 C 
ATOM     35  C   UNL     1     108.868 131.084 135.832  0.00  0.00    +0.000 C 
ATOM     36  C   UNL     1     109.305 131.881 136.267  0.00  0.00    +0.000 C 
ATOM     37  C   UNL     1     109.711 131.788 137.182  0.00  0.00    +0.000 C 
ATOM     38  O   UNL     1     109.683 130.914 137.657  0.00  0.00    +0.000 OA
ATOM     39  O   UNL     1     109.333 132.756 135.792  0.00  0.00    +0.000 OA
ATOM     40  O   UNL     1     108.463 131.171 134.925  0.00  0.00    +0.000 OA
ATOM     41  O   UNL     1     108.409 129.415 135.884  0.00  0.00    +0.000 OA
BRANCH  37  42
ATOM     42  C   UNL     1     110.144 132.577 137.613  0.00  0.00    +0.000 C 
ATOM     43  O   UNL     1     110.517 132.500 138.533  0.00  0.00    +0.000 OA
ENDBRANCH  37  42
ENDBRANCH  32  33
ENDBRANCH   2  32
TORSDOF 7
ENDMDL
MODEL 3
REMARK VINA RESULT:      -9.2      2.374      4.379
REMARK  Name = 
REMARK  7 active torsions:
REMARK  status: ('A' for Active; 'I' for Inactive)
REMARK    1  A    between atoms: C_6  and  C_7
REMARK    2  A    between atoms: C_8  and  O_20
REMARK    3  A    between atoms: O_20  and  C_21
REMARK    4  A    between atoms: C_22  and  O_31
REMARK    5  A    between atoms: C_25  and  C_27
REMARK    6  A    between atoms: O_31  and  C_32
REMARK    7  A    between atoms: C_36  and  C_38
REMARK                            x       y       z     vdW  Elec       q    Type
REMARK                         _______ _______ _______ _____ _____    ______ ____
ROOT
ATOM      1  C   UNL     1     110.811 128.545 139.329  0.00  0.00    +0.000 C 
ATOM      2  C   UNL     1     110.018 128.784 139.882  0.00  0.00    +0.000 C 
ATOM      3  C   UNL     1     109.277 129.342 139.487  0.00  0.00    +0.000 C 
ATOM      4  C   UNL     1     109.336 129.653 138.544  0.00  0.00    +0.000 C 
ATOM      5  C   UNL     1     110.128 129.414 137.989  0.00  0.00    +0.000 C 
ATOM      6  O   UNL     1     110.870 128.857 138.384  0.00  0.00    +0.000 OA
ATOM      7  O   UNL     1     108.602 130.205 138.153  0.00  0.00    +0.000 OA
ATOM      8  O   UNL     1     108.479 129.581 140.051  0.00  0.00    +0.000 OA
ENDROOT
BRANCH   5   9
ATOM      9  C   UNL     1     110.193 129.726 137.036  0.00  0.00    +0.000 C 
ATOM     10  O   UNL     1     110.916 129.383 136.444  0.00  0.00    +0.000 OA
ENDBRANCH   5   9
BRANCH   1  11
ATOM     11  O   UNL     1     111.544 127.993 139.719  0.00  0.00    +0.000 OA
BRANCH  11  13
ATOM     12  C   UNL     1     113.080 127.710 138.982  0.00  0.00    +0.000 A 
ATOM     13  C   UNL     1     112.128 127.447 139.124  0.00  0.00    +0.000 A 
ATOM     14  C   UNL     1     111.762 126.630 138.666  0.00  0.00    +0.000 A 
ATOM     15  O   UNL     1     110.811 126.368 138.808  0.00  0.00    +0.000 OA
ATOM     16  C   UNL     1     112.347 126.085 138.072  0.00  0.00    +0.000 A 
ATOM     17  C   UNL     1     111.979 125.277 137.620  0.00  0.00    +0.000 A 
ATOM     18  C   UNL     1     112.565 124.723 137.019  0.00  0.00    +0.000 A 
ATOM     19  C   UNL     1     113.516 124.986 136.876  0.00  0.00    +0.000 A 
ATOM     20  C   UNL     1     113.882 125.803 137.335  0.00  0.00    +0.000 A 
ATOM     21  C   UNL     1     113.298 126.348 137.929  0.00  0.00    +0.000 A 
ATOM     22  O   UNL     1     113.666 127.156 138.381  0.00  0.00    +0.000 OA
ATOM     23  O   UNL     1     114.101 124.441 136.282  0.00  0.00    +0.000 OA
ATOM     24  O   UNL     1     111.028 125.015 137.762  0.00  0.00    +0.000 OA
BRANCH  12  30
ATOM     25  C   UNL     1     113.509 129.392 138.934  0.00  0.00    +0.000 A 
ATOM     26  C   UNL     1     113.876 130.200 139.386  0.00  0.00    +0.000 A 
ATOM     27  C   UNL     1     114.186 130.149 140.341  0.00  0.00    +0.000 A 
ATOM     28  C   UNL     1     114.125 129.276 140.840  0.00  0.00    +0.000 A 
ATOM     29  C   UNL     1     113.753 128.462 140.380  0.00  0.00    +0.000 A 
ATOM     30  C   UNL     1     113.447 128.519 139.434  0.00  0.00    +0.000 A 
ATOM     31  O   UNL     1     114.553 130.957 140.792  0.00  0.00    +0.000 OA
ENDBRANCH  12  30
ENDBRANCH  11  13
ENDBRANCH   1  11
BRANCH   2  32
ATOM     32  O   UNL     1     109.954 128.472 140.836  0.00  0.00    +0.000 OA
BRANCH  32  33
ATOM     33  C   UNL     1     110.405 128.983 141.562  0.00  0.00    +0.000 C 
ATOM     34  C   UNL     1     110.666 128.522 142.405  0.00  0.00    +0.000 C 
ATOM     35  C   UNL     1     111.122 129.033 143.141  0.00  0.00    +0.000 C 
ATOM     36  C   UNL     1     111.315 130.015 143.022  0.00  0.00    +0.000 C 
ATOM     37  C   UNL     1     111.050 130.475 142.169  0.00  0.00    +0.000 C 
ATOM     38  O   UNL     1     110.598 129.965 141.443  0.00  0.00    +0.000 OA
ATOM     39  O   UNL     1     111.766 130.526 143.749  0.00  0.00    +0.000 OA
ATOM     40  O   UNL     1     111.382 128.572 143.985  0.00  0.00    +0.000 OA
ATOM     41  O   UNL     1     110.475 127.550 142.523  0.00  0.00    +0.000 OA
BRANCH  37  42
ATOM     42  C   UNL     1     111.241 131.448 142.051  0.00  0.00    +0.000 C 
ATOM     43  O   UNL     1     110.938 131.919 141.228  0.00  0.00    +0.000 OA
ENDBRANCH  37  42
ENDBRANCH  32  33
ENDBRANCH   2  32
TORSDOF 7
ENDMDL
MODEL 4
REMARK VINA RESULT:      -9.1      1.635      3.476
REMARK  Name = 
REMARK  7 active torsions:
REMARK  status: ('A' for Active; 'I' for Inactive)
REMARK    1  A    between atoms: C_6  and  C_7
REMARK    2  A    between atoms: C_8  and  O_20
REMARK    3  A    between atoms: O_20  and  C_21
REMARK    4  A    between atoms: C_22  and  O_31
REMARK    5  A    between atoms: C_25  and  C_27
REMARK    6  A    between atoms: O_31  and  C_32
REMARK    7  A    between atoms: C_36  and  C_38
REMARK                            x       y       z     vdW  Elec       q    Type
REMARK                         _______ _______ _______ _____ _____    ______ ____
ROOT
ATOM      1  C   UNL     1     110.797 128.421 137.527  0.00  0.00    +0.000 C 
ATOM      2  C   UNL     1     109.865 128.769 137.572  0.00  0.00    +0.000 C 
ATOM      3  C   UNL     1     109.458 129.229 136.772  0.00  0.00    +0.000 C 
ATOM      4  C   UNL     1     109.988 129.336 135.937  0.00  0.00    +0.000 C 
ATOM      5  C   UNL     1     110.921 128.989 135.890  0.00  0.00    +0.000 C 
ATOM      6  O   UNL     1     111.328 128.529 136.690  0.00  0.00    +0.000 OA
ATOM      7  O   UNL     1     109.586 129.792 135.145  0.00  0.00    +0.000 OA
ATOM      8  O   UNL     1     108.517 129.578 136.823  0.00  0.00    +0.000 OA
ENDROOT
BRANCH   5   9
ATOM      9  C   UNL     1     111.461 129.095 135.049  0.00  0.00    +0.000 C 
ATOM     10  O   UNL     1     112.388 128.737 134.999  0.00  0.00    +0.000 OA
ENDBRANCH   5   9
BRANCH   1  11
ATOM     11  O   UNL     1     111.199 127.966 138.318  0.00  0.00    +0.000 OA
BRANCH  11  13
ATOM     12  C   UNL     1     112.862 127.583 138.586  0.00  0.00    +0.000 A 
ATOM     13  C   UNL     1     111.973 127.350 138.198  0.00  0.00    +0.000 A 
ATOM     14  C   UNL     1     111.862 126.491 137.687  0.00  0.00    +0.000 A 
ATOM     15  O   UNL     1     110.974 126.258 137.299  0.00  0.00    +0.000 OA
ATOM     16  C   UNL     1     112.636 125.876 137.568  0.00  0.00    +0.000 A 
ATOM     17  C   UNL     1     112.521 125.026 137.061  0.00  0.00    +0.000 A 
ATOM     18  C   UNL     1     113.299 124.401 136.938  0.00  0.00    +0.000 A 
ATOM     19  C   UNL     1     114.187 124.635 137.326  0.00  0.00    +0.000 A 
ATOM     20  C   UNL     1     114.298 125.493 137.837  0.00  0.00    +0.000 A 
ATOM     21  C   UNL     1     113.524 126.109 137.956  0.00  0.00    +0.000 A 
ATOM     22  O   UNL     1     113.640 126.958 138.464  0.00  0.00    +0.000 OA
ATOM     23  O   UNL     1     114.961 124.019 137.207  0.00  0.00    +0.000 OA
ATOM     24  O   UNL     1     111.633 124.793 136.673  0.00  0.00    +0.000 OA
BRANCH  12  30
ATOM     25  C   UNL     1     113.359 129.246 138.637  0.00  0.00    +0.000 A 
ATOM     26  C   UNL     1     113.474 130.096 139.144  0.00  0.00    +0.000 A 
ATOM     27  C   UNL     1     113.209 130.147 140.113  0.00  0.00    +0.000 A 
ATOM     28  C   UNL     1     112.826 129.334 140.570  0.00  0.00    +0.000 A 
ATOM     29  C   UNL     1     112.712 128.479 140.053  0.00  0.00    +0.000 A 
ATOM     30  C   UNL     1     112.976 128.434 139.094  0.00  0.00    +0.000 A 
ATOM     31  O   UNL     1     113.324 130.996 140.619  0.00  0.00    +0.000 OA
ENDBRANCH  12  30
ENDBRANCH  11  13
ENDBRANCH   1  11
BRANCH   2  32
ATOM     32  O   UNL     1     109.325 128.663 138.414  0.00  0.00    +0.000 OA
BRANCH  32  33
ATOM     33  C   UNL     1     109.367 129.357 139.126  0.00  0.00    +0.000 C 
ATOM     34  C   UNL     1     109.062 129.140 140.049  0.00  0.00    +0.000 C 
ATOM     35  C   UNL     1     109.102 129.838 140.772  0.00  0.00    +0.000 C 
ATOM     36  C   UNL     1     109.452 130.759 140.559  0.00  0.00    +0.000 C 
ATOM     37  C   UNL     1     109.758 130.972 139.626  0.00  0.00    +0.000 C 
ATOM     38  O   UNL     1     109.717 130.278 138.913  0.00  0.00    +0.000 OA
ATOM     39  O   UNL     1     109.494 131.453 141.273  0.00  0.00    +0.000 OA
ATOM     40  O   UNL     1     108.797 129.621 141.696  0.00  0.00    +0.000 OA
ATOM     41  O   UNL     1     108.716 128.229 140.260  0.00  0.00    +0.000 OA
BRANCH  37  42
ATOM     42  C   UNL     1     110.105 131.884 139.415  0.00  0.00    +0.000 C 
ATOM     43  O   UNL     1     110.623 132.039 138.580  0.00  0.00    +0.000 OA
ENDBRANCH  37  42
ENDBRANCH  32  33
ENDBRANCH   2  32
TORSDOF 7
ENDMDL
MODEL 5
REMARK VINA RESULT:      -9.0      1.869      5.591
REMARK  Name = 
REMARK  7 active torsions:
REMARK  status: ('A' for Active; 'I' for Inactive)
REMARK    1  A    between atoms: C_6  and  C_7
REMARK    2  A    between atoms: C_8  and  O_20
REMARK    3  A    between atoms: O_20  and  C_21
REMARK    4  A    between atoms: C_22  and  O_31
REMARK    5  A    between atoms: C_25  and  C_27
REMARK    6  A    between atoms: O_31  and  C_32
REMARK    7  A    between atoms: C_36  and  C_38
REMARK                            x       y       z     vdW  Elec       q    Type
REMARK                         _______ _______ _______ _____ _____    ______ ____
ROOT
ATOM      1  C   UNL     1     112.405 128.730 137.689  0.00  0.00    +0.000 C 
ATOM      2  C   UNL     1     112.929 128.237 137.000  0.00  0.00    +0.000 C 
ATOM      3  C   UNL     1     113.480 128.744 136.325  0.00  0.00    +0.000 C 
ATOM      4  C   UNL     1     113.501 129.739 136.347  0.00  0.00    +0.000 C 
ATOM      5  C   UNL     1     112.978 130.234 137.036  0.00  0.00    +0.000 C 
ATOM      6  O   UNL     1     112.427 129.726 137.711  0.00  0.00    +0.000 OA
ATOM      7  O   UNL     1     114.047 130.242 135.679  0.00  0.00    +0.000 OA
ATOM      8  O   UNL     1     114.006 128.241 135.632  0.00  0.00    +0.000 OA
ENDROOT
BRANCH   5   9
ATOM      9  C   UNL     1     112.996 131.238 137.063  0.00  0.00    +0.000 C 
ATOM     10  O   UNL     1     112.303 131.740 137.571  0.00  0.00    +0.000 OA
ENDBRANCH   5   9
BRANCH   1  11
ATOM     11  O   UNL     1     111.861 128.228 138.356  0.00  0.00    +0.000 OA
BRANCH  11  13
ATOM     12  C   UNL     1     111.650 128.763 139.985  0.00  0.00    +0.000 A 
ATOM     13  C   UNL     1     111.331 128.722 139.041  0.00  0.00    +0.000 A 
ATOM     14  C   UNL     1     110.474 129.181 138.784  0.00  0.00    +0.000 A 
ATOM     15  O   UNL     1     110.155 129.141 137.840  0.00  0.00    +0.000 OA
ATOM     16  C   UNL     1     109.946 129.675 139.469  0.00  0.00    +0.000 A 
ATOM     17  C   UNL     1     109.098 130.128 139.209  0.00  0.00    +0.000 A 
ATOM     18  C   UNL     1     108.560 130.628 139.896  0.00  0.00    +0.000 A 
ATOM     19  C   UNL     1     108.879 130.668 140.840  0.00  0.00    +0.000 A 
ATOM     20  C   UNL     1     109.736 130.209 141.097  0.00  0.00    +0.000 A 
ATOM     21  C   UNL     1     110.265 129.715 140.412  0.00  0.00    +0.000 A 
ATOM     22  O   UNL     1     111.113 129.262 140.672  0.00  0.00    +0.000 OA
ATOM     23  O   UNL     1     108.350 131.162 141.525  0.00  0.00    +0.000 OA
ATOM     24  O   UNL     1     108.779 130.088 138.265  0.00  0.00    +0.000 OA
BRANCH  12  30
ATOM     25  C   UNL     1     112.522 127.307 140.356  0.00  0.00    +0.000 A 
ATOM     26  C   UNL     1     113.370 126.854 140.615  0.00  0.00    +0.000 A 
ATOM     27  C   UNL     1     114.206 127.392 140.767  0.00  0.00    +0.000 A 
ATOM     28  C   UNL     1     114.182 128.394 140.655  0.00  0.00    +0.000 A 
ATOM     29  C   UNL     1     113.324 128.847 140.393  0.00  0.00    +0.000 A 
ATOM     30  C   UNL     1     112.499 128.309 140.244  0.00  0.00    +0.000 A 
ATOM     31  O   UNL     1     115.053 126.938 141.026  0.00  0.00    +0.000 OA
ENDBRANCH  12  30
ENDBRANCH  11  13
ENDBRANCH   1  11
BRANCH   2  32
ATOM     32  O   UNL     1     112.910 127.232 136.974  0.00  0.00    +0.000 OA
BRANCH  32  33
ATOM     33  C   UNL     1     112.208 126.758 136.450  0.00  0.00    +0.000 C 
ATOM     34  C   UNL     1     112.079 125.777 136.568  0.00  0.00    +0.000 C 
ATOM     35  C   UNL     1     111.371 125.293 136.042  0.00  0.00    +0.000 C 
ATOM     36  C   UNL     1     110.793 125.805 135.394  0.00  0.00    +0.000 C 
ATOM     37  C   UNL     1     110.928 126.794 135.279  0.00  0.00    +0.000 C 
ATOM     38  O   UNL     1     111.630 127.269 135.802  0.00  0.00    +0.000 OA
ATOM     39  O   UNL     1     110.091 125.329 134.870  0.00  0.00    +0.000 OA
ATOM     40  O   UNL     1     111.242 124.312 136.160  0.00  0.00    +0.000 OA
ATOM     41  O   UNL     1     112.651 125.271 137.209  0.00  0.00    +0.000 OA
BRANCH  37  42
ATOM     42  C   UNL     1     110.355 127.300 134.637  0.00  0.00    +0.000 C 
ATOM     43  O   UNL     1     110.394 128.295 134.613  0.00  0.00    +0.000 OA
ENDBRANCH  37  42
ENDBRANCH  32  33
ENDBRANCH   2  32
TORSDOF 7
ENDMDL
MODEL 6
REMARK VINA RESULT:      -9.0      1.655      5.865
REMARK  Name = 
REMARK  7 active torsions:
REMARK  status: ('A' for Active; 'I' for Inactive)
REMARK    1  A    between atoms: C_6  and  C_7
REMARK    2  A    between atoms: C_8  and  O_20
REMARK    3  A    between atoms: O_20  and  C_21
REMARK    4  A    between atoms: C_22  and  O_31
REMARK    5  A    between atoms: C_25  and  C_27
REMARK    6  A    between atoms: O_31  and  C_32
REMARK    7  A    between atoms: C_36  and  C_38
REMARK                            x       y       z     vdW  Elec       q    Type
REMARK                         _______ _______ _______ _____ _____    ______ ____
ROOT
ATOM      1  C   UNL     1     111.969 128.424 138.833  0.00  0.00    +0.000 C 
ATOM      2  C   UNL     1     111.794 127.519 139.209  0.00  0.00    +0.000 C 
ATOM      3  C   UNL     1     112.142 127.276 140.123  0.00  0.00    +0.000 C 
ATOM      4  C   UNL     1     112.662 127.941 140.651  0.00  0.00    +0.000 C 
ATOM      5  C   UNL     1     112.837 128.848 140.276  0.00  0.00    +0.000 C 
ATOM      6  O   UNL     1     112.489 129.090 139.362  0.00  0.00    +0.000 OA
ATOM      7  O   UNL     1     113.006 127.701 141.556  0.00  0.00    +0.000 OA
ATOM      8  O   UNL     1     111.963 126.361 140.498  0.00  0.00    +0.000 OA
ENDROOT
BRANCH   5   9
ATOM      9  C   UNL     1     113.361 129.523 140.805  0.00  0.00    +0.000 C 
ATOM     10  O   UNL     1     113.427 130.465 140.490  0.00  0.00    +0.000 OA
ENDBRANCH   5   9
BRANCH   1  11
ATOM     11  O   UNL     1     111.624 128.664 137.929  0.00  0.00    +0.000 OA
BRANCH  11  13
ATOM     12  C   UNL     1     112.091 130.029 136.978  0.00  0.00    +0.000 A 
ATOM     13  C   UNL     1     111.508 129.622 137.677  0.00  0.00    +0.000 A 
ATOM     14  C   UNL     1     110.803 130.181 138.127  0.00  0.00    +0.000 A 
ATOM     15  O   UNL     1     110.220 129.774 138.826  0.00  0.00    +0.000 OA
ATOM     16  C   UNL     1     110.687 131.138 137.875  0.00  0.00    +0.000 A 
ATOM     17  C   UNL     1     109.988 131.687 138.323  0.00  0.00    +0.000 A 
ATOM     18  C   UNL     1     109.867 132.654 138.073  0.00  0.00    +0.000 A 
ATOM     19  C   UNL     1     110.449 133.060 137.373  0.00  0.00    +0.000 A 
ATOM     20  C   UNL     1     111.154 132.501 136.924  0.00  0.00    +0.000 A 
ATOM     21  C   UNL     1     111.270 131.545 137.176  0.00  0.00    +0.000 A 
ATOM     22  O   UNL     1     111.969 130.995 136.727  0.00  0.00    +0.000 OA
ATOM     23  O   UNL     1     110.333 134.017 137.122  0.00  0.00    +0.000 OA
ATOM     24  O   UNL     1     109.405 131.281 139.022  0.00  0.00    +0.000 OA
BRANCH  12  30
ATOM     25  C   UNL     1     113.758 129.580 136.793  0.00  0.00    +0.000 A 
ATOM     26  C   UNL     1     114.458 129.030 136.345  0.00  0.00    +0.000 A 
ATOM     27  C   UNL     1     114.202 128.372 135.629  0.00  0.00    +0.000 A 
ATOM     28  C   UNL     1     113.234 128.270 135.366  0.00  0.00    +0.000 A 
ATOM     29  C   UNL     1     112.532 128.828 135.821  0.00  0.00    +0.000 A 
ATOM     30  C   UNL     1     112.790 129.478 136.529  0.00  0.00    +0.000 A 
ATOM     31  O   UNL     1     114.902 127.823 135.182  0.00  0.00    +0.000 OA
ENDBRANCH  12  30
ENDBRANCH  11  13
ENDBRANCH   1  11
BRANCH   2  32
ATOM     32  O   UNL     1     111.270 126.844 138.679  0.00  0.00    +0.000 OA
BRANCH  32  33
ATOM     33  C   UNL     1     111.741 126.203 138.079  0.00  0.00    +0.000 C 
ATOM     34  C   UNL     1     111.229 125.705 137.385  0.00  0.00    +0.000 C 
ATOM     35  C   UNL     1     111.699 125.058 136.777  0.00  0.00    +0.000 C 
ATOM     36  C   UNL     1     112.693 124.914 136.872  0.00  0.00    +0.000 C 
ATOM     37  C   UNL     1     113.204 125.419 137.574  0.00  0.00    +0.000 C 
ATOM     38  O   UNL     1     112.734 126.060 138.174  0.00  0.00    +0.000 OA
ATOM     39  O   UNL     1     113.163 124.273 136.271  0.00  0.00    +0.000 OA
ATOM     40  O   UNL     1     111.187 124.559 136.082  0.00  0.00    +0.000 OA
ATOM     41  O   UNL     1     110.246 125.847 137.292  0.00  0.00    +0.000 OA
BRANCH  37  42
ATOM     42  C   UNL     1     114.188 125.277 137.667  0.00  0.00    +0.000 C 
ATOM     43  O   UNL     1     114.689 125.731 138.398  0.00  0.00    +0.000 OA
ENDBRANCH  37  42
ENDBRANCH  32  33
ENDBRANCH   2  32
TORSDOF 7
ENDMDL
MODEL 7
REMARK VINA RESULT:      -9.0      2.075      4.049
REMARK  Name = 
REMARK  7 active torsions:
REMARK  status: ('A' for Active; 'I' for Inactive)
REMARK    1  A    between atoms: C_6  and  C_7
REMARK    2  A    between atoms: C_8  and  O_20
REMARK    3  A    between atoms: O_20  and  C_21
REMARK    4  A    between atoms: C_22  and  O_31
REMARK    5  A    between atoms: C_25  and  C_27
REMARK    6  A    between atoms: O_31  and  C_32
REMARK    7  A    between atoms: C_36  and  C_38
REMARK                            x       y       z     vdW  Elec       q    Type
REMARK                         _______ _______ _______ _____ _____    ______ ____
ROOT
ATOM      1  C   UNL     1     110.483 128.578 137.924  0.00  0.00    +0.000 C 
ATOM      2  C   UNL     1     110.126 129.500 137.801  0.00  0.00    +0.000 C 
ATOM      3  C   UNL     1     109.368 129.666 137.158  0.00  0.00    +0.000 C 
ATOM      4  C   UNL     1     108.976 128.909 136.644  0.00  0.00    +0.000 C 
ATOM      5  C   UNL     1     109.332 127.987 136.766  0.00  0.00    +0.000 C 
ATOM      6  O   UNL     1     110.090 127.820 137.410  0.00  0.00    +0.000 OA
ATOM      7  O   UNL     1     108.225 129.074 136.007  0.00  0.00    +0.000 OA
ATOM      8  O   UNL     1     109.012 130.598 137.038  0.00  0.00    +0.000 OA
ENDROOT
BRANCH   5   9
ATOM      9  C   UNL     1     108.939 127.219 136.250  0.00  0.00    +0.000 C 
ATOM     10  O   UNL     1     109.340 126.310 136.319  0.00  0.00    +0.000 OA
ENDBRANCH   5   9
BRANCH   1  11
ATOM     11  O   UNL     1     111.233 128.414 138.561  0.00  0.00    +0.000 OA
BRANCH  11  13
ATOM     12  C   UNL     1     111.856 126.880 139.051  0.00  0.00    +0.000 A 
ATOM     13  C   UNL     1     111.852 127.647 138.414  0.00  0.00    +0.000 A 
ATOM     14  C   UNL     1     112.475 127.643 137.625  0.00  0.00    +0.000 A 
ATOM     15  O   UNL     1     112.471 128.410 136.988  0.00  0.00    +0.000 OA
ATOM     16  C   UNL     1     113.094 126.877 137.479  0.00  0.00    +0.000 A 
ATOM     17  C   UNL     1     113.709 126.878 136.696  0.00  0.00    +0.000 A 
ATOM     18  C   UNL     1     114.336 126.106 136.544  0.00  0.00    +0.000 A 
ATOM     19  C   UNL     1     114.340 125.339 137.181  0.00  0.00    +0.000 A 
ATOM     20  C   UNL     1     113.717 125.343 137.970  0.00  0.00    +0.000 A 
ATOM     21  C   UNL     1     113.098 126.110 138.116  0.00  0.00    +0.000 A 
ATOM     22  O   UNL     1     112.483 126.108 138.899  0.00  0.00    +0.000 OA
ATOM     23  O   UNL     1     114.959 124.573 137.035  0.00  0.00    +0.000 OA
ATOM     24  O   UNL     1     113.706 127.645 136.059  0.00  0.00    +0.000 OA
BRANCH  12  30
ATOM     25  C   UNL     1     111.471 127.413 140.658  0.00  0.00    +0.000 A 
ATOM     26  C   UNL     1     110.856 127.413 141.442  0.00  0.00    +0.000 A 
ATOM     27  C   UNL     1     110.003 126.880 141.415  0.00  0.00    +0.000 A 
ATOM     28  C   UNL     1     109.773 126.346 140.592  0.00  0.00    +0.000 A 
ATOM     29  C   UNL     1     110.397 126.350 139.804  0.00  0.00    +0.000 A 
ATOM     30  C   UNL     1     111.240 126.879 139.835  0.00  0.00    +0.000 A 
ATOM     31  O   UNL     1     109.388 126.879 142.198  0.00  0.00    +0.000 OA
ENDBRANCH  12  30
ENDBRANCH  11  13
ENDBRANCH   1  11
BRANCH   2  32
ATOM     32  O   UNL     1     110.520 130.268 138.318  0.00  0.00    +0.000 OA
BRANCH  32  33
ATOM     33  C   UNL     1     110.208 130.460 139.244  0.00  0.00    +0.000 C 
ATOM     34  C   UNL     1     110.803 130.948 139.876  0.00  0.00    +0.000 C 
ATOM     35  C   UNL     1     110.493 131.145 140.812  0.00  0.00    +0.000 C 
ATOM     36  C   UNL     1     109.577 130.847 141.109  0.00  0.00    +0.000 C 
ATOM     37  C   UNL     1     108.980 130.355 140.466  0.00  0.00    +0.000 C 
ATOM     38  O   UNL     1     109.291 130.162 139.540  0.00  0.00    +0.000 OA
ATOM     39  O   UNL     1     109.266 131.040 142.036  0.00  0.00    +0.000 OA
ATOM     40  O   UNL     1     111.088 131.633 141.446  0.00  0.00    +0.000 OA
ATOM     41  O   UNL     1     111.709 131.243 139.583  0.00  0.00    +0.000 OA
BRANCH  37  42
ATOM     42  C   UNL     1     108.073 130.060 140.760  0.00  0.00    +0.000 C 
ATOM     43  O   UNL     1     107.725 129.170 140.482  0.00  0.00    +0.000 OA
ENDBRANCH  37  42
ENDBRANCH  32  33
ENDBRANCH   2  32
TORSDOF 7
ENDMDL
MODEL 8
REMARK VINA RESULT:      -9.0      2.268      5.267
REMARK  Name = 
REMARK  7 active torsions:
REMARK  status: ('A' for Active; 'I' for Inactive)
REMARK    1  A    between atoms: C_6  and  C_7
REMARK    2  A    between atoms: C_8  and  O_20
REMARK    3  A    between atoms: O_20  and  C_21
REMARK    4  A    between atoms: C_22  and  O_31
REMARK    5  A    between atoms: C_25  and  C_27
REMARK    6  A    between atoms: O_31  and  C_32
REMARK    7  A    between atoms: C_36  and  C_38
REMARK                            x       y       z     vdW  Elec       q    Type
REMARK                         _______ _______ _______ _____ _____    ______ ____
ROOT
ATOM      1  C   UNL     1     111.693 129.964 138.799  0.00  0.00    +0.000 C 
ATOM      2  C   UNL     1     111.418 130.319 137.910  0.00  0.00    +0.000 C 
ATOM      3  C   UNL     1     112.091 130.783 137.321  0.00  0.00    +0.000 C 
ATOM      4  C   UNL     1     113.033 130.887 137.627  0.00  0.00    +0.000 C 
ATOM      5  C   UNL     1     113.309 130.532 138.516  0.00  0.00    +0.000 C 
ATOM      6  O   UNL     1     112.636 130.068 139.105  0.00  0.00    +0.000 OA
ATOM      7  O   UNL     1     113.699 131.347 137.044  0.00  0.00    +0.000 OA
ATOM      8  O   UNL     1     111.807 131.140 136.425  0.00  0.00    +0.000 OA
ENDROOT
BRANCH   5   9
ATOM      9  C   UNL     1     114.259 130.634 138.830  0.00  0.00    +0.000 C 
ATOM     10  O   UNL     1     114.451 130.913 139.766  0.00  0.00    +0.000 OA
ENDBRANCH   5   9
BRANCH   1  11
ATOM     11  O   UNL     1     111.027 129.504 139.381  0.00  0.00    +0.000 OA
BRANCH  11  13
ATOM     12  C   UNL     1     111.345 128.554 140.788  0.00  0.00    +0.000 A 
ATOM     13  C   UNL     1     111.183 129.442 140.364  0.00  0.00    +0.000 A 
ATOM     14  C   UNL     1     111.177 130.272 140.931  0.00  0.00    +0.000 A 
ATOM     15  O   UNL     1     111.014 131.160 140.507  0.00  0.00    +0.000 OA
ATOM     16  C   UNL     1     111.332 130.209 141.913  0.00  0.00    +0.000 A 
ATOM     17  C   UNL     1     111.325 131.034 142.470  0.00  0.00    +0.000 A 
ATOM     18  C   UNL     1     111.482 130.976 143.462  0.00  0.00    +0.000 A 
ATOM     19  C   UNL     1     111.644 130.089 143.886  0.00  0.00    +0.000 A 
ATOM     20  C   UNL     1     111.650 129.258 143.318  0.00  0.00    +0.000 A 
ATOM     21  C   UNL     1     111.495 129.321 142.337  0.00  0.00    +0.000 A 
ATOM     22  O   UNL     1     111.502 128.496 141.779  0.00  0.00    +0.000 OA
ATOM     23  O   UNL     1     111.800 130.026 144.867  0.00  0.00    +0.000 OA
ATOM     24  O   UNL     1     111.163 131.922 142.046  0.00  0.00    +0.000 OA
BRANCH  12  30
ATOM     25  C   UNL     1     112.227 127.299 139.975  0.00  0.00    +0.000 A 
ATOM     26  C   UNL     1     112.235 126.474 139.417  0.00  0.00    +0.000 A 
ATOM     27  C   UNL     1     111.370 126.066 139.106  0.00  0.00    +0.000 A 
ATOM     28  C   UNL     1     110.494 126.495 139.361  0.00  0.00    +0.000 A 
ATOM     29  C   UNL     1     110.492 127.328 139.924  0.00  0.00    +0.000 A 
ATOM     30  C   UNL     1     111.352 127.728 140.230  0.00  0.00    +0.000 A 
ATOM     31  O   UNL     1     111.377 125.241 138.548  0.00  0.00    +0.000 OA
ENDBRANCH  12  30
ENDBRANCH  11  13
ENDBRANCH   1  11
BRANCH   2  32
ATOM     32  O   UNL     1     110.468 130.217 137.597  0.00  0.00    +0.000 OA
BRANCH  32  33
ATOM     33  C   UNL     1     110.216 129.460 136.999  0.00  0.00    +0.000 C 
ATOM     34  C   UNL     1     109.266 129.338 136.727  0.00  0.00    +0.000 C 
ATOM     35  C   UNL     1     109.007 128.576 136.124  0.00  0.00    +0.000 C 
ATOM     36  C   UNL     1     109.713 127.936 135.795  0.00  0.00    +0.000 C 
ATOM     37  C   UNL     1     110.670 128.065 136.073  0.00  0.00    +0.000 C 
ATOM     38  O   UNL     1     110.922 128.820 136.670  0.00  0.00    +0.000 OA
ATOM     39  O   UNL     1     109.460 127.180 135.198  0.00  0.00    +0.000 OA
ATOM     40  O   UNL     1     108.056 128.453 135.852  0.00  0.00    +0.000 OA
ATOM     41  O   UNL     1     108.568 129.971 137.052  0.00  0.00    +0.000 OA
BRANCH  37  42
ATOM     42  C   UNL     1     111.369 127.431 135.748  0.00  0.00    +0.000 C 
ATOM     43  O   UNL     1     112.310 127.525 136.059  0.00  0.00    +0.000 OA
ENDBRANCH  37  42
ENDBRANCH  32  33
ENDBRANCH   2  32
TORSDOF 7
ENDMDL
MODEL 9
REMARK VINA RESULT:      -9.0      3.240      6.961
REMARK  Name = 
REMARK  7 active torsions:
REMARK  status: ('A' for Active; 'I' for Inactive)
REMARK    1  A    between atoms: C_6  and  C_7
REMARK    2  A    between atoms: C_8  and  O_20
REMARK    3  A    between atoms: O_20  and  C_21
REMARK    4  A    between atoms: C_22  and  O_31
REMARK    5  A    between atoms: C_25  and  C_27
REMARK    6  A    between atoms: O_31  and  C_32
REMARK    7  A    between atoms: C_36  and  C_38
REMARK                            x       y       z     vdW  Elec       q    Type
REMARK                         _______ _______ _______ _____ _____    ______ ____
ROOT
ATOM      1  C   UNL     1     110.596 130.672 140.705  0.00  0.00    +0.000 C 
ATOM      2  C   UNL     1     110.524 130.935 139.747  0.00  0.00    +0.000 C 
ATOM      3  C   UNL     1     109.620 131.120 139.341  0.00  0.00    +0.000 C 
ATOM      4  C   UNL     1     108.798 131.041 139.898  0.00  0.00    +0.000 C 
ATOM      5  C   UNL     1     108.870 130.778 140.856  0.00  0.00    +0.000 C 
ATOM      6  O   UNL     1     109.774 130.593 141.262  0.00  0.00    +0.000 OA
ATOM      7  O   UNL     1     107.903 131.224 139.496  0.00  0.00    +0.000 OA
ATOM      8  O   UNL     1     109.553 131.385 138.374  0.00  0.00    +0.000 OA
ENDROOT
BRANCH   5   9
ATOM      9  C   UNL     1     108.043 130.696 141.422  0.00  0.00    +0.000 C 
ATOM     10  O   UNL     1     108.043 131.028 142.361  0.00  0.00    +0.000 OA
ENDBRANCH   5   9
BRANCH   1  11
ATOM     11  O   UNL     1     111.490 130.489 141.106  0.00  0.00    +0.000 OA
BRANCH  11  13
ATOM     12  C   UNL     1     111.790 129.725 142.626  0.00  0.00    +0.000 A 
ATOM     13  C   UNL     1     111.616 130.550 142.093  0.00  0.00    +0.000 A 
ATOM     14  C   UNL     1     111.569 131.442 142.555  0.00  0.00    +0.000 A 
ATOM     15  O   UNL     1     111.395 132.266 142.023  0.00  0.00    +0.000 OA
ATOM     16  C   UNL     1     111.695 131.502 143.542  0.00  0.00    +0.000 A 
ATOM     17  C   UNL     1     111.647 132.387 143.995  0.00  0.00    +0.000 A 
ATOM     18  C   UNL     1     111.773 132.454 144.990  0.00  0.00    +0.000 A 
ATOM     19  C   UNL     1     111.946 131.629 145.523  0.00  0.00    +0.000 A 
ATOM     20  C   UNL     1     111.994 130.737 145.060  0.00  0.00    +0.000 A 
ATOM     21  C   UNL     1     111.868 130.677 144.074  0.00  0.00    +0.000 A 
ATOM     22  O   UNL     1     111.916 129.791 143.621  0.00  0.00    +0.000 OA
ATOM     23  O   UNL     1     112.072 131.689 146.509  0.00  0.00    +0.000 OA
ATOM     24  O   UNL     1     111.473 133.212 143.462  0.00  0.00    +0.000 OA
BRANCH  12  30
ATOM     25  C   UNL     1     111.048 128.213 142.202  0.00  0.00    +0.000 A 
ATOM     26  C   UNL     1     111.095 127.328 141.749  0.00  0.00    +0.000 A 
ATOM     27  C   UNL     1     111.930 127.054 141.259  0.00  0.00    +0.000 A 
ATOM     28  C   UNL     1     112.720 127.680 141.229  0.00  0.00    +0.000 A 
ATOM     29  C   UNL     1     112.667 128.573 141.689  0.00  0.00    +0.000 A 
ATOM     30  C   UNL     1     111.838 128.839 142.172  0.00  0.00    +0.000 A 
ATOM     31  O   UNL     1     111.978 126.169 140.806  0.00  0.00    +0.000 OA
ENDBRANCH  12  30
ENDBRANCH  11  13
ENDBRANCH   1  11
BRANCH   2  32
ATOM     32  O   UNL     1     111.351 131.017 139.181  0.00  0.00    +0.000 OA
BRANCH  32  33
ATOM     33  C   UNL     1     111.679 130.236 138.657  0.00  0.00    +0.000 C 
ATOM     34  C   UNL     1     112.587 130.257 138.250  0.00  0.00    +0.000 C 
ATOM     35  C   UNL     1     112.923 129.471 137.720  0.00  0.00    +0.000 C 
ATOM     36  C   UNL     1     112.336 128.660 137.603  0.00  0.00    +0.000 C 
ATOM     37  C   UNL     1     111.420 128.644 138.016  0.00  0.00    +0.000 C 
ATOM     38  O   UNL     1     111.092 129.424 138.540  0.00  0.00    +0.000 OA
ATOM     39  O   UNL     1     112.665 127.879 137.079  0.00  0.00    +0.000 OA
ATOM     40  O   UNL     1     113.832 129.492 137.312  0.00  0.00    +0.000 OA
ATOM     41  O   UNL     1     113.168 131.060 138.366  0.00  0.00    +0.000 OA
BRANCH  37  42
ATOM     42  C   UNL     1     110.839 127.841 137.900  0.00  0.00    +0.000 C 
ATOM     43  O   UNL     1     109.977 127.774 138.394  0.00  0.00    +0.000 OA
ENDBRANCH  37  42
ENDBRANCH  32  33
ENDBRANCH   2  32
TORSDOF 7
ENDMDL
MODEL 10
REMARK VINA RESULT:      -8.9      1.667      2.929
REMARK  Name = 
REMARK  7 active torsions:
REMARK  status: ('A' for Active; 'I' for Inactive)
REMARK    1  A    between atoms: C_6  and  C_7
REMARK    2  A    between atoms: C_8  and  O_20
REMARK    3  A    between atoms: O_20  and  C_21
REMARK    4  A    between atoms: C_22  and  O_31
REMARK    5  A    between atoms: C_25  and  C_27
REMARK    6  A    between atoms: O_31  and  C_32
REMARK    7  A    between atoms: C_36  and  C_38
REMARK                            x       y       z     vdW  Elec       q    Type
REMARK                         _______ _______ _______ _____ _____    ______ ____
ROOT
ATOM      1  C   UNL     1     112.530 128.796 138.542  0.00  0.00    +0.000 C 
ATOM      2  C   UNL     1     112.480 129.734 138.873  0.00  0.00    +0.000 C 
ATOM      3  C   UNL     1     112.949 129.994 139.727  0.00  0.00    +0.000 C 
ATOM      4  C   UNL     1     113.463 129.313 140.240  0.00  0.00    +0.000 C 
ATOM      5  C   UNL     1     113.514 128.374 139.910  0.00  0.00    +0.000 C 
ATOM      6  O   UNL     1     113.044 128.114 139.056  0.00  0.00    +0.000 OA
ATOM      7  O   UNL     1     113.928 129.570 141.085  0.00  0.00    +0.000 OA
ATOM      8  O   UNL     1     112.896 130.942 140.056  0.00  0.00    +0.000 OA
ENDROOT
BRANCH   5   9
ATOM      9  C   UNL     1     114.031 127.683 140.424  0.00  0.00    +0.000 C 
ATOM     10  O   UNL     1     114.323 126.841 139.979  0.00  0.00    +0.000 OA
ENDBRANCH   5   9
BRANCH   1  11
ATOM     11  O   UNL     1     112.066 128.539 137.698  0.00  0.00    +0.000 OA
BRANCH  11  13
ATOM     12  C   UNL     1     112.679 127.439 136.517  0.00  0.00    +0.000 A 
ATOM     13  C   UNL     1     112.151 127.611 137.344  0.00  0.00    +0.000 A 
ATOM     14  C   UNL     1     111.705 126.845 137.820  0.00  0.00    +0.000 A 
ATOM     15  O   UNL     1     111.177 127.017 138.648  0.00  0.00    +0.000 OA
ATOM     16  C   UNL     1     111.791 125.918 137.466  0.00  0.00    +0.000 A 
ATOM     17  C   UNL     1     111.347 125.163 137.941  0.00  0.00    +0.000 A 
ATOM     18  C   UNL     1     111.431 124.225 137.588  0.00  0.00    +0.000 A 
ATOM     19  C   UNL     1     111.959 124.053 136.760  0.00  0.00    +0.000 A 
ATOM     20  C   UNL     1     112.405 124.819 136.285  0.00  0.00    +0.000 A 
ATOM     21  C   UNL     1     112.319 125.746 136.638  0.00  0.00    +0.000 A 
ATOM     22  O   UNL     1     112.763 126.501 136.164  0.00  0.00    +0.000 OA
ATOM     23  O   UNL     1     112.044 123.126 136.406  0.00  0.00    +0.000 OA
ATOM     24  O   UNL     1     110.819 125.335 138.769  0.00  0.00    +0.000 OA
BRANCH  12  30
ATOM     25  C   UNL     1     114.116 128.339 136.139  0.00  0.00    +0.000 A 
ATOM     26  C   UNL     1     114.560 129.094 135.664  0.00  0.00    +0.000 A 
ATOM     27  C   UNL     1     114.020 129.715 135.087  0.00  0.00    +0.000 A 
ATOM     28  C   UNL     1     113.027 129.572 134.990  0.00  0.00    +0.000 A 
ATOM     29  C   UNL     1     112.583 128.808 135.471  0.00  0.00    +0.000 A 
ATOM     30  C   UNL     1     113.123 128.195 136.042  0.00  0.00    +0.000 A 
ATOM     31  O   UNL     1     114.463 130.471 134.613  0.00  0.00    +0.000 OA
ENDBRANCH  12  30
ENDBRANCH  11  13
ENDBRANCH   1  11
BRANCH   2  32
ATOM     32  O   UNL     1     111.962 130.425 138.358  0.00  0.00    +0.000 OA
BRANCH  32  33
ATOM     33  C   UNL     1     111.024 130.641 138.613  0.00  0.00    +0.000 C 
ATOM     34  C   UNL     1     110.574 131.439 138.222  0.00  0.00    +0.000 C 
ATOM     35  C   UNL     1     109.627 131.661 138.476  0.00  0.00    +0.000 C 
ATOM     36  C   UNL     1     109.134 131.073 139.129  0.00  0.00    +0.000 C 
ATOM     37  C   UNL     1     109.593 130.269 139.521  0.00  0.00    +0.000 C 
ATOM     38  O   UNL     1     110.530 130.053 139.266  0.00  0.00    +0.000 OA
ATOM     39  O   UNL     1     108.195 131.290 139.383  0.00  0.00    +0.000 OA
ATOM     40  O   UNL     1     109.177 132.459 138.084  0.00  0.00    +0.000 OA
ATOM     41  O   UNL     1     111.063 132.020 137.576  0.00  0.00    +0.000 OA
BRANCH  37  42
ATOM     42  C   UNL     1     109.104 129.687 140.167  0.00  0.00    +0.000 C 
ATOM     43  O   UNL     1     109.604 129.027 140.720  0.00  0.00    +0.000 OA
ENDBRANCH  37  42
ENDBRANCH  32  33
ENDBRANCH   2  32
TORSDOF 7
ENDMDL
