MODEL 1
REMARK VINA RESULT:      -7.5      0.000      0.000
REMARK  Name = 44259521
REMARK  6 active torsions:
REMARK  status: ('A' for Active; 'I' for Inactive)
REMARK    1  A    between atoms: O_2  and  C_13
REMARK    2  A    between atoms: O_3  and  C_15
REMARK    3  A    between atoms: O_4  and  C_19
REMARK    4  A    between atoms: O_5  and  C_22
REMARK    5  A    between atoms: O_6  and  C_21
REMARK    6  A    between atoms: C_9  and  C_10
REMARK                            x       y       z     vdW  Elec       q    Type
REMARK                         _______ _______ _______ _____ _____    ______ ____
ROOT
ATOM      1  O   UNL     1     113.232 127.258 136.219  0.00  0.00    +0.000 OA
ATOM      2  O   UNL     1     113.000 129.789 137.594  0.00  0.00    +0.000 OA
ATOM      3  O   UNL     1     112.245 128.637 138.022  0.00  0.00    +0.000 OA
ATOM      4  C   UNL     1     112.688 126.924 136.742  0.00  0.00    +0.000 A 
ATOM      5  C   UNL     1     113.118 128.509 136.898  0.00  0.00    +0.000 A 
ATOM      6  C   UNL     1     113.447 128.050 136.297  0.00  0.00    +0.000 A 
ATOM      7  C   UNL     1     112.359 127.384 137.343  0.00  0.00    +0.000 A 
ATOM      8  C   UNL     1     112.574 128.177 137.421  0.00  0.00    +0.000 A 
ATOM      9  C   UNL     1     113.334 129.337 136.990  0.00  0.00    +0.000 A 
ATOM     10  C   UNL     1     114.015 128.386 135.746  0.00  0.00    +0.000 A 
ATOM     11  C   UNL     1     114.243 129.210 135.822  0.00  0.00    +0.000 A 
ATOM     12  C   UNL     1     113.900 129.689 136.448  0.00  0.00    +0.000 A 
ENDROOT
BRANCH   4  13
ATOM     13  C   UNL     1     112.472 126.132 136.665  0.00  0.00    +0.000 A 
ATOM     14  C   UNL     1     112.971 125.540 136.950  0.00  0.00    +0.000 A 
ATOM     15  C   UNL     1     111.759 125.931 136.302  0.00  0.00    +0.000 A 
ATOM     16  C   UNL     1     111.544 125.139 136.225  0.00  0.00    +0.000 A 
ATOM     17  C   UNL     1     112.756 124.746 136.872  0.00  0.00    +0.000 A 
ATOM     18  C   UNL     1     112.042 124.547 136.509  0.00  0.00    +0.000 A 
BRANCH  14  19
ATOM     19  O   UNL     1     113.684 125.739 137.312  0.00  0.00    +0.000 OA
ATOM     20  C   UNL     1     114.223 125.150 137.515  0.00  0.00    +0.000 C 
ENDBRANCH  14  19
BRANCH  16  21
ATOM     21  O   UNL     1     110.830 124.938 135.862  0.00  0.00    +0.000 OA
ATOM     22  C   UNL     1     110.517 125.420 135.271  0.00  0.00    +0.000 C 
ENDBRANCH  16  21
BRANCH  18  23
ATOM     23  O   UNL     1     111.827 123.753 136.432  0.00  0.00    +0.000 OA
ATOM     24  C   UNL     1     111.978 123.223 137.045  0.00  0.00    +0.000 C 
ENDBRANCH  18  23
ENDBRANCH   4  13
BRANCH   7  25
ATOM     25  O   UNL     1     111.815 127.051 137.867  0.00  0.00    +0.000 OA
ATOM     26  C   UNL     1     111.364 127.537 138.358  0.00  0.00    +0.000 C 
ENDBRANCH   7  25
BRANCH  11  27
ATOM     27  O   UNL     1     114.787 129.541 135.297  0.00  0.00    +0.000 OA
ATOM     28  C   UNL     1     114.523 129.917 134.612  0.00  0.00    +0.000 C 
ENDBRANCH  11  27
TORSDOF 6
ENDMDL
MODEL 2
REMARK VINA RESULT:      -7.4      0.803      1.649
REMARK  Name = 44259521
REMARK  6 active torsions:
REMARK  status: ('A' for Active; 'I' for Inactive)
REMARK    1  A    between atoms: O_2  and  C_13
REMARK    2  A    between atoms: O_3  and  C_15
REMARK    3  A    between atoms: O_4  and  C_19
REMARK    4  A    between atoms: O_5  and  C_22
REMARK    5  A    between atoms: O_6  and  C_21
REMARK    6  A    between atoms: C_9  and  C_10
REMARK                            x       y       z     vdW  Elec       q    Type
REMARK                         _______ _______ _______ _____ _____    ______ ____
ROOT
ATOM      1  O   UNL     1     113.496 127.540 136.097  0.00  0.00    +0.000 OA
ATOM      2  O   UNL     1     113.382 130.041 137.541  0.00  0.00    +0.000 OA
ATOM      3  O   UNL     1     112.963 128.805 138.157  0.00  0.00    +0.000 OA
ATOM      4  C   UNL     1     113.197 127.146 136.757  0.00  0.00    +0.000 A 
ATOM      5  C   UNL     1     113.440 128.777 136.810  0.00  0.00    +0.000 A 
ATOM      6  C   UNL     1     113.618 128.355 136.123  0.00  0.00    +0.000 A 
ATOM      7  C   UNL     1     113.019 127.567 137.444  0.00  0.00    +0.000 A 
ATOM      8  C   UNL     1     113.141 128.384 137.470  0.00  0.00    +0.000 A 
ATOM      9  C   UNL     1     113.563 129.627 136.850  0.00  0.00    +0.000 A 
ATOM     10  C   UNL     1     113.930 128.754 135.429  0.00  0.00    +0.000 A 
ATOM     11  C   UNL     1     114.059 129.603 135.450  0.00  0.00    +0.000 A 
ATOM     12  C   UNL     1     113.874 130.043 136.166  0.00  0.00    +0.000 A 
ENDROOT
BRANCH   4  13
ATOM     13  C   UNL     1     113.075 126.331 136.731  0.00  0.00    +0.000 A 
ATOM     14  C   UNL     1     112.395 126.027 136.376  0.00  0.00    +0.000 A 
ATOM     15  C   UNL     1     113.633 125.819 137.059  0.00  0.00    +0.000 A 
ATOM     16  C   UNL     1     113.511 125.004 137.033  0.00  0.00    +0.000 A 
ATOM     17  C   UNL     1     112.273 125.211 136.350  0.00  0.00    +0.000 A 
ATOM     18  C   UNL     1     112.831 124.700 136.679  0.00  0.00    +0.000 A 
BRANCH  14  19
ATOM     19  O   UNL     1     111.837 126.537 136.048  0.00  0.00    +0.000 OA
ATOM     20  C   UNL     1     111.203 126.234 135.617  0.00  0.00    +0.000 C 
ENDBRANCH  14  19
BRANCH  16  21
ATOM     21  O   UNL     1     114.068 124.492 137.362  0.00  0.00    +0.000 OA
ATOM     22  C   UNL     1     114.872 124.668 137.310  0.00  0.00    +0.000 C 
ENDBRANCH  16  21
BRANCH  18  23
ATOM     23  O   UNL     1     112.709 123.884 136.652  0.00  0.00    +0.000 OA
ATOM     24  C   UNL     1     111.960 123.574 136.802  0.00  0.00    +0.000 C 
ENDBRANCH  18  23
ENDBRANCH   4  13
BRANCH   7  25
ATOM     25  O   UNL     1     112.720 127.174 138.104  0.00  0.00    +0.000 OA
ATOM     26  C   UNL     1     112.775 127.520 138.851  0.00  0.00    +0.000 C 
ENDBRANCH   7  25
BRANCH  11  27
ATOM     27  O   UNL     1     114.359 129.995 134.789  0.00  0.00    +0.000 OA
ATOM     28  C   UNL     1     115.174 130.082 134.695  0.00  0.00    +0.000 C 
ENDBRANCH  11  27
TORSDOF 6
ENDMDL
MODEL 3
REMARK VINA RESULT:      -7.3      8.665     10.873
REMARK  Name = 44259521
REMARK  6 active torsions:
REMARK  status: ('A' for Active; 'I' for Inactive)
REMARK    1  A    between atoms: O_2  and  C_13
REMARK    2  A    between atoms: O_3  and  C_15
REMARK    3  A    between atoms: O_4  and  C_19
REMARK    4  A    between atoms: O_5  and  C_22
REMARK    5  A    between atoms: O_6  and  C_21
REMARK    6  A    between atoms: C_9  and  C_10
REMARK                            x       y       z     vdW  Elec       q    Type
REMARK                         _______ _______ _______ _____ _____    ______ ____
ROOT
ATOM      1  O   UNL     1     111.596 131.594 145.212  0.00  0.00    +0.000 OA
ATOM      2  O   UNL     1     112.124 132.081 142.413  0.00  0.00    +0.000 OA
ATOM      3  O   UNL     1     112.068 133.168 143.360  0.00  0.00    +0.000 OA
ATOM      4  C   UNL     1     111.649 132.404 145.363  0.00  0.00    +0.000 A 
ATOM      5  C   UNL     1     111.857 131.834 143.828  0.00  0.00    +0.000 A 
ATOM      6  C   UNL     1     111.700 131.309 144.445  0.00  0.00    +0.000 A 
ATOM      7  C   UNL     1     111.806 132.928 144.745  0.00  0.00    +0.000 A 
ATOM      8  C   UNL     1     111.910 132.643 143.978  0.00  0.00    +0.000 A 
ATOM      9  C   UNL     1     111.968 131.549 143.024  0.00  0.00    +0.000 A 
ATOM     10  C   UNL     1     111.642 130.464 144.302  0.00  0.00    +0.000 A 
ATOM     11  C   UNL     1     111.749 130.161 143.505  0.00  0.00    +0.000 A 
ATOM     12  C   UNL     1     111.913 130.708 142.862  0.00  0.00    +0.000 A 
ENDROOT
BRANCH   4  13
ATOM     13  C   UNL     1     111.545 132.689 146.129  0.00  0.00    +0.000 A 
ATOM     14  C   UNL     1     112.160 132.635 146.676  0.00  0.00    +0.000 A 
ATOM     15  C   UNL     1     110.825 133.028 146.350  0.00  0.00    +0.000 A 
ATOM     16  C   UNL     1     110.721 133.313 147.116  0.00  0.00    +0.000 A 
ATOM     17  C   UNL     1     112.056 132.921 147.444  0.00  0.00    +0.000 A 
ATOM     18  C   UNL     1     111.337 133.259 147.663  0.00  0.00    +0.000 A 
BRANCH  14  19
ATOM     19  O   UNL     1     112.879 132.297 146.457  0.00  0.00    +0.000 OA
ATOM     20  C   UNL     1     113.471 132.183 147.019  0.00  0.00    +0.000 C 
ENDBRANCH  14  19
BRANCH  16  21
ATOM     21  O   UNL     1     110.002 133.652 147.337  0.00  0.00    +0.000 OA
ATOM     22  C   UNL     1     109.297 133.371 147.016  0.00  0.00    +0.000 C 
ENDBRANCH  16  21
BRANCH  18  23
ATOM     23  O   UNL     1     111.233 133.545 148.431  0.00  0.00    +0.000 OA
ATOM     24  C   UNL     1     111.764 133.334 149.025  0.00  0.00    +0.000 C 
ENDBRANCH  18  23
ENDBRANCH   4  13
BRANCH   7  25
ATOM     25  O   UNL     1     111.859 133.738 144.895  0.00  0.00    +0.000 OA
ATOM     26  C   UNL     1     111.872 134.274 144.268  0.00  0.00    +0.000 C 
ENDBRANCH   7  25
BRANCH  11  27
ATOM     27  O   UNL     1     111.696 129.351 143.358  0.00  0.00    +0.000 OA
ATOM     28  C   UNL     1     110.994 129.031 143.065  0.00  0.00    +0.000 C 
ENDBRANCH  11  27
TORSDOF 6
ENDMDL
MODEL 4
REMARK VINA RESULT:      -7.3     11.905     14.112
REMARK  Name = 44259521
REMARK  6 active torsions:
REMARK  status: ('A' for Active; 'I' for Inactive)
REMARK    1  A    between atoms: O_2  and  C_13
REMARK    2  A    between atoms: O_3  and  C_15
REMARK    3  A    between atoms: O_4  and  C_19
REMARK    4  A    between atoms: O_5  and  C_22
REMARK    5  A    between atoms: O_6  and  C_21
REMARK    6  A    between atoms: C_9  and  C_10
REMARK                            x       y       z     vdW  Elec       q    Type
REMARK                         _______ _______ _______ _____ _____    ______ ____
ROOT
ATOM      1  O   UNL     1     104.070 125.249 147.532  0.00  0.00    +0.000 OA
ATOM      2  O   UNL     1     101.774 123.685 146.737  0.00  0.00    +0.000 OA
ATOM      3  O   UNL     1     103.093 123.378 146.240  0.00  0.00    +0.000 OA
ATOM      4  C   UNL     1     104.556 124.775 147.062  0.00  0.00    +0.000 A 
ATOM      5  C   UNL     1     102.934 124.477 147.140  0.00  0.00    +0.000 A 
ATOM      6  C   UNL     1     103.260 125.100 147.571  0.00  0.00    +0.000 A 
ATOM      7  C   UNL     1     104.230 124.151 146.632  0.00  0.00    +0.000 A 
ATOM      8  C   UNL     1     103.419 124.002 146.670  0.00  0.00    +0.000 A 
ATOM      9  C   UNL     1     102.091 124.311 147.172  0.00  0.00    +0.000 A 
ATOM     10  C   UNL     1     102.766 125.602 148.063  0.00  0.00    +0.000 A 
ATOM     11  C   UNL     1     101.921 125.452 148.107  0.00  0.00    +0.000 A 
ATOM     12  C   UNL     1     101.581 124.802 147.658  0.00  0.00    +0.000 A 
ENDROOT
BRANCH   4  13
ATOM     13  C   UNL     1     105.365 124.923 147.024  0.00  0.00    +0.000 A 
ATOM     14  C   UNL     1     105.851 124.730 147.662  0.00  0.00    +0.000 A 
ATOM     15  C   UNL     1     105.691 125.265 146.347  0.00  0.00    +0.000 A 
ATOM     16  C   UNL     1     106.501 125.414 146.308  0.00  0.00    +0.000 A 
ATOM     17  C   UNL     1     106.662 124.879 147.624  0.00  0.00    +0.000 A 
ATOM     18  C   UNL     1     106.987 125.221 146.946  0.00  0.00    +0.000 A 
BRANCH  14  19
ATOM     19  O   UNL     1     105.527 124.389 148.339  0.00  0.00    +0.000 OA
ATOM     20  C   UNL     1     105.994 124.276 149.009  0.00  0.00    +0.000 C 
ENDBRANCH  14  19
BRANCH  16  21
ATOM     21  O   UNL     1     106.827 125.755 145.631  0.00  0.00    +0.000 OA
ATOM     22  C   UNL     1     106.419 126.351 145.232  0.00  0.00    +0.000 C 
ENDBRANCH  16  21
BRANCH  18  23
ATOM     23  O   UNL     1     107.798 125.369 146.908  0.00  0.00    +0.000 OA
ATOM     24  C   UNL     1     108.272 125.244 147.570  0.00  0.00    +0.000 C 
ENDBRANCH  18  23
ENDBRANCH   4  13
BRANCH   7  25
ATOM     25  O   UNL     1     104.714 123.676 146.162  0.00  0.00    +0.000 OA
ATOM     26  C   UNL     1     104.383 123.210 145.567  0.00  0.00    +0.000 C 
ENDBRANCH   7  25
BRANCH  11  27
ATOM     27  O   UNL     1     101.439 125.928 148.578  0.00  0.00    +0.000 OA
ATOM     28  C   UNL     1     101.273 125.708 149.355  0.00  0.00    +0.000 C 
ENDBRANCH  11  27
TORSDOF 6
ENDMDL
MODEL 5
REMARK VINA RESULT:      -7.3      1.093      4.473
REMARK  Name = 44259521
REMARK  6 active torsions:
REMARK  status: ('A' for Active; 'I' for Inactive)
REMARK    1  A    between atoms: O_2  and  C_13
REMARK    2  A    between atoms: O_3  and  C_15
REMARK    3  A    between atoms: O_4  and  C_19
REMARK    4  A    between atoms: O_5  and  C_22
REMARK    5  A    between atoms: O_6  and  C_21
REMARK    6  A    between atoms: C_9  and  C_10
REMARK                            x       y       z     vdW  Elec       q    Type
REMARK                         _______ _______ _______ _____ _____    ______ ____
ROOT
ATOM      1  O   UNL     1     112.695 126.716 136.470  0.00  0.00    +0.000 OA
ATOM      2  O   UNL     1     110.344 125.480 135.333  0.00  0.00    +0.000 OA
ATOM      3  O   UNL     1     110.529 126.910 135.288  0.00  0.00    +0.000 OA
ATOM      4  C   UNL     1     112.413 127.459 136.245  0.00  0.00    +0.000 A 
ATOM      5  C   UNL     1     111.533 126.104 135.909  0.00  0.00    +0.000 A 
ATOM      6  C   UNL     1     112.255 126.040 136.303  0.00  0.00    +0.000 A 
ATOM      7  C   UNL     1     111.691 127.523 135.851  0.00  0.00    +0.000 A 
ATOM      8  C   UNL     1     111.251 126.845 135.682  0.00  0.00    +0.000 A 
ATOM      9  C   UNL     1     111.064 125.406 135.727  0.00  0.00    +0.000 A 
ATOM     10  C   UNL     1     112.559 125.272 136.543  0.00  0.00    +0.000 A 
ATOM     11  C   UNL     1     112.105 124.564 136.371  0.00  0.00    +0.000 A 
ATOM     12  C   UNL     1     111.353 124.631 135.960  0.00  0.00    +0.000 A 
ENDROOT
BRANCH   4  13
ATOM     13  C   UNL     1     112.853 128.135 136.412  0.00  0.00    +0.000 A 
ATOM     14  C   UNL     1     112.824 128.470 137.166  0.00  0.00    +0.000 A 
ATOM     15  C   UNL     1     113.322 128.479 135.827  0.00  0.00    +0.000 A 
ATOM     16  C   UNL     1     113.762 129.156 135.995  0.00  0.00    +0.000 A 
ATOM     17  C   UNL     1     113.264 129.148 137.335  0.00  0.00    +0.000 A 
ATOM     18  C   UNL     1     113.733 129.490 136.749  0.00  0.00    +0.000 A 
BRANCH  14  19
ATOM     19  O   UNL     1     112.355 128.127 137.752  0.00  0.00    +0.000 OA
ATOM     20  C   UNL     1     112.394 128.406 138.527  0.00  0.00    +0.000 C 
ENDBRANCH  14  19
BRANCH  16  21
ATOM     21  O   UNL     1     114.231 129.500 135.409  0.00  0.00    +0.000 OA
ATOM     22  C   UNL     1     114.653 129.024 134.886  0.00  0.00    +0.000 C 
ENDBRANCH  16  21
BRANCH  18  23
ATOM     23  O   UNL     1     114.173 130.168 136.917  0.00  0.00    +0.000 OA
ATOM     24  C   UNL     1     113.862 130.749 137.413  0.00  0.00    +0.000 C 
ENDBRANCH  18  23
ENDBRANCH   4  13
BRANCH   7  25
ATOM     25  O   UNL     1     111.409 128.264 135.624  0.00  0.00    +0.000 OA
ATOM     26  C   UNL     1     110.856 128.327 135.015  0.00  0.00    +0.000 C 
ENDBRANCH   7  25
BRANCH  11  27
ATOM     27  O   UNL     1     112.390 123.823 136.598  0.00  0.00    +0.000 OA
ATOM     28  C   UNL     1     112.001 123.395 137.186  0.00  0.00    +0.000 C 
ENDBRANCH  11  27
TORSDOF 6
ENDMDL
MODEL 6
REMARK VINA RESULT:      -7.1      1.448      4.275
REMARK  Name = 44259521
REMARK  6 active torsions:
REMARK  status: ('A' for Active; 'I' for Inactive)
REMARK    1  A    between atoms: O_2  and  C_13
REMARK    2  A    between atoms: O_3  and  C_15
REMARK    3  A    between atoms: O_4  and  C_19
REMARK    4  A    between atoms: O_5  and  C_22
REMARK    5  A    between atoms: O_6  and  C_21
REMARK    6  A    between atoms: C_9  and  C_10
REMARK                            x       y       z     vdW  Elec       q    Type
REMARK                         _______ _______ _______ _____ _____    ______ ____
ROOT
ATOM      1  O   UNL     1     112.490 126.549 136.748  0.00  0.00    +0.000 OA
ATOM      2  O   UNL     1     111.686 123.849 136.108  0.00  0.00    +0.000 OA
ATOM      3  O   UNL     1     110.854 124.975 135.763  0.00  0.00    +0.000 OA
ATOM      4  C   UNL     1     111.796 126.837 136.407  0.00  0.00    +0.000 A 
ATOM      5  C   UNL     1     112.094 125.214 136.432  0.00  0.00    +0.000 A 
ATOM      6  C   UNL     1     112.640 125.739 136.761  0.00  0.00    +0.000 A 
ATOM      7  C   UNL     1     111.251 126.312 136.079  0.00  0.00    +0.000 A 
ATOM      8  C   UNL     1     111.400 125.500 136.091  0.00  0.00    +0.000 A 
ATOM      9  C   UNL     1     112.238 124.366 136.439  0.00  0.00    +0.000 A 
ATOM     10  C   UNL     1     113.367 125.452 137.119  0.00  0.00    +0.000 A 
ATOM     11  C   UNL     1     113.527 124.609 137.135  0.00  0.00    +0.000 A 
ATOM     12  C   UNL     1     112.959 124.062 136.793  0.00  0.00    +0.000 A 
ENDROOT
BRANCH   4  13
ATOM     13  C   UNL     1     111.647 127.647 136.395  0.00  0.00    +0.000 A 
ATOM     14  C   UNL     1     111.326 128.018 137.058  0.00  0.00    +0.000 A 
ATOM     15  C   UNL     1     111.818 128.089 135.719  0.00  0.00    +0.000 A 
ATOM     16  C   UNL     1     111.669 128.899 135.706  0.00  0.00    +0.000 A 
ATOM     17  C   UNL     1     111.176 128.830 137.046  0.00  0.00    +0.000 A 
ATOM     18  C   UNL     1     111.348 129.270 136.370  0.00  0.00    +0.000 A 
BRANCH  14  19
ATOM     19  O   UNL     1     111.154 127.578 137.734  0.00  0.00    +0.000 OA
ATOM     20  C   UNL     1     110.936 127.960 138.431  0.00  0.00    +0.000 C 
ENDBRANCH  14  19
BRANCH  16  21
ATOM     21  O   UNL     1     111.841 129.341 135.030  0.00  0.00    +0.000 OA
ATOM     22  C   UNL     1     112.537 129.202 134.612  0.00  0.00    +0.000 C 
ENDBRANCH  16  21
BRANCH  18  23
ATOM     23  O   UNL     1     111.199 130.082 136.357  0.00  0.00    +0.000 OA
ATOM     24  C   UNL     1     110.521 130.382 136.717  0.00  0.00    +0.000 C 
ENDBRANCH  18  23
ENDBRANCH   4  13
BRANCH   7  25
ATOM     25  O   UNL     1     110.556 126.598 135.738  0.00  0.00    +0.000 OA
ATOM     26  C   UNL     1     110.157 126.147 135.174  0.00  0.00    +0.000 C 
ENDBRANCH   7  25
BRANCH  11  27
ATOM     27  O   UNL     1     114.223 124.325 137.477  0.00  0.00    +0.000 OA
ATOM     28  C   UNL     1     114.953 124.623 137.235  0.00  0.00    +0.000 C 
ENDBRANCH  11  27
TORSDOF 6
ENDMDL
MODEL 7
REMARK VINA RESULT:      -7.1      0.929      4.465
REMARK  Name = 44259521
REMARK  6 active torsions:
REMARK  status: ('A' for Active; 'I' for Inactive)
REMARK    1  A    between atoms: O_2  and  C_13
REMARK    2  A    between atoms: O_3  and  C_15
REMARK    3  A    between atoms: O_4  and  C_19
REMARK    4  A    between atoms: O_5  and  C_22
REMARK    5  A    between atoms: O_6  and  C_21
REMARK    6  A    between atoms: C_9  and  C_10
REMARK                            x       y       z     vdW  Elec       q    Type
REMARK                         _______ _______ _______ _____ _____    ______ ____
ROOT
ATOM      1  O   UNL     1     111.895 127.342 135.872  0.00  0.00    +0.000 OA
ATOM      2  O   UNL     1     111.830 124.484 136.291  0.00  0.00    +0.000 OA
ATOM      3  O   UNL     1     112.894 125.292 136.834  0.00  0.00    +0.000 OA
ATOM      4  C   UNL     1     112.595 127.389 136.308  0.00  0.00    +0.000 A 
ATOM      5  C   UNL     1     111.862 125.929 136.079  0.00  0.00    +0.000 A 
ATOM      6  C   UNL     1     111.529 126.612 135.758  0.00  0.00    +0.000 A 
ATOM      7  C   UNL     1     112.928 126.706 136.628  0.00  0.00    +0.000 A 
ATOM      8  C   UNL     1     112.561 125.975 136.514  0.00  0.00    +0.000 A 
ATOM      9  C   UNL     1     111.490 125.161 135.966  0.00  0.00    +0.000 A 
ATOM     10  C   UNL     1     110.801 126.576 135.303  0.00  0.00    +0.000 A 
ATOM     11  C   UNL     1     110.414 125.819 135.180  0.00  0.00    +0.000 A 
ATOM     12  C   UNL     1     110.761 125.107 135.514  0.00  0.00    +0.000 A 
ENDROOT
BRANCH   4  13
ATOM     13  C   UNL     1     112.961 128.119 136.422  0.00  0.00    +0.000 A 
ATOM     14  C   UNL     1     112.683 128.633 137.004  0.00  0.00    +0.000 A 
ATOM     15  C   UNL     1     113.606 128.335 135.955  0.00  0.00    +0.000 A 
ATOM     16  C   UNL     1     113.972 129.065 136.070  0.00  0.00    +0.000 A 
ATOM     17  C   UNL     1     113.050 129.364 137.119  0.00  0.00    +0.000 A 
ATOM     18  C   UNL     1     113.694 129.579 136.652  0.00  0.00    +0.000 A 
BRANCH  14  19
ATOM     19  O   UNL     1     112.038 128.418 137.472  0.00  0.00    +0.000 OA
ATOM     20  C   UNL     1     111.712 128.960 137.999  0.00  0.00    +0.000 C 
ENDBRANCH  14  19
BRANCH  16  21
ATOM     21  O   UNL     1     114.617 129.281 135.603  0.00  0.00    +0.000 OA
ATOM     22  C   UNL     1     114.627 129.094 134.800  0.00  0.00    +0.000 C 
ENDBRANCH  16  21
BRANCH  18  23
ATOM     23  O   UNL     1     114.061 130.310 136.767  0.00  0.00    +0.000 OA
ATOM     24  C   UNL     1     114.106 130.634 137.523  0.00  0.00    +0.000 C 
ENDBRANCH  18  23
ENDBRANCH   4  13
BRANCH   7  25
ATOM     25  O   UNL     1     113.627 126.752 137.063  0.00  0.00    +0.000 OA
ATOM     26  C   UNL     1     114.064 126.070 137.216  0.00  0.00    +0.000 C 
ENDBRANCH   7  25
BRANCH  11  27
ATOM     27  O   UNL     1     109.715 125.775 134.744  0.00  0.00    +0.000 OA
ATOM     28  C   UNL     1     109.049 126.194 134.991  0.00  0.00    +0.000 C 
ENDBRANCH  11  27
TORSDOF 6
ENDMDL
MODEL 8
REMARK VINA RESULT:      -7.1      2.138      3.509
REMARK  Name = 44259521
REMARK  6 active torsions:
REMARK  status: ('A' for Active; 'I' for Inactive)
REMARK    1  A    between atoms: O_2  and  C_13
REMARK    2  A    between atoms: O_3  and  C_15
REMARK    3  A    between atoms: O_4  and  C_19
REMARK    4  A    between atoms: O_5  and  C_22
REMARK    5  A    between atoms: O_6  and  C_21
REMARK    6  A    between atoms: C_9  and  C_10
REMARK                            x       y       z     vdW  Elec       q    Type
REMARK                         _______ _______ _______ _____ _____    ______ ____
ROOT
ATOM      1  O   UNL     1     112.534 126.398 138.757  0.00  0.00    +0.000 OA
ATOM      2  O   UNL     1     111.708 126.745 141.504  0.00  0.00    +0.000 OA
ATOM      3  O   UNL     1     110.792 126.245 140.509  0.00  0.00    +0.000 OA
ATOM      4  C   UNL     1     111.779 126.123 138.565  0.00  0.00    +0.000 A 
ATOM      5  C   UNL     1     112.127 126.570 140.115  0.00  0.00    +0.000 A 
ATOM      6  C   UNL     1     112.707 126.621 139.531  0.00  0.00    +0.000 A 
ATOM      7  C   UNL     1     111.199 126.072 139.149  0.00  0.00    +0.000 A 
ATOM      8  C   UNL     1     111.373 126.296 139.925  0.00  0.00    +0.000 A 
ATOM      9  C   UNL     1     112.295 126.800 140.927  0.00  0.00    +0.000 A 
ATOM     10  C   UNL     1     113.497 126.906 139.718  0.00  0.00    +0.000 A 
ATOM     11  C   UNL     1     113.684 127.140 140.523  0.00  0.00    +0.000 A 
ATOM     12  C   UNL     1     113.079 127.086 141.132  0.00  0.00    +0.000 A 
ENDROOT
BRANCH   4  13
ATOM     13  C   UNL     1     111.606 125.900 137.791  0.00  0.00    +0.000 A 
ATOM     14  C   UNL     1     111.425 126.475 137.227  0.00  0.00    +0.000 A 
ATOM     15  C   UNL     1     111.612 125.103 137.579  0.00  0.00    +0.000 A 
ATOM     16  C   UNL     1     111.438 124.880 136.805  0.00  0.00    +0.000 A 
ATOM     17  C   UNL     1     111.251 126.252 136.451  0.00  0.00    +0.000 A 
ATOM     18  C   UNL     1     111.258 125.454 136.241  0.00  0.00    +0.000 A 
BRANCH  14  19
ATOM     19  O   UNL     1     111.419 127.272 137.437  0.00  0.00    +0.000 OA
ATOM     20  C   UNL     1     111.344 127.852 136.856  0.00  0.00    +0.000 C 
ENDBRANCH  14  19
BRANCH  16  21
ATOM     21  O   UNL     1     111.444 124.082 136.594  0.00  0.00    +0.000 OA
ATOM     22  C   UNL     1     112.003 123.572 136.921  0.00  0.00    +0.000 C 
ENDBRANCH  16  21
BRANCH  18  23
ATOM     23  O   UNL     1     111.083 125.231 135.465  0.00  0.00    +0.000 OA
ATOM     24  C   UNL     1     110.471 125.602 135.057  0.00  0.00    +0.000 C 
ENDBRANCH  18  23
ENDBRANCH   4  13
BRANCH   7  25
ATOM     25  O   UNL     1     110.445 125.798 138.959  0.00  0.00    +0.000 OA
ATOM     26  C   UNL     1     109.856 125.774 139.536  0.00  0.00    +0.000 C 
ENDBRANCH   7  25
BRANCH  11  27
ATOM     27  O   UNL     1     114.439 127.414 140.711  0.00  0.00    +0.000 OA
ATOM     28  C   UNL     1     114.594 128.224 140.718  0.00  0.00    +0.000 C 
ENDBRANCH  11  27
TORSDOF 6
ENDMDL
MODEL 9
REMARK VINA RESULT:      -7.0      1.037      4.354
REMARK  Name = 44259521
REMARK  6 active torsions:
REMARK  status: ('A' for Active; 'I' for Inactive)
REMARK    1  A    between atoms: O_2  and  C_13
REMARK    2  A    between atoms: O_3  and  C_15
REMARK    3  A    between atoms: O_4  and  C_19
REMARK    4  A    between atoms: O_5  and  C_22
REMARK    5  A    between atoms: O_6  and  C_21
REMARK    6  A    between atoms: C_9  and  C_10
REMARK                            x       y       z     vdW  Elec       q    Type
REMARK                         _______ _______ _______ _____ _____    ______ ____
ROOT
ATOM      1  O   UNL     1     111.879 127.247 136.484  0.00  0.00    +0.000 OA
ATOM      2  O   UNL     1     112.038 124.389 136.881  0.00  0.00    +0.000 OA
ATOM      3  O   UNL     1     112.806 125.298 137.697  0.00  0.00    +0.000 OA
ATOM      4  C   UNL     1     112.420 127.362 137.097  0.00  0.00    +0.000 A 
ATOM      5  C   UNL     1     111.957 125.834 136.679  0.00  0.00    +0.000 A 
ATOM      6  C   UNL     1     111.648 126.484 136.275  0.00  0.00    +0.000 A 
ATOM      7  C   UNL     1     112.728 126.712 137.501  0.00  0.00    +0.000 A 
ATOM      8  C   UNL     1     112.497 125.948 137.292  0.00  0.00    +0.000 A 
ATOM      9  C   UNL     1     111.724 125.033 136.471  0.00  0.00    +0.000 A 
ATOM     10  C   UNL     1     111.085 126.377 135.635  0.00  0.00    +0.000 A 
ATOM     11  C   UNL     1     110.840 125.584 135.413  0.00  0.00    +0.000 A 
ATOM     12  C   UNL     1     111.162 124.907 135.834  0.00  0.00    +0.000 A 
ENDROOT
BRANCH   4  13
ATOM     13  C   UNL     1     112.651 128.125 137.306  0.00  0.00    +0.000 A 
ATOM     14  C   UNL     1     113.220 128.521 136.859  0.00  0.00    +0.000 A 
ATOM     15  C   UNL     1     112.313 128.494 137.963  0.00  0.00    +0.000 A 
ATOM     16  C   UNL     1     112.545 129.257 138.172  0.00  0.00    +0.000 A 
ATOM     17  C   UNL     1     113.452 129.285 137.068  0.00  0.00    +0.000 A 
ATOM     18  C   UNL     1     113.114 129.653 137.724  0.00  0.00    +0.000 A 
BRANCH  14  19
ATOM     19  O   UNL     1     113.558 128.153 136.202  0.00  0.00    +0.000 OA
ATOM     20  C   UNL     1     114.050 128.580 135.698  0.00  0.00    +0.000 C 
ENDBRANCH  14  19
BRANCH  16  21
ATOM     21  O   UNL     1     112.207 129.626 138.828  0.00  0.00    +0.000 OA
ATOM     22  C   UNL     1     111.412 129.505 139.007  0.00  0.00    +0.000 C 
ENDBRANCH  16  21
BRANCH  18  23
ATOM     23  O   UNL     1     113.346 130.417 137.933  0.00  0.00    +0.000 OA
ATOM     24  C   UNL     1     114.133 130.645 137.854  0.00  0.00    +0.000 C 
ENDBRANCH  18  23
ENDBRANCH   4  13
BRANCH   7  25
ATOM     25  O   UNL     1     113.268 126.826 138.114  0.00  0.00    +0.000 OA
ATOM     26  C   UNL     1     113.397 126.228 138.668  0.00  0.00    +0.000 C 
ENDBRANCH   7  25
BRANCH  11  27
ATOM     27  O   UNL     1     110.300 125.473 134.799  0.00  0.00    +0.000 OA
ATOM     28  C   UNL     1     109.554 125.824 134.838  0.00  0.00    +0.000 C 
ENDBRANCH  11  27
TORSDOF 6
ENDMDL
MODEL 10
REMARK VINA RESULT:      -6.8     11.328     13.127
REMARK  Name = 44259521
REMARK  6 active torsions:
REMARK  status: ('A' for Active; 'I' for Inactive)
REMARK    1  A    between atoms: O_2  and  C_13
REMARK    2  A    between atoms: O_3  and  C_15
REMARK    3  A    between atoms: O_4  and  C_19
REMARK    4  A    between atoms: O_5  and  C_22
REMARK    5  A    between atoms: O_6  and  C_21
REMARK    6  A    between atoms: C_9  and  C_10
REMARK                            x       y       z     vdW  Elec       q    Type
REMARK                         _______ _______ _______ _____ _____    ______ ____
ROOT
ATOM      1  O   UNL     1     104.485 125.256 145.819  0.00  0.00    +0.000 OA
ATOM      2  O   UNL     1     107.285 125.758 146.322  0.00  0.00    +0.000 OA
ATOM      3  O   UNL     1     106.497 124.961 147.230  0.00  0.00    +0.000 OA
ATOM      4  C   UNL     1     104.440 124.810 146.512  0.00  0.00    +0.000 A 
ATOM      5  C   UNL     1     105.869 125.505 146.066  0.00  0.00    +0.000 A 
ATOM      6  C   UNL     1     105.199 125.603 145.596  0.00  0.00    +0.000 A 
ATOM      7  C   UNL     1     105.111 124.712 146.982  0.00  0.00    +0.000 A 
ATOM      8  C   UNL     1     105.826 125.059 146.759  0.00  0.00    +0.000 A 
ATOM      9  C   UNL     1     106.620 125.861 145.846  0.00  0.00    +0.000 A 
ATOM     10  C   UNL     1     105.232 126.065 144.872  0.00  0.00    +0.000 A 
ATOM     11  C   UNL     1     105.973 126.429 144.635  0.00  0.00    +0.000 A 
ATOM     12  C   UNL     1     106.672 126.326 145.125  0.00  0.00    +0.000 A 
ENDROOT
BRANCH   4  13
ATOM     13  C   UNL     1     103.726 124.463 146.734  0.00  0.00    +0.000 A 
ATOM     14  C   UNL     1     103.479 123.762 146.376  0.00  0.00    +0.000 A 
ATOM     15  C   UNL     1     103.259 124.815 147.316  0.00  0.00    +0.000 A 
ATOM     16  C   UNL     1     102.545 124.468 147.538  0.00  0.00    +0.000 A 
ATOM     17  C   UNL     1     102.764 123.414 146.598  0.00  0.00    +0.000 A 
ATOM     18  C   UNL     1     102.298 123.768 147.180  0.00  0.00    +0.000 A 
BRANCH  14  19
ATOM     19  O   UNL     1     103.945 123.409 145.794  0.00  0.00    +0.000 OA
ATOM     20  C   UNL     1     103.671 122.744 145.393  0.00  0.00    +0.000 C 
ENDBRANCH  14  19
BRANCH  16  21
ATOM     21  O   UNL     1     102.078 124.821 148.120  0.00  0.00    +0.000 OA
ATOM     22  C   UNL     1     102.055 125.642 148.190  0.00  0.00    +0.000 C 
ENDBRANCH  16  21
BRANCH  18  23
ATOM     23  O   UNL     1     101.583 123.420 147.402  0.00  0.00    +0.000 OA
ATOM     24  C   UNL     1     101.246 122.833 146.932  0.00  0.00    +0.000 C 
ENDBRANCH  18  23
ENDBRANCH   4  13
BRANCH   7  25
ATOM     25  O   UNL     1     105.068 124.267 147.675  0.00  0.00    +0.000 OA
ATOM     26  C   UNL     1     105.625 124.377 148.273  0.00  0.00    +0.000 C 
ENDBRANCH   7  25
BRANCH  11  27
ATOM     27  O   UNL     1     106.014 126.873 143.941  0.00  0.00    +0.000 OA
ATOM     28  C   UNL     1     106.194 126.505 143.225  0.00  0.00    +0.000 C 
ENDBRANCH  11  27
TORSDOF 6
ENDMDL
