MODEL 1
REMARK VINA RESULT:      -9.7      0.000      0.000
REMARK  Name = 131752847
REMARK  3 active torsions:
REMARK  status: ('A' for Active; 'I' for Inactive)
REMARK    1  A    between atoms: O_2  and  C_15
REMARK    2  A    between atoms: O_2  and  C_18
REMARK    3  A    between atoms: C_17  and  C_24
REMARK                            x       y       z     vdW  Elec       q    Type
REMARK                         _______ _______ _______ _____ _____    ______ ____
ROOT
ATOM      1  O   UNL     1     112.066 126.701 136.231  0.00  0.00    +0.000 OA
ATOM      2  O   UNL     1     111.912 124.524 136.220  0.00  0.00    +0.000 OA
ATOM      3  O   UNL     1     110.522 124.940 135.435  0.00  0.00    +0.000 OA
ATOM      4  C   UNL     1     112.247 125.906 136.359  0.00  0.00    +0.000 C 
ATOM      5  C   UNL     1     110.473 127.964 135.305  0.00  0.00    +0.000 A 
ATOM      6  C   UNL     1     111.732 125.320 136.093  0.00  0.00    +0.000 C 
ATOM      7  C   UNL     1     111.372 126.910 135.839  0.00  0.00    +0.000 A 
ATOM      8  C   UNL     1     110.857 126.323 135.574  0.00  0.00    +0.000 A 
ATOM      9  C   UNL     1     111.195 127.741 135.713  0.00  0.00    +0.000 A 
ATOM     10  C   UNL     1     111.037 125.528 135.701  0.00  0.00    +0.000 C 
ATOM     11  C   UNL     1     109.936 127.352 135.028  0.00  0.00    +0.000 A 
ATOM     12  C   UNL     1     110.129 126.526 135.163  0.00  0.00    +0.000 A 
ENDROOT
BRANCH   4  15
ATOM     13  O   UNL     1     115.027 125.245 136.287  0.00  0.00    +0.000 OA
ATOM     14  O   UNL     1     115.028 125.074 137.928  0.00  0.00    +0.000 OA
ATOM     15  C   UNL     1     112.942 125.698 136.751  0.00  0.00    +0.000 A 
ATOM     16  C   UNL     1     113.637 125.576 136.322  0.00  0.00    +0.000 A 
ATOM     17  C   UNL     1     112.943 125.613 137.572  0.00  0.00    +0.000 A 
ATOM     18  C   UNL     1     114.332 125.368 136.715  0.00  0.00    +0.000 A 
ATOM     19  C   UNL     1     113.638 125.405 137.963  0.00  0.00    +0.000 A 
ATOM     20  C   UNL     1     114.333 125.282 137.535  0.00  0.00    +0.000 A 
ENDBRANCH   4  15
BRANCH   5  21
ATOM     21  O   UNL     1     110.295 128.760 135.179  0.00  0.00    +0.000 OA
BRANCH  21  30
ATOM     22  O   UNL     1     109.938 129.100 136.521  0.00  0.00    +0.000 OA
ATOM     23  O   UNL     1     108.076 130.492 135.672  0.00  0.00    +0.000 OA
ATOM     24  O   UNL     1     108.339 130.367 137.296  0.00  0.00    +0.000 OA
ATOM     25  O   UNL     1     109.054 129.688 134.613  0.00  0.00    +0.000 OA
ATOM     26  C   UNL     1     108.697 130.028 135.955  0.00  0.00    +0.000 C 
ATOM     27  C   UNL     1     108.828 129.965 136.766  0.00  0.00    +0.000 C 
ATOM     28  C   UNL     1     109.186 129.626 135.426  0.00  0.00    +0.000 C 
ATOM     29  C   UNL     1     109.449 129.501 137.049  0.00  0.00    +0.000 C 
ATOM     30  C   UNL     1     109.806 129.162 135.709  0.00  0.00    +0.000 C 
ATOM     31  C   UNL     1     109.580 129.439 137.862  0.00  0.00    +0.000 C 
ENDBRANCH  21  30
ENDBRANCH   5  21
TORSDOF 3
ENDMDL
MODEL 2
REMARK VINA RESULT:      -9.6      2.117      2.892
REMARK  Name = 131752847
REMARK  3 active torsions:
REMARK  status: ('A' for Active; 'I' for Inactive)
REMARK    1  A    between atoms: O_2  and  C_15
REMARK    2  A    between atoms: O_2  and  C_18
REMARK    3  A    between atoms: C_17  and  C_24
REMARK                            x       y       z     vdW  Elec       q    Type
REMARK                         _______ _______ _______ _____ _____    ______ ____
ROOT
ATOM      1  O   UNL     1     111.793 126.679 136.028  0.00  0.00    +0.000 OA
ATOM      2  O   UNL     1     110.099 125.430 135.454  0.00  0.00    +0.000 OA
ATOM      3  O   UNL     1     109.764 126.812 134.618  0.00  0.00    +0.000 OA
ATOM      4  C   UNL     1     111.285 126.032 135.976  0.00  0.00    +0.000 C 
ATOM      5  C   UNL     1     111.997 128.760 135.240  0.00  0.00    +0.000 A 
ATOM      6  C   UNL     1     110.608 126.077 135.506  0.00  0.00    +0.000 C 
ATOM      7  C   UNL     1     111.627 127.370 135.610  0.00  0.00    +0.000 A 
ATOM      8  C   UNL     1     110.951 127.415 135.140  0.00  0.00    +0.000 A 
ATOM      9  C   UNL     1     112.165 128.037 135.672  0.00  0.00    +0.000 A 
ATOM     10  C   UNL     1     110.441 126.768 135.088  0.00  0.00    +0.000 C 
ATOM     11  C   UNL     1     111.292 128.806 134.750  0.00  0.00    +0.000 A 
ATOM     12  C   UNL     1     110.765 128.129 134.700  0.00  0.00    +0.000 A 
ENDROOT
BRANCH   4  15
ATOM     13  O   UNL     1     111.219 124.534 138.409  0.00  0.00    +0.000 OA
ATOM     14  O   UNL     1     111.952 123.267 137.649  0.00  0.00    +0.000 OA
ATOM     15  C   UNL     1     111.451 125.340 136.394  0.00  0.00    +0.000 A 
ATOM     16  C   UNL     1     111.251 125.283 137.193  0.00  0.00    +0.000 A 
ATOM     17  C   UNL     1     111.818 124.707 136.014  0.00  0.00    +0.000 A 
ATOM     18  C   UNL     1     111.418 124.592 137.611  0.00  0.00    +0.000 A 
ATOM     19  C   UNL     1     111.984 124.016 136.432  0.00  0.00    +0.000 A 
ATOM     20  C   UNL     1     111.785 123.958 137.231  0.00  0.00    +0.000 A 
ENDBRANCH   4  15
BRANCH   5  21
ATOM     21  O   UNL     1     112.508 129.406 135.294  0.00  0.00    +0.000 OA
BRANCH  21  30
ATOM     22  O   UNL     1     111.747 130.152 136.246  0.00  0.00    +0.000 OA
ATOM     23  O   UNL     1     113.841 130.893 137.338  0.00  0.00    +0.000 OA
ATOM     24  O   UNL     1     112.383 131.393 137.925  0.00  0.00    +0.000 OA
ATOM     25  O   UNL     1     113.904 129.899 136.022  0.00  0.00    +0.000 OA
ATOM     26  C   UNL     1     113.143 130.646 136.974  0.00  0.00    +0.000 C 
ATOM     27  C   UNL     1     112.414 130.896 137.267  0.00  0.00    +0.000 C 
ATOM     28  C   UNL     1     113.174 130.149 136.316  0.00  0.00    +0.000 C 
ATOM     29  C   UNL     1     111.716 130.649 136.903  0.00  0.00    +0.000 C 
ATOM     30  C   UNL     1     112.476 129.903 135.952  0.00  0.00    +0.000 C 
ATOM     31  C   UNL     1     110.987 130.899 137.197  0.00  0.00    +0.000 C 
ENDBRANCH  21  30
ENDBRANCH   5  21
TORSDOF 3
ENDMDL
MODEL 3
REMARK VINA RESULT:      -9.6      9.240     11.743
REMARK  Name = 131752847
REMARK  3 active torsions:
REMARK  status: ('A' for Active; 'I' for Inactive)
REMARK    1  A    between atoms: O_2  and  C_15
REMARK    2  A    between atoms: O_2  and  C_18
REMARK    3  A    between atoms: C_17  and  C_24
REMARK                            x       y       z     vdW  Elec       q    Type
REMARK                         _______ _______ _______ _____ _____    ______ ____
ROOT
ATOM      1  O   UNL     1     103.093 132.949 140.951  0.00  0.00    +0.000 OA
ATOM      2  O   UNL     1     102.123 134.741 141.732  0.00  0.00    +0.000 OA
ATOM      3  O   UNL     1     101.084 133.571 142.256  0.00  0.00    +0.000 OA
ATOM      4  C   UNL     1     102.943 133.742 141.124  0.00  0.00    +0.000 C 
ATOM      5  C   UNL     1     102.205 130.927 141.296  0.00  0.00    +0.000 A 
ATOM      6  C   UNL     1     102.273 133.949 141.559  0.00  0.00    +0.000 C 
ATOM      7  C   UNL     1     102.574 132.364 141.212  0.00  0.00    +0.000 A 
ATOM      8  C   UNL     1     101.905 132.571 141.648  0.00  0.00    +0.000 A 
ATOM      9  C   UNL     1     102.741 131.542 141.026  0.00  0.00    +0.000 A 
ATOM     10  C   UNL     1     101.754 133.363 141.821  0.00  0.00    +0.000 C 
ATOM     11  C   UNL     1     101.507 131.144 141.750  0.00  0.00    +0.000 A 
ATOM     12  C   UNL     1     101.356 131.971 141.927  0.00  0.00    +0.000 A 
ENDROOT
BRANCH   4  15
ATOM     13  O   UNL     1     105.248 135.376 141.550  0.00  0.00    +0.000 OA
ATOM     14  O   UNL     1     105.019 136.083 140.076  0.00  0.00    +0.000 OA
ATOM     15  C   UNL     1     103.462 134.327 140.862  0.00  0.00    +0.000 A 
ATOM     16  C   UNL     1     104.096 134.559 141.337  0.00  0.00    +0.000 A 
ATOM     17  C   UNL     1     103.347 134.680 140.125  0.00  0.00    +0.000 A 
ATOM     18  C   UNL     1     104.615 135.144 141.075  0.00  0.00    +0.000 A 
ATOM     19  C   UNL     1     103.866 135.265 139.864  0.00  0.00    +0.000 A 
ATOM     20  C   UNL     1     104.500 135.497 140.338  0.00  0.00    +0.000 A 
ENDBRANCH   4  15
BRANCH   5  21
ATOM     21  O   UNL     1     102.358 130.136 141.121  0.00  0.00    +0.000 OA
BRANCH  21  30
ATOM     22  O   UNL     1     103.164 129.918 142.281  0.00  0.00    +0.000 OA
ATOM     23  O   UNL     1     104.475 128.217 141.051  0.00  0.00    +0.000 OA
ATOM     24  O   UNL     1     104.844 128.567 142.621  0.00  0.00    +0.000 OA
ATOM     25  O   UNL     1     103.232 129.002 140.301  0.00  0.00    +0.000 OA
ATOM     26  C   UNL     1     104.038 128.784 141.461  0.00  0.00    +0.000 C 
ATOM     27  C   UNL     1     104.222 128.959 142.246  0.00  0.00    +0.000 C 
ATOM     28  C   UNL     1     103.416 129.177 141.087  0.00  0.00    +0.000 C 
ATOM     29  C   UNL     1     103.785 129.526 142.656  0.00  0.00    +0.000 C 
ATOM     30  C   UNL     1     102.979 129.744 141.497  0.00  0.00    +0.000 C 
ATOM     31  C   UNL     1     103.970 129.701 143.441  0.00  0.00    +0.000 C 
ENDBRANCH  21  30
ENDBRANCH   5  21
TORSDOF 3
ENDMDL
MODEL 4
REMARK VINA RESULT:      -9.6      7.117      8.661
REMARK  Name = 131752847
REMARK  3 active torsions:
REMARK  status: ('A' for Active; 'I' for Inactive)
REMARK    1  A    between atoms: O_2  and  C_15
REMARK    2  A    between atoms: O_2  and  C_18
REMARK    3  A    between atoms: C_17  and  C_24
REMARK                            x       y       z     vdW  Elec       q    Type
REMARK                         _______ _______ _______ _____ _____    ______ ____
ROOT
ATOM      1  O   UNL     1     104.986 124.463 139.530  0.00  0.00    +0.000 OA
ATOM      2  O   UNL     1     103.781 122.743 140.126  0.00  0.00    +0.000 OA
ATOM      3  O   UNL     1     104.694 122.969 141.481  0.00  0.00    +0.000 OA
ATOM      4  C   UNL     1     104.432 123.852 139.502  0.00  0.00    +0.000 C 
ATOM      5  C   UNL     1     106.494 125.340 140.926  0.00  0.00    +0.000 A 
ATOM      6  C   UNL     1     104.335 123.354 140.153  0.00  0.00    +0.000 C 
ATOM      7  C   UNL     1     105.442 124.576 140.206  0.00  0.00    +0.000 A 
ATOM      8  C   UNL     1     105.345 124.079 140.857  0.00  0.00    +0.000 A 
ATOM      9  C   UNL     1     106.015 125.216 140.223  0.00  0.00    +0.000 A 
ATOM     10  C   UNL     1     104.791 123.468 140.830  0.00  0.00    +0.000 C 
ATOM     11  C   UNL     1     106.392 124.821 141.604  0.00  0.00    +0.000 A 
ATOM     12  C   UNL     1     105.814 124.186 141.570  0.00  0.00    +0.000 A 
ENDROOT
BRANCH   4  15
ATOM     13  O   UNL     1     101.950 124.136 138.113  0.00  0.00    +0.000 OA
ATOM     14  O   UNL     1     102.605 123.397 136.791  0.00  0.00    +0.000 OA
ATOM     15  C   UNL     1     103.975 123.738 138.824  0.00  0.00    +0.000 A 
ATOM     16  C   UNL     1     103.191 123.994 138.808  0.00  0.00    +0.000 A 
ATOM     17  C   UNL     1     104.303 123.369 138.163  0.00  0.00    +0.000 A 
ATOM     18  C   UNL     1     102.734 123.881 138.130  0.00  0.00    +0.000 A 
ATOM     19  C   UNL     1     103.846 123.255 137.486  0.00  0.00    +0.000 A 
ATOM     20  C   UNL     1     103.062 123.511 137.469  0.00  0.00    +0.000 A 
ENDBRANCH   4  15
BRANCH   5  21
ATOM     21  O   UNL     1     107.046 125.952 140.950  0.00  0.00    +0.000 OA
BRANCH  21  30
ATOM     22  O   UNL     1     106.218 126.960 141.532  0.00  0.00    +0.000 OA
ATOM     23  O   UNL     1     108.105 127.687 142.959  0.00  0.00    +0.000 OA
ATOM     24  O   UNL     1     106.647 128.452 143.066  0.00  0.00    +0.000 OA
ATOM     25  O   UNL     1     108.305 126.437 141.901  0.00  0.00    +0.000 OA
ATOM     26  C   UNL     1     107.476 127.444 142.483  0.00  0.00    +0.000 C 
ATOM     27  C   UNL     1     106.747 127.827 142.537  0.00  0.00    +0.000 C 
ATOM     28  C   UNL     1     107.575 126.819 141.954  0.00  0.00    +0.000 C 
ATOM     29  C   UNL     1     106.118 127.584 142.061  0.00  0.00    +0.000 C 
ATOM     30  C   UNL     1     106.946 126.577 141.479  0.00  0.00    +0.000 C 
ATOM     31  C   UNL     1     105.389 127.967 142.115  0.00  0.00    +0.000 C 
ENDBRANCH  21  30
ENDBRANCH   5  21
TORSDOF 3
ENDMDL
MODEL 5
REMARK VINA RESULT:      -9.5      1.370      2.151
REMARK  Name = 131752847
REMARK  3 active torsions:
REMARK  status: ('A' for Active; 'I' for Inactive)
REMARK    1  A    between atoms: O_2  and  C_15
REMARK    2  A    between atoms: O_2  and  C_18
REMARK    3  A    between atoms: C_17  and  C_24
REMARK                            x       y       z     vdW  Elec       q    Type
REMARK                         _______ _______ _______ _____ _____    ______ ____
ROOT
ATOM      1  O   UNL     1     111.523 127.066 136.160  0.00  0.00    +0.000 OA
ATOM      2  O   UNL     1     113.544 126.480 136.739  0.00  0.00    +0.000 OA
ATOM      3  O   UNL     1     113.795 128.041 136.269  0.00  0.00    +0.000 OA
ATOM      4  C   UNL     1     112.154 126.610 136.431  0.00  0.00    +0.000 C 
ATOM      5  C   UNL     1     111.106 129.125 135.396  0.00  0.00    +0.000 A 
ATOM      6  C   UNL     1     112.912 126.935 136.468  0.00  0.00    +0.000 C 
ATOM      7  C   UNL     1     111.648 127.846 135.924  0.00  0.00    +0.000 A 
ATOM      8  C   UNL     1     112.405 128.172 135.960  0.00  0.00    +0.000 A 
ATOM      9  C   UNL     1     110.982 128.311 135.643  0.00  0.00    +0.000 A 
ATOM     10  C   UNL     1     113.037 127.716 136.232  0.00  0.00    +0.000 C 
ATOM     11  C   UNL     1     111.895 129.463 135.434  0.00  0.00    +0.000 A 
ATOM     12  C   UNL     1     112.549 128.984 135.718  0.00  0.00    +0.000 A 
ENDROOT
BRANCH   4  15
ATOM     13  O   UNL     1     111.295 124.728 138.403  0.00  0.00    +0.000 OA
ATOM     14  O   UNL     1     111.653 123.488 137.374  0.00  0.00    +0.000 OA
ATOM     15  C   UNL     1     112.029 125.829 136.667  0.00  0.00    +0.000 A 
ATOM     16  C   UNL     1     111.725 125.669 137.418  0.00  0.00    +0.000 A 
ATOM     17  C   UNL     1     112.208 125.209 136.153  0.00  0.00    +0.000 A 
ATOM     18  C   UNL     1     111.599 124.888 137.653  0.00  0.00    +0.000 A 
ATOM     19  C   UNL     1     112.082 124.429 136.389  0.00  0.00    +0.000 A 
ATOM     20  C   UNL     1     111.778 124.269 137.139  0.00  0.00    +0.000 A 
ENDBRANCH   4  15
BRANCH   5  21
ATOM     21  O   UNL     1     110.472 129.578 135.125  0.00  0.00    +0.000 OA
BRANCH  21  30
ATOM     22  O   UNL     1     110.223 130.304 136.330  0.00  0.00    +0.000 OA
ATOM     23  O   UNL     1     107.786 130.109 135.944  0.00  0.00    +0.000 OA
ATOM     24  O   UNL     1     108.349 130.900 137.278  0.00  0.00    +0.000 OA
ATOM     25  O   UNL     1     108.848 129.448 134.867  0.00  0.00    +0.000 OA
ATOM     26  C   UNL     1     108.598 130.174 136.072  0.00  0.00    +0.000 C 
ATOM     27  C   UNL     1     108.880 130.569 136.739  0.00  0.00    +0.000 C 
ATOM     28  C   UNL     1     109.129 129.843 135.535  0.00  0.00    +0.000 C 
ATOM     29  C   UNL     1     109.693 130.634 136.868  0.00  0.00    +0.000 C 
ATOM     30  C   UNL     1     109.942 129.909 135.664  0.00  0.00    +0.000 C 
ATOM     31  C   UNL     1     109.973 131.030 137.535  0.00  0.00    +0.000 C 
ENDBRANCH  21  30
ENDBRANCH   5  21
TORSDOF 3
ENDMDL
MODEL 6
REMARK VINA RESULT:      -9.4      1.374      5.718
REMARK  Name = 131752847
REMARK  3 active torsions:
REMARK  status: ('A' for Active; 'I' for Inactive)
REMARK    1  A    between atoms: O_2  and  C_15
REMARK    2  A    between atoms: O_2  and  C_18
REMARK    3  A    between atoms: C_17  and  C_24
REMARK                            x       y       z     vdW  Elec       q    Type
REMARK                         _______ _______ _______ _____ _____    ______ ____
ROOT
ATOM      1  O   UNL     1     111.147 128.490 136.471  0.00  0.00    +0.000 OA
ATOM      2  O   UNL     1     111.081 129.814 134.737  0.00  0.00    +0.000 OA
ATOM      3  O   UNL     1     112.620 129.230 134.625  0.00  0.00    +0.000 OA
ATOM      4  C   UNL     1     110.868 129.029 135.912  0.00  0.00    +0.000 C 
ATOM      5  C   UNL     1     112.995 127.329 136.951  0.00  0.00    +0.000 A 
ATOM      6  C   UNL     1     111.360 129.275 135.297  0.00  0.00    +0.000 C 
ATOM      7  C   UNL     1     111.916 128.198 136.415  0.00  0.00    +0.000 A 
ATOM      8  C   UNL     1     112.407 128.444 135.800  0.00  0.00    +0.000 A 
ATOM      9  C   UNL     1     112.195 127.637 137.003  0.00  0.00    +0.000 A 
ATOM     10  C   UNL     1     112.129 128.983 135.241  0.00  0.00    +0.000 C 
ATOM     11  C   UNL     1     113.507 127.586 136.309  0.00  0.00    +0.000 A 
ATOM     12  C   UNL     1     113.211 128.147 135.730  0.00  0.00    +0.000 A 
ENDROOT
BRANCH   4  15
ATOM     13  O   UNL     1     108.048 128.637 135.668  0.00  0.00    +0.000 OA
ATOM     14  O   UNL     1     107.791 130.198 136.136  0.00  0.00    +0.000 OA
ATOM     15  C   UNL     1     110.099 129.322 135.968  0.00  0.00    +0.000 A 
ATOM     16  C   UNL     1     109.458 128.833 135.790  0.00  0.00    +0.000 A 
ATOM     17  C   UNL     1     109.970 130.102 136.202  0.00  0.00    +0.000 A 
ATOM     18  C   UNL     1     108.689 129.125 135.846  0.00  0.00    +0.000 A 
ATOM     19  C   UNL     1     109.201 130.394 136.258  0.00  0.00    +0.000 A 
ATOM     20  C   UNL     1     108.560 129.906 136.080  0.00  0.00    +0.000 A 
ENDBRANCH   4  15
BRANCH   5  21
ATOM     21  O   UNL     1     113.271 126.790 137.512  0.00  0.00    +0.000 OA
BRANCH  21  30
ATOM     22  O   UNL     1     112.613 125.633 136.991  0.00  0.00    +0.000 OA
ATOM     23  O   UNL     1     114.600 124.260 137.532  0.00  0.00    +0.000 OA
ATOM     24  O   UNL     1     113.281 123.561 136.831  0.00  0.00    +0.000 OA
ATOM     25  O   UNL     1     114.595 125.875 137.873  0.00  0.00    +0.000 OA
ATOM     26  C   UNL     1     113.938 124.718 137.352  0.00  0.00    +0.000 C 
ATOM     27  C   UNL     1     113.278 124.369 137.001  0.00  0.00    +0.000 C 
ATOM     28  C   UNL     1     113.935 125.525 137.522  0.00  0.00    +0.000 C 
ATOM     29  C   UNL     1     112.616 124.826 136.820  0.00  0.00    +0.000 C 
ATOM     30  C   UNL     1     113.273 125.982 137.341  0.00  0.00    +0.000 C 
ATOM     31  C   UNL     1     111.956 124.476 136.470  0.00  0.00    +0.000 C 
ENDBRANCH  21  30
ENDBRANCH   5  21
TORSDOF 3
ENDMDL
MODEL 7
REMARK VINA RESULT:      -9.3      3.643      5.778
REMARK  Name = 131752847
REMARK  3 active torsions:
REMARK  status: ('A' for Active; 'I' for Inactive)
REMARK    1  A    between atoms: O_2  and  C_15
REMARK    2  A    between atoms: O_2  and  C_18
REMARK    3  A    between atoms: C_17  and  C_24
REMARK                            x       y       z     vdW  Elec       q    Type
REMARK                         _______ _______ _______ _____ _____    ______ ____
ROOT
ATOM      1  O   UNL     1     113.225 128.815 139.465  0.00  0.00    +0.000 OA
ATOM      2  O   UNL     1     113.087 130.814 138.601  0.00  0.00    +0.000 OA
ATOM      3  O   UNL     1     112.160 129.952 137.543  0.00  0.00    +0.000 OA
ATOM      4  C   UNL     1     113.334 129.625 139.354  0.00  0.00    +0.000 C 
ATOM      5  C   UNL     1     112.174 127.085 138.517  0.00  0.00    +0.000 A 
ATOM      6  C   UNL     1     112.979 130.004 138.713  0.00  0.00    +0.000 C 
ATOM      7  C   UNL     1     112.762 128.383 138.937  0.00  0.00    +0.000 A 
ATOM      8  C   UNL     1     112.407 128.762 138.296  0.00  0.00    +0.000 A 
ATOM      9  C   UNL     1     112.656 127.540 139.064  0.00  0.00    +0.000 A 
ATOM     10  C   UNL     1     112.515 129.572 138.184  0.00  0.00    +0.000 C 
ATOM     11  C   UNL     1     111.804 127.481 137.848  0.00  0.00    +0.000 A 
ATOM     12  C   UNL     1     111.921 128.325 137.737  0.00  0.00    +0.000 A 
ENDROOT
BRANCH   4  15
ATOM     13  O   UNL     1     113.608 131.034 141.825  0.00  0.00    +0.000 OA
ATOM     14  O   UNL     1     115.188 131.349 141.470  0.00  0.00    +0.000 OA
ATOM     15  C   UNL     1     113.798 130.056 139.883  0.00  0.00    +0.000 A 
ATOM     16  C   UNL     1     113.470 130.329 140.590  0.00  0.00    +0.000 A 
ATOM     17  C   UNL     1     114.588 130.214 139.705  0.00  0.00    +0.000 A 
ATOM     18  C   UNL     1     113.934 130.760 141.119  0.00  0.00    +0.000 A 
ATOM     19  C   UNL     1     115.050 130.645 140.235  0.00  0.00    +0.000 A 
ATOM     20  C   UNL     1     114.724 130.918 140.941  0.00  0.00    +0.000 A 
ENDBRANCH   4  15
BRANCH   5  21
ATOM     21  O   UNL     1     112.067 126.275 138.631  0.00  0.00    +0.000 OA
BRANCH  21  30
ATOM     22  O   UNL     1     113.251 125.811 137.978  0.00  0.00    +0.000 OA
ATOM     23  O   UNL     1     111.960 123.965 136.952  0.00  0.00    +0.000 OA
ATOM     24  O   UNL     1     113.574 124.116 136.642  0.00  0.00    +0.000 OA
ATOM     25  O   UNL     1     111.207 125.045 137.947  0.00  0.00    +0.000 OA
ATOM     26  C   UNL     1     112.390 124.580 137.294  0.00  0.00    +0.000 C 
ATOM     27  C   UNL     1     113.197 124.656 137.139  0.00  0.00    +0.000 C 
ATOM     28  C   UNL     1     112.014 125.121 137.792  0.00  0.00    +0.000 C 
ATOM     29  C   UNL     1     113.627 125.272 137.481  0.00  0.00    +0.000 C 
ATOM     30  C   UNL     1     112.445 125.736 138.134  0.00  0.00    +0.000 C 
ATOM     31  C   UNL     1     114.434 125.346 137.326  0.00  0.00    +0.000 C 
ENDBRANCH  21  30
ENDBRANCH   5  21
TORSDOF 3
ENDMDL
MODEL 8
REMARK VINA RESULT:      -9.3      1.799      5.567
REMARK  Name = 131752847
REMARK  3 active torsions:
REMARK  status: ('A' for Active; 'I' for Inactive)
REMARK    1  A    between atoms: O_2  and  C_15
REMARK    2  A    between atoms: O_2  and  C_18
REMARK    3  A    between atoms: C_17  and  C_24
REMARK                            x       y       z     vdW  Elec       q    Type
REMARK                         _______ _______ _______ _____ _____    ______ ____
ROOT
ATOM      1  O   UNL     1     110.054 130.118 136.584  0.00  0.00    +0.000 OA
ATOM      2  O   UNL     1     108.124 131.126 136.739  0.00  0.00    +0.000 OA
ATOM      3  O   UNL     1     107.680 129.711 136.016  0.00  0.00    +0.000 OA
ATOM      4  C   UNL     1     109.485 130.690 136.756  0.00  0.00    +0.000 C 
ATOM      5  C   UNL     1     110.209 128.084 135.672  0.00  0.00    +0.000 A 
ATOM      6  C   UNL     1     108.693 130.554 136.567  0.00  0.00    +0.000 C 
ATOM      7  C   UNL     1     109.832 129.411 136.223  0.00  0.00    +0.000 A 
ATOM      8  C   UNL     1     109.041 129.275 136.033  0.00  0.00    +0.000 A 
ATOM      9  C   UNL     1     110.434 128.823 136.048  0.00  0.00    +0.000 A 
ATOM     10  C   UNL     1     108.472 129.846 136.205  0.00  0.00    +0.000 C 
ATOM     11  C   UNL     1     109.384 127.942 135.474  0.00  0.00    +0.000 A 
ATOM     12  C   UNL     1     108.796 128.542 135.656  0.00  0.00    +0.000 A 
ENDROOT
BRANCH   4  15
ATOM     13  O   UNL     1     110.074 132.182 139.122  0.00  0.00    +0.000 OA
ATOM     14  O   UNL     1     110.372 133.520 138.203  0.00  0.00    +0.000 OA
ATOM     15  C   UNL     1     109.707 131.398 137.118  0.00  0.00    +0.000 A 
ATOM     16  C   UNL     1     109.779 131.436 137.939  0.00  0.00    +0.000 A 
ATOM     17  C   UNL     1     109.856 132.067 136.659  0.00  0.00    +0.000 A 
ATOM     18  C   UNL     1     110.001 132.143 138.301  0.00  0.00    +0.000 A 
ATOM     19  C   UNL     1     110.077 132.773 137.021  0.00  0.00    +0.000 A 
ATOM     20  C   UNL     1     110.150 132.812 137.842  0.00  0.00    +0.000 A 
ENDBRANCH   4  15
BRANCH   5  21
ATOM     21  O   UNL     1     110.781 127.514 135.501  0.00  0.00    +0.000 OA
BRANCH  21  30
ATOM     22  O   UNL     1     110.875 126.936 136.804  0.00  0.00    +0.000 OA
ATOM     23  O   UNL     1     111.057 124.684 135.793  0.00  0.00    +0.000 OA
ATOM     24  O   UNL     1     111.090 124.857 137.434  0.00  0.00    +0.000 OA
ATOM     25  O   UNL     1     110.903 126.013 134.827  0.00  0.00    +0.000 OA
ATOM     26  C   UNL     1     110.996 125.435 136.130  0.00  0.00    +0.000 C 
ATOM     27  C   UNL     1     111.013 125.522 136.950  0.00  0.00    +0.000 C 
ATOM     28  C   UNL     1     110.919 126.099 135.648  0.00  0.00    +0.000 C 
ATOM     29  C   UNL     1     110.952 126.272 137.287  0.00  0.00    +0.000 C 
ATOM     30  C   UNL     1     110.858 126.850 135.985  0.00  0.00    +0.000 C 
ATOM     31  C   UNL     1     110.969 126.358 138.108  0.00  0.00    +0.000 C 
ENDBRANCH  21  30
ENDBRANCH   5  21
TORSDOF 3
ENDMDL
MODEL 9
REMARK VINA RESULT:      -9.3      2.003      3.402
REMARK  Name = 131752847
REMARK  3 active torsions:
REMARK  status: ('A' for Active; 'I' for Inactive)
REMARK    1  A    between atoms: O_2  and  C_15
REMARK    2  A    between atoms: O_2  and  C_18
REMARK    3  A    between atoms: C_17  and  C_24
REMARK                            x       y       z     vdW  Elec       q    Type
REMARK                         _______ _______ _______ _____ _____    ______ ____
ROOT
ATOM      1  O   UNL     1     110.279 128.169 136.184  0.00  0.00    +0.000 OA
ATOM      2  O   UNL     1     108.593 126.896 135.638  0.00  0.00    +0.000 OA
ATOM      3  O   UNL     1     107.864 128.375 135.685  0.00  0.00    +0.000 OA
ATOM      4  C   UNL     1     109.839 127.497 135.994  0.00  0.00    +0.000 C 
ATOM      5  C   UNL     1     110.012 130.373 136.433  0.00  0.00    +0.000 A 
ATOM      6  C   UNL     1     109.034 127.566 135.828  0.00  0.00    +0.000 C 
ATOM      7  C   UNL     1     109.916 128.908 136.208  0.00  0.00    +0.000 A 
ATOM      8  C   UNL     1     109.111 128.977 136.041  0.00  0.00    +0.000 A 
ATOM      9  C   UNL     1     110.385 129.600 136.406  0.00  0.00    +0.000 A 
ATOM     10  C   UNL     1     108.670 128.306 135.851  0.00  0.00    +0.000 C 
ATOM     11  C   UNL     1     109.173 130.445 136.260  0.00  0.00    +0.000 A 
ATOM     12  C   UNL     1     108.719 129.742 136.063  0.00  0.00    +0.000 A 
ENDROOT
BRANCH   4  15
ATOM     13  O   UNL     1     110.868 125.201 137.349  0.00  0.00    +0.000 OA
ATOM     14  O   UNL     1     111.295 124.537 135.900  0.00  0.00    +0.000 OA
ATOM     15  C   UNL     1     110.203 126.757 135.970  0.00  0.00    +0.000 A 
ATOM     16  C   UNL     1     110.354 126.349 136.672  0.00  0.00    +0.000 A 
ATOM     17  C   UNL     1     110.416 126.425 135.245  0.00  0.00    +0.000 A 
ATOM     18  C   UNL     1     110.718 125.609 136.648  0.00  0.00    +0.000 A 
ATOM     19  C   UNL     1     110.780 125.686 135.222  0.00  0.00    +0.000 A 
ATOM     20  C   UNL     1     110.931 125.278 135.923  0.00  0.00    +0.000 A 
ENDBRANCH   4  15
BRANCH   5  21
ATOM     21  O   UNL     1     110.456 131.042 136.623  0.00  0.00    +0.000 OA
BRANCH  21  30
ATOM     22  O   UNL     1     110.386 130.905 138.044  0.00  0.00    +0.000 OA
ATOM     23  O   UNL     1     110.186 133.362 138.271  0.00  0.00    +0.000 OA
ATOM     24  O   UNL     1     110.183 132.406 139.616  0.00  0.00    +0.000 OA
ATOM     25  O   UNL     1     110.322 132.680 136.775  0.00  0.00    +0.000 OA
ATOM     26  C   UNL     1     110.252 132.543 138.195  0.00  0.00    +0.000 C 
ATOM     27  C   UNL     1     110.251 132.065 138.867  0.00  0.00    +0.000 C 
ATOM     28  C   UNL     1     110.321 132.201 137.448  0.00  0.00    +0.000 C 
ATOM     29  C   UNL     1     110.318 131.246 138.792  0.00  0.00    +0.000 C 
ATOM     30  C   UNL     1     110.387 131.383 137.372  0.00  0.00    +0.000 C 
ATOM     31  C   UNL     1     110.316 130.768 139.465  0.00  0.00    +0.000 C 
ENDBRANCH  21  30
ENDBRANCH   5  21
TORSDOF 3
ENDMDL
MODEL 10
REMARK VINA RESULT:      -9.1      9.752     11.724
REMARK  Name = 131752847
REMARK  3 active torsions:
REMARK  status: ('A' for Active; 'I' for Inactive)
REMARK    1  A    between atoms: O_2  and  C_15
REMARK    2  A    between atoms: O_2  and  C_18
REMARK    3  A    between atoms: C_17  and  C_24
REMARK                            x       y       z     vdW  Elec       q    Type
REMARK                         _______ _______ _______ _____ _____    ______ ____
ROOT
ATOM      1  O   UNL     1     105.500 126.189 144.332  0.00  0.00    +0.000 OA
ATOM      2  O   UNL     1     106.751 127.972 144.465  0.00  0.00    +0.000 OA
ATOM      3  O   UNL     1     107.117 127.227 145.891  0.00  0.00    +0.000 OA
ATOM      4  C   UNL     1     105.856 126.907 144.138  0.00  0.00    +0.000 C 
ATOM      5  C   UNL     1     105.491 124.674 145.975  0.00  0.00    +0.000 A 
ATOM      6  C   UNL     1     106.395 127.253 144.658  0.00  0.00    +0.000 C 
ATOM      7  C   UNL     1     105.682 125.816 145.044  0.00  0.00    +0.000 A 
ATOM      8  C   UNL     1     106.221 126.162 145.564  0.00  0.00    +0.000 A 
ATOM      9  C   UNL     1     105.305 125.068 145.234  0.00  0.00    +0.000 A 
ATOM     10  C   UNL     1     106.578 126.880 145.371  0.00  0.00    +0.000 C 
ATOM     11  C   UNL     1     106.053 125.035 146.517  0.00  0.00    +0.000 A 
ATOM     12  C   UNL     1     106.420 125.784 146.310  0.00  0.00    +0.000 A 
ENDROOT
BRANCH   4  15
ATOM     13  O   UNL     1     106.177 127.127 141.306  0.00  0.00    +0.000 OA
ATOM     14  O   UNL     1     105.126 128.398 141.286  0.00  0.00    +0.000 OA
ATOM     15  C   UNL     1     105.673 127.280 143.425  0.00  0.00    +0.000 A 
ATOM     16  C   UNL     1     106.017 127.017 142.722  0.00  0.00    +0.000 A 
ATOM     17  C   UNL     1     105.147 127.916 143.415  0.00  0.00    +0.000 A 
ATOM     18  C   UNL     1     105.834 127.390 142.009  0.00  0.00    +0.000 A 
ATOM     19  C   UNL     1     104.965 128.288 142.702  0.00  0.00    +0.000 A 
ATOM     20  C   UNL     1     105.308 128.025 141.999  0.00  0.00    +0.000 A 
ENDBRANCH   4  15
BRANCH   5  21
ATOM     21  O   UNL     1     105.133 123.956 146.165  0.00  0.00    +0.000 OA
BRANCH  21  30
ATOM     22  O   UNL     1     104.036 124.504 146.899  0.00  0.00    +0.000 OA
ATOM     23  O   UNL     1     102.551 122.742 145.995  0.00  0.00    +0.000 OA
ATOM     24  O   UNL     1     101.949 123.877 147.031  0.00  0.00    +0.000 OA
ATOM     25  O   UNL     1     104.143 122.781 145.562  0.00  0.00    +0.000 OA
ATOM     26  C   UNL     1     103.046 123.329 146.297  0.00  0.00    +0.000 C 
ATOM     27  C   UNL     1     102.746 123.897 146.814  0.00  0.00    +0.000 C 
ATOM     28  C   UNL     1     103.842 123.350 146.081  0.00  0.00    +0.000 C 
ATOM     29  C   UNL     1     103.241 124.484 147.116  0.00  0.00    +0.000 C 
ATOM     30  C   UNL     1     104.337 123.937 146.382  0.00  0.00    +0.000 C 
ATOM     31  C   UNL     1     102.939 125.051 147.633  0.00  0.00    +0.000 C 
ENDBRANCH  21  30
ENDBRANCH   5  21
TORSDOF 3
ENDMDL
