MODEL 1
REMARK VINA RESULT:      -7.3      0.000      0.000
REMARK  Name = 183466
REMARK  6 active torsions:
REMARK  status: ('A' for Active; 'I' for Inactive)
REMARK    1  A    between atoms: O_2  and  C_11
REMARK    2  A    between atoms: O_3  and  C_12
REMARK    3  A    between atoms: O_4  and  C_14
REMARK    4  A    between atoms: O_5  and  C_15
REMARK    5  A    between atoms: O_7  and  C_23
REMARK    6  A    between atoms: C_13  and  C_18
REMARK                            x       y       z     vdW  Elec       q    Type
REMARK                         _______ _______ _______ _____ _____    ______ ____
ROOT
ATOM      1  O   UNL     1     103.125 131.607 141.257  0.00  0.00    +0.000 OA
ATOM      2  O   UNL     1     100.786 131.765 142.212  0.00  0.00    +0.000 OA
ATOM      3  C   UNL     1     101.974 132.415 141.667  0.00  0.00    +0.000 A 
ATOM      4  C   UNL     1     102.737 132.367 141.356  0.00  0.00    +0.000 A 
ATOM      5  C   UNL     1     101.611 133.151 141.757  0.00  0.00    +0.000 A 
ATOM      6  C   UNL     1     103.136 133.054 141.134  0.00  0.00    +0.000 A 
ATOM      7  C   UNL     1     102.714 130.888 141.486  0.00  0.00    +0.000 A 
ATOM      8  C   UNL     1     102.011 133.838 141.536  0.00  0.00    +0.000 A 
ATOM      9  C   UNL     1     102.773 133.789 141.224  0.00  0.00    +0.000 A 
ATOM     10  C   UNL     1     101.548 131.708 141.902  0.00  0.00    +0.000 A 
ATOM     11  C   UNL     1     101.920 130.938 141.810  0.00  0.00    +0.000 A 
ENDROOT
BRANCH   7  13
ATOM     12  O   UNL     1     103.126 128.500 139.969  0.00  0.00    +0.000 OA
ATOM     13  C   UNL     1     103.079 130.153 141.395  0.00  0.00    +0.000 A 
ATOM     14  C   UNL     1     102.921 129.694 140.728  0.00  0.00    +0.000 A 
ATOM     15  C   UNL     1     103.603 129.878 141.969  0.00  0.00    +0.000 A 
ATOM     16  C   UNL     1     103.285 128.960 140.636  0.00  0.00    +0.000 A 
ATOM     17  C   UNL     1     103.968 129.144 141.878  0.00  0.00    +0.000 A 
ATOM     18  C   UNL     1     103.809 128.685 141.211  0.00  0.00    +0.000 A 
BRANCH  18  19
ATOM     19  O   UNL     1     104.174 127.951 141.120  0.00  0.00    +0.000 OA
ATOM     20  C   UNL     1     104.807 127.742 141.605  0.00  0.00    +0.000 C 
ENDBRANCH  18  19
ENDBRANCH   7  13
BRANCH   5  21
ATOM     21  O   UNL     1     100.849 133.200 142.069  0.00  0.00    +0.000 OA
ATOM     22  C   UNL     1     100.710 132.991 142.854  0.00  0.00    +0.000 C 
ENDBRANCH   5  21
BRANCH   6  23
ATOM     23  O   UNL     1     103.898 133.006 140.823  0.00  0.00    +0.000 OA
ATOM     24  C   UNL     1     104.015 133.055 140.008  0.00  0.00    +0.000 C 
ENDBRANCH   6  23
BRANCH   8  25
ATOM     25  O   UNL     1     101.648 134.574 141.626  0.00  0.00    +0.000 OA
ATOM     26  C   UNL     1     101.182 134.880 141.018  0.00  0.00    +0.000 C 
ENDBRANCH   8  25
BRANCH   9  27
ATOM     27  O   UNL     1     103.173 134.477 141.003  0.00  0.00    +0.000 OA
ATOM     28  C   UNL     1     103.643 134.875 141.550  0.00  0.00    +0.000 C 
ENDBRANCH   9  27
TORSDOF 6
ENDMDL
MODEL 2
REMARK VINA RESULT:      -7.2     10.801     13.096
REMARK  Name = 183466
REMARK  6 active torsions:
REMARK  status: ('A' for Active; 'I' for Inactive)
REMARK    1  A    between atoms: O_2  and  C_11
REMARK    2  A    between atoms: O_3  and  C_12
REMARK    3  A    between atoms: O_4  and  C_14
REMARK    4  A    between atoms: O_5  and  C_15
REMARK    5  A    between atoms: O_7  and  C_23
REMARK    6  A    between atoms: C_13  and  C_18
REMARK                            x       y       z     vdW  Elec       q    Type
REMARK                         _______ _______ _______ _____ _____    ______ ____
ROOT
ATOM      1  O   UNL     1     112.798 127.805 135.949  0.00  0.00    +0.000 OA
ATOM      2  O   UNL     1     114.287 125.992 136.900  0.00  0.00    +0.000 OA
ATOM      3  C   UNL     1     112.980 126.429 136.416  0.00  0.00    +0.000 A 
ATOM      4  C   UNL     1     112.493 127.018 136.106  0.00  0.00    +0.000 A 
ATOM      5  C   UNL     1     112.676 125.676 136.563  0.00  0.00    +0.000 A 
ATOM      6  C   UNL     1     111.701 126.854 135.943  0.00  0.00    +0.000 A 
ATOM      7  C   UNL     1     113.623 127.982 136.117  0.00  0.00    +0.000 A 
ATOM      8  C   UNL     1     111.884 125.513 136.399  0.00  0.00    +0.000 A 
ATOM      9  C   UNL     1     111.397 126.102 136.089  0.00  0.00    +0.000 A 
ATOM     10  C   UNL     1     113.807 126.587 136.590  0.00  0.00    +0.000 A 
ATOM     11  C   UNL     1     114.130 127.369 136.440  0.00  0.00    +0.000 A 
ENDROOT
BRANCH   7  13
ATOM     12  O   UNL     1     114.047 130.684 136.946  0.00  0.00    +0.000 OA
ATOM     13  C   UNL     1     113.924 128.736 135.969  0.00  0.00    +0.000 A 
ATOM     14  C   UNL     1     113.835 129.333 136.531  0.00  0.00    +0.000 A 
ATOM     15  C   UNL     1     114.316 128.892 135.261  0.00  0.00    +0.000 A 
ATOM     16  C   UNL     1     114.136 130.087 136.385  0.00  0.00    +0.000 A 
ATOM     17  C   UNL     1     114.618 129.646 135.113  0.00  0.00    +0.000 A 
ATOM     18  C   UNL     1     114.528 130.243 135.675  0.00  0.00    +0.000 A 
BRANCH  18  19
ATOM     19  O   UNL     1     114.830 130.996 135.528  0.00  0.00    +0.000 OA
ATOM     20  C   UNL     1     115.381 131.109 134.925  0.00  0.00    +0.000 C 
ENDBRANCH  18  19
ENDBRANCH   7  13
BRANCH   5  21
ATOM     21  O   UNL     1     113.163 125.087 136.873  0.00  0.00    +0.000 OA
ATOM     22  C   UNL     1     113.788 124.791 136.424  0.00  0.00    +0.000 C 
ENDBRANCH   5  21
BRANCH   6  23
ATOM     23  O   UNL     1     111.214 127.443 135.633  0.00  0.00    +0.000 OA
ATOM     24  C   UNL     1     110.688 127.845 136.125  0.00  0.00    +0.000 C 
ENDBRANCH   6  23
BRANCH   8  25
ATOM     25  O   UNL     1     111.579 124.760 136.546  0.00  0.00    +0.000 OA
ATOM     26  C   UNL     1     111.325 124.559 137.305  0.00  0.00    +0.000 C 
ENDBRANCH   8  25
BRANCH   9  27
ATOM     27  O   UNL     1     110.604 125.938 135.926  0.00  0.00    +0.000 OA
ATOM     28  C   UNL     1     110.388 125.641 135.188  0.00  0.00    +0.000 C 
ENDBRANCH   9  27
TORSDOF 6
ENDMDL
MODEL 3
REMARK VINA RESULT:      -7.1     10.620     12.294
REMARK  Name = 183466
REMARK  6 active torsions:
REMARK  status: ('A' for Active; 'I' for Inactive)
REMARK    1  A    between atoms: O_2  and  C_11
REMARK    2  A    between atoms: O_3  and  C_12
REMARK    3  A    between atoms: O_4  and  C_14
REMARK    4  A    between atoms: O_5  and  C_15
REMARK    5  A    between atoms: O_7  and  C_23
REMARK    6  A    between atoms: C_13  and  C_18
REMARK                            x       y       z     vdW  Elec       q    Type
REMARK                         _______ _______ _______ _____ _____    ______ ____
ROOT
ATOM      1  O   UNL     1     113.245 127.591 137.440  0.00  0.00    +0.000 OA
ATOM      2  O   UNL     1     113.959 128.739 135.299  0.00  0.00    +0.000 OA
ATOM      3  C   UNL     1     113.538 128.818 136.695  0.00  0.00    +0.000 A 
ATOM      4  C   UNL     1     113.305 128.447 137.394  0.00  0.00    +0.000 A 
ATOM      5  C   UNL     1     113.593 129.641 136.664  0.00  0.00    +0.000 A 
ATOM      6  C   UNL     1     113.127 128.899 138.061  0.00  0.00    +0.000 A 
ATOM      7  C   UNL     1     113.429 127.115 136.748  0.00  0.00    +0.000 A 
ATOM      8  C   UNL     1     113.414 130.092 137.331  0.00  0.00    +0.000 A 
ATOM      9  C   UNL     1     113.182 129.720 138.030  0.00  0.00    +0.000 A 
ATOM     10  C   UNL     1     113.727 128.360 135.994  0.00  0.00    +0.000 A 
ATOM     11  C   UNL     1     113.672 127.502 136.020  0.00  0.00    +0.000 A 
ENDROOT
BRANCH   7  13
ATOM     12  O   UNL     1     114.596 124.580 137.365  0.00  0.00    +0.000 OA
ATOM     13  C   UNL     1     113.374 126.293 136.782  0.00  0.00    +0.000 A 
ATOM     14  C   UNL     1     114.012 125.848 137.056  0.00  0.00    +0.000 A 
ATOM     15  C   UNL     1     112.681 125.915 136.543  0.00  0.00    +0.000 A 
ATOM     16  C   UNL     1     113.958 125.026 137.091  0.00  0.00    +0.000 A 
ATOM     17  C   UNL     1     112.626 125.093 136.577  0.00  0.00    +0.000 A 
ATOM     18  C   UNL     1     113.264 124.648 136.851  0.00  0.00    +0.000 A 
BRANCH  18  19
ATOM     19  O   UNL     1     113.209 123.826 136.886  0.00  0.00    +0.000 OA
ATOM     20  C   UNL     1     112.471 123.460 136.840  0.00  0.00    +0.000 C 
ENDBRANCH  18  19
ENDBRANCH   7  13
BRANCH   5  21
ATOM     21  O   UNL     1     113.826 130.013 135.965  0.00  0.00    +0.000 OA
ATOM     22  C   UNL     1     114.592 129.909 135.678  0.00  0.00    +0.000 C 
ENDBRANCH   5  21
BRANCH   6  23
ATOM     23  O   UNL     1     112.894 128.527 138.760  0.00  0.00    +0.000 OA
ATOM     24  C   UNL     1     112.095 128.493 138.963  0.00  0.00    +0.000 C 
ENDBRANCH   6  23
BRANCH   8  25
ATOM     25  O   UNL     1     113.469 130.915 137.299  0.00  0.00    +0.000 OA
ATOM     26  C   UNL     1     112.820 131.362 137.056  0.00  0.00    +0.000 C 
ENDBRANCH   8  25
BRANCH   9  27
ATOM     27  O   UNL     1     113.003 130.172 138.697  0.00  0.00    +0.000 OA
ATOM     28  C   UNL     1     113.594 130.354 139.243  0.00  0.00    +0.000 C 
ENDBRANCH   9  27
TORSDOF 6
ENDMDL
MODEL 4
REMARK VINA RESULT:      -7.1     10.513     12.593
REMARK  Name = 183466
REMARK  6 active torsions:
REMARK  status: ('A' for Active; 'I' for Inactive)
REMARK    1  A    between atoms: O_2  and  C_11
REMARK    2  A    between atoms: O_3  and  C_12
REMARK    3  A    between atoms: O_4  and  C_14
REMARK    4  A    between atoms: O_5  and  C_15
REMARK    5  A    between atoms: O_7  and  C_23
REMARK    6  A    between atoms: C_13  and  C_18
REMARK                            x       y       z     vdW  Elec       q    Type
REMARK                         _______ _______ _______ _____ _____    ______ ____
ROOT
ATOM      1  O   UNL     1     112.455 126.577 138.685  0.00  0.00    +0.000 OA
ATOM      2  O   UNL     1     114.556 125.305 138.069  0.00  0.00    +0.000 OA
ATOM      3  C   UNL     1     113.127 125.547 137.889  0.00  0.00    +0.000 A 
ATOM      4  C   UNL     1     112.441 125.960 138.088  0.00  0.00    +0.000 A 
ATOM      5  C   UNL     1     113.101 124.955 137.314  0.00  0.00    +0.000 A 
ATOM      6  C   UNL     1     111.729 125.781 137.712  0.00  0.00    +0.000 A 
ATOM      7  C   UNL     1     113.195 126.768 139.081  0.00  0.00    +0.000 A 
ATOM      8  C   UNL     1     112.389 124.778 136.938  0.00  0.00    +0.000 A 
ATOM      9  C   UNL     1     111.702 125.190 137.137  0.00  0.00    +0.000 A 
ATOM     10  C   UNL     1     113.875 125.723 138.274  0.00  0.00    +0.000 A 
ATOM     11  C   UNL     1     113.909 126.338 138.874  0.00  0.00    +0.000 A 
ENDROOT
BRANCH   7  13
ATOM     12  O   UNL     1     112.936 127.579 141.809  0.00  0.00    +0.000 OA
ATOM     13  C   UNL     1     113.218 127.359 139.655  0.00  0.00    +0.000 A 
ATOM     14  C   UNL     1     113.065 127.174 140.444  0.00  0.00    +0.000 A 
ATOM     15  C   UNL     1     113.394 128.136 139.441  0.00  0.00    +0.000 A 
ATOM     16  C   UNL     1     113.088 127.764 141.020  0.00  0.00    +0.000 A 
ATOM     17  C   UNL     1     113.417 128.728 140.016  0.00  0.00    +0.000 A 
ATOM     18  C   UNL     1     113.265 128.542 140.805  0.00  0.00    +0.000 A 
BRANCH  18  19
ATOM     19  O   UNL     1     113.288 129.133 141.380  0.00  0.00    +0.000 OA
ATOM     20  C   UNL     1     113.483 129.906 141.168  0.00  0.00    +0.000 C 
ENDBRANCH  18  19
ENDBRANCH   7  13
BRANCH   5  21
ATOM     21  O   UNL     1     113.787 124.543 137.115  0.00  0.00    +0.000 OA
ATOM     22  C   UNL     1     114.422 124.940 136.771  0.00  0.00    +0.000 C 
ENDBRANCH   5  21
BRANCH   6  23
ATOM     23  O   UNL     1     111.043 126.194 137.910  0.00  0.00    +0.000 OA
ATOM     24  C   UNL     1     110.490 125.855 138.421  0.00  0.00    +0.000 C 
ENDBRANCH   6  23
BRANCH   8  25
ATOM     25  O   UNL     1     112.362 124.186 136.363  0.00  0.00    +0.000 OA
ATOM     26  C   UNL     1     112.192 123.408 136.579  0.00  0.00    +0.000 C 
ENDBRANCH   8  25
BRANCH   9  27
ATOM     27  O   UNL     1     110.990 125.012 136.761  0.00  0.00    +0.000 OA
ATOM     28  C   UNL     1     110.791 125.387 136.054  0.00  0.00    +0.000 C 
ENDBRANCH   9  27
TORSDOF 6
ENDMDL
MODEL 5
REMARK VINA RESULT:      -7.1     11.501     13.113
REMARK  Name = 183466
REMARK  6 active torsions:
REMARK  status: ('A' for Active; 'I' for Inactive)
REMARK    1  A    between atoms: O_2  and  C_11
REMARK    2  A    between atoms: O_3  and  C_12
REMARK    3  A    between atoms: O_4  and  C_14
REMARK    4  A    between atoms: O_5  and  C_15
REMARK    5  A    between atoms: O_7  and  C_23
REMARK    6  A    between atoms: C_13  and  C_18
REMARK                            x       y       z     vdW  Elec       q    Type
REMARK                         _______ _______ _______ _____ _____    ______ ____
ROOT
ATOM      1  O   UNL     1     113.577 127.516 136.312  0.00  0.00    +0.000 OA
ATOM      2  O   UNL     1     111.153 127.667 135.596  0.00  0.00    +0.000 OA
ATOM      3  C   UNL     1     112.260 126.895 136.155  0.00  0.00    +0.000 A 
ATOM      4  C   UNL     1     113.049 126.843 136.389  0.00  0.00    +0.000 A 
ATOM      5  C   UNL     1     111.761 126.242 136.234  0.00  0.00    +0.000 A 
ATOM      6  C   UNL     1     113.340 126.138 136.702  0.00  0.00    +0.000 A 
ATOM      7  C   UNL     1     113.279 128.254 135.986  0.00  0.00    +0.000 A 
ATOM      8  C   UNL     1     112.054 125.537 136.547  0.00  0.00    +0.000 A 
ATOM      9  C   UNL     1     112.843 125.485 136.781  0.00  0.00    +0.000 A 
ATOM     10  C   UNL     1     111.944 127.624 135.827  0.00  0.00    +0.000 A 
ATOM     11  C   UNL     1     112.457 128.308 135.742  0.00  0.00    +0.000 A 
ENDROOT
BRANCH   7  13
ATOM     12  O   UNL     1     114.343 130.695 137.024  0.00  0.00    +0.000 OA
ATOM     13  C   UNL     1     113.779 128.906 135.908  0.00  0.00    +0.000 A 
ATOM     14  C   UNL     1     113.811 129.475 136.505  0.00  0.00    +0.000 A 
ATOM     15  C   UNL     1     114.247 128.989 135.234  0.00  0.00    +0.000 A 
ATOM     16  C   UNL     1     114.311 130.126 136.428  0.00  0.00    +0.000 A 
ATOM     17  C   UNL     1     114.747 129.641 135.156  0.00  0.00    +0.000 A 
ATOM     18  C   UNL     1     114.779 130.210 135.752  0.00  0.00    +0.000 A 
BRANCH  18  19
ATOM     19  O   UNL     1     115.278 130.861 135.675  0.00  0.00    +0.000 OA
ATOM     20  C   UNL     1     115.710 130.969 134.980  0.00  0.00    +0.000 C 
ENDBRANCH  18  19
ENDBRANCH   7  13
BRANCH   5  21
ATOM     21  O   UNL     1     110.972 126.294 136.000  0.00  0.00    +0.000 OA
ATOM     22  C   UNL     1     110.783 126.369 135.201  0.00  0.00    +0.000 C 
ENDBRANCH   5  21
BRANCH   6  23
ATOM     23  O   UNL     1     114.130 126.086 136.936  0.00  0.00    +0.000 OA
ATOM     24  C   UNL     1     114.323 126.083 137.738  0.00  0.00    +0.000 C 
ENDBRANCH   6  23
BRANCH   8  25
ATOM     25  O   UNL     1     111.555 124.883 136.627  0.00  0.00    +0.000 OA
ATOM     26  C   UNL     1     111.150 124.758 137.334  0.00  0.00    +0.000 C 
ENDBRANCH   8  25
BRANCH   9  27
ATOM     27  O   UNL     1     113.134 124.779 137.095  0.00  0.00    +0.000 OA
ATOM     28  C   UNL     1     113.445 124.202 136.594  0.00  0.00    +0.000 C 
ENDBRANCH   9  27
TORSDOF 6
ENDMDL
MODEL 6
REMARK VINA RESULT:      -7.1      8.124      9.642
REMARK  Name = 183466
REMARK  6 active torsions:
REMARK  status: ('A' for Active; 'I' for Inactive)
REMARK    1  A    between atoms: O_2  and  C_11
REMARK    2  A    between atoms: O_3  and  C_12
REMARK    3  A    between atoms: O_4  and  C_14
REMARK    4  A    between atoms: O_5  and  C_15
REMARK    5  A    between atoms: O_7  and  C_23
REMARK    6  A    between atoms: C_13  and  C_18
REMARK                            x       y       z     vdW  Elec       q    Type
REMARK                         _______ _______ _______ _____ _____    ______ ____
ROOT
ATOM      1  O   UNL     1     104.533 125.286 147.093  0.00  0.00    +0.000 OA
ATOM      2  O   UNL     1     104.219 123.862 145.023  0.00  0.00    +0.000 OA
ATOM      3  C   UNL     1     103.765 124.288 146.344  0.00  0.00    +0.000 A 
ATOM      4  C   UNL     1     103.865 124.751 147.019  0.00  0.00    +0.000 A 
ATOM      5  C   UNL     1     103.119 123.778 146.285  0.00  0.00    +0.000 A 
ATOM      6  C   UNL     1     103.319 124.704 147.636  0.00  0.00    +0.000 A 
ATOM      7  C   UNL     1     105.106 125.340 146.453  0.00  0.00    +0.000 A 
ATOM      8  C   UNL     1     102.574 123.731 146.902  0.00  0.00    +0.000 A 
ATOM      9  C   UNL     1     102.674 124.194 147.578  0.00  0.00    +0.000 A 
ATOM     10  C   UNL     1     104.326 124.328 145.695  0.00  0.00    +0.000 A 
ATOM     11  C   UNL     1     105.001 124.858 145.750  0.00  0.00    +0.000 A 
ENDROOT
BRANCH   7  13
ATOM     12  O   UNL     1     107.803 125.834 147.258  0.00  0.00    +0.000 OA
ATOM     13  C   UNL     1     105.751 125.851 146.514  0.00  0.00    +0.000 A 
ATOM     14  C   UNL     1     106.454 125.587 146.855  0.00  0.00    +0.000 A 
ATOM     15  C   UNL     1     105.693 126.624 146.235  0.00  0.00    +0.000 A 
ATOM     16  C   UNL     1     107.100 126.097 146.917  0.00  0.00    +0.000 A 
ATOM     17  C   UNL     1     106.338 127.135 146.296  0.00  0.00    +0.000 A 
ATOM     18  C   UNL     1     107.041 126.872 146.637  0.00  0.00    +0.000 A 
BRANCH  18  19
ATOM     19  O   UNL     1     107.686 127.382 146.699  0.00  0.00    +0.000 OA
ATOM     20  C   UNL     1     107.654 128.130 146.352  0.00  0.00    +0.000 C 
ENDBRANCH  18  19
ENDBRANCH   7  13
BRANCH   5  21
ATOM     21  O   UNL     1     103.019 123.315 145.609  0.00  0.00    +0.000 OA
ATOM     22  C   UNL     1     103.577 122.740 145.418  0.00  0.00    +0.000 C 
ENDBRANCH   5  21
BRANCH   6  23
ATOM     23  O   UNL     1     103.419 125.167 148.312  0.00  0.00    +0.000 OA
ATOM     24  C   UNL     1     102.971 125.852 148.413  0.00  0.00    +0.000 C 
ENDBRANCH   6  23
BRANCH   8  25
ATOM     25  O   UNL     1     101.927 123.221 146.843  0.00  0.00    +0.000 OA
ATOM     26  C   UNL     1     101.224 123.485 146.502  0.00  0.00    +0.000 C 
ENDBRANCH   8  25
BRANCH   9  27
ATOM     27  O   UNL     1     102.127 124.147 148.194  0.00  0.00    +0.000 OA
ATOM     28  C   UNL     1     102.237 123.600 148.802  0.00  0.00    +0.000 C 
ENDBRANCH   9  27
TORSDOF 6
ENDMDL
MODEL 7
REMARK VINA RESULT:      -7.1     10.346     11.776
REMARK  Name = 183466
REMARK  6 active torsions:
REMARK  status: ('A' for Active; 'I' for Inactive)
REMARK    1  A    between atoms: O_2  and  C_11
REMARK    2  A    between atoms: O_3  and  C_12
REMARK    3  A    between atoms: O_4  and  C_14
REMARK    4  A    between atoms: O_5  and  C_15
REMARK    5  A    between atoms: O_7  and  C_23
REMARK    6  A    between atoms: C_13  and  C_18
REMARK                            x       y       z     vdW  Elec       q    Type
REMARK                         _______ _______ _______ _____ _____    ______ ____
ROOT
ATOM      1  O   UNL     1     111.979 126.782 137.682  0.00  0.00    +0.000 OA
ATOM      2  O   UNL     1     111.626 124.336 137.132  0.00  0.00    +0.000 OA
ATOM      3  C   UNL     1     111.471 125.745 136.780  0.00  0.00    +0.000 A 
ATOM      4  C   UNL     1     111.585 126.542 136.957  0.00  0.00    +0.000 A 
ATOM      5  C   UNL     1     111.091 125.526 136.081  0.00  0.00    +0.000 A 
ATOM      6  C   UNL     1     111.319 127.122 136.434  0.00  0.00    +0.000 A 
ATOM      7  C   UNL     1     112.258 126.182 138.231  0.00  0.00    +0.000 A 
ATOM      8  C   UNL     1     110.826 126.107 135.558  0.00  0.00    +0.000 A 
ATOM      9  C   UNL     1     110.939 126.905 135.735  0.00  0.00    +0.000 A 
ATOM     10  C   UNL     1     111.743 125.131 137.317  0.00  0.00    +0.000 A 
ATOM     11  C   UNL     1     112.140 125.351 138.047  0.00  0.00    +0.000 A 
ENDROOT
BRANCH   7  13
ATOM     12  O   UNL     1     112.146 126.795 141.020  0.00  0.00    +0.000 OA
ATOM     13  C   UNL     1     112.638 126.403 138.929  0.00  0.00    +0.000 A 
ATOM     14  C   UNL     1     112.203 126.489 139.625  0.00  0.00    +0.000 A 
ATOM     15  C   UNL     1     113.451 126.537 138.933  0.00  0.00    +0.000 A 
ATOM     16  C   UNL     1     112.581 126.709 140.324  0.00  0.00    +0.000 A 
ATOM     17  C   UNL     1     113.831 126.758 139.632  0.00  0.00    +0.000 A 
ATOM     18  C   UNL     1     113.396 126.844 140.327  0.00  0.00    +0.000 A 
BRANCH  18  19
ATOM     19  O   UNL     1     113.774 127.064 141.026  0.00  0.00    +0.000 OA
ATOM     20  C   UNL     1     114.582 127.233 141.021  0.00  0.00    +0.000 C 
ENDBRANCH  18  19
ENDBRANCH   7  13
BRANCH   5  21
ATOM     21  O   UNL     1     110.977 124.729 135.904  0.00  0.00    +0.000 OA
ATOM     22  C   UNL     1     111.622 124.214 135.887  0.00  0.00    +0.000 C 
ENDBRANCH   5  21
BRANCH   6  23
ATOM     23  O   UNL     1     111.433 127.920 136.610  0.00  0.00    +0.000 OA
ATOM     24  C   UNL     1     110.813 128.367 136.921  0.00  0.00    +0.000 C 
ENDBRANCH   6  23
BRANCH   8  25
ATOM     25  O   UNL     1     110.446 125.889 134.858  0.00  0.00    +0.000 OA
ATOM     26  C   UNL     1     109.626 125.799 134.846  0.00  0.00    +0.000 C 
ENDBRANCH   8  25
BRANCH   9  27
ATOM     27  O   UNL     1     110.673 127.485 135.211  0.00  0.00    +0.000 OA
ATOM     28  C   UNL     1     111.172 127.766 134.618  0.00  0.00    +0.000 C 
ENDBRANCH   9  27
TORSDOF 6
ENDMDL
MODEL 8
REMARK VINA RESULT:      -6.9      9.019     11.774
REMARK  Name = 183466
REMARK  6 active torsions:
REMARK  status: ('A' for Active; 'I' for Inactive)
REMARK    1  A    between atoms: O_2  and  C_11
REMARK    2  A    between atoms: O_3  and  C_12
REMARK    3  A    between atoms: O_4  and  C_14
REMARK    4  A    between atoms: O_5  and  C_15
REMARK    5  A    between atoms: O_7  and  C_23
REMARK    6  A    between atoms: C_13  and  C_18
REMARK                            x       y       z     vdW  Elec       q    Type
REMARK                         _______ _______ _______ _____ _____    ______ ____
ROOT
ATOM      1  O   UNL     1     111.337 127.778 136.475  0.00  0.00    +0.000 OA
ATOM      2  O   UNL     1     111.157 125.554 135.278  0.00  0.00    +0.000 OA
ATOM      3  C   UNL     1     111.779 126.393 136.299  0.00  0.00    +0.000 A 
ATOM      4  C   UNL     1     111.840 127.116 136.690  0.00  0.00    +0.000 A 
ATOM      5  C   UNL     1     112.269 125.764 136.515  0.00  0.00    +0.000 A 
ATOM      6  C   UNL     1     112.390 127.211 137.298  0.00  0.00    +0.000 A 
ATOM      7  C   UNL     1     110.762 127.685 135.842  0.00  0.00    +0.000 A 
ATOM      8  C   UNL     1     112.818 125.860 137.123  0.00  0.00    +0.000 A 
ATOM      9  C   UNL     1     112.879 126.583 137.514  0.00  0.00    +0.000 A 
ATOM     10  C   UNL     1     111.211 126.281 135.664  0.00  0.00    +0.000 A 
ATOM     11  C   UNL     1     110.699 126.932 135.434  0.00  0.00    +0.000 A 
ENDROOT
BRANCH   7  13
ATOM     12  O   UNL     1     108.261 129.055 136.036  0.00  0.00    +0.000 OA
ATOM     13  C   UNL     1     110.274 128.315 135.628  0.00  0.00    +0.000 A 
ATOM     14  C   UNL     1     109.512 128.371 135.939  0.00  0.00    +0.000 A 
ATOM     15  C   UNL     1     110.548 128.890 135.103  0.00  0.00    +0.000 A 
ATOM     16  C   UNL     1     109.023 129.000 135.725  0.00  0.00    +0.000 A 
ATOM     17  C   UNL     1     110.060 129.520 134.889  0.00  0.00    +0.000 A 
ATOM     18  C   UNL     1     109.298 129.575 135.200  0.00  0.00    +0.000 A 
BRANCH  18  19
ATOM     19  O   UNL     1     108.810 130.204 134.986  0.00  0.00    +0.000 OA
ATOM     20  C   UNL     1     109.131 130.866 134.612  0.00  0.00    +0.000 C 
ENDBRANCH  18  19
ENDBRANCH   7  13
BRANCH   5  21
ATOM     21  O   UNL     1     112.208 125.040 136.123  0.00  0.00    +0.000 OA
ATOM     22  C   UNL     1     111.527 124.583 136.205  0.00  0.00    +0.000 C 
ENDBRANCH   5  21
BRANCH   6  23
ATOM     23  O   UNL     1     112.451 127.935 137.690  0.00  0.00    +0.000 OA
ATOM     24  C   UNL     1     113.058 128.459 137.498  0.00  0.00    +0.000 C 
ENDBRANCH   6  23
BRANCH   8  25
ATOM     25  O   UNL     1     113.307 125.231 137.339  0.00  0.00    +0.000 OA
ATOM     26  C   UNL     1     114.037 125.131 136.967  0.00  0.00    +0.000 C 
ENDBRANCH   8  25
BRANCH   9  27
ATOM     27  O   UNL     1     113.429 126.678 138.122  0.00  0.00    +0.000 OA
ATOM     28  C   UNL     1     113.216 126.512 138.901  0.00  0.00    +0.000 C 
ENDBRANCH   9  27
TORSDOF 6
ENDMDL
MODEL 9
REMARK VINA RESULT:      -6.9      7.398      9.785
REMARK  Name = 183466
REMARK  6 active torsions:
REMARK  status: ('A' for Active; 'I' for Inactive)
REMARK    1  A    between atoms: O_2  and  C_11
REMARK    2  A    between atoms: O_3  and  C_12
REMARK    3  A    between atoms: O_4  and  C_14
REMARK    4  A    between atoms: O_5  and  C_15
REMARK    5  A    between atoms: O_7  and  C_23
REMARK    6  A    between atoms: C_13  and  C_18
REMARK                            x       y       z     vdW  Elec       q    Type
REMARK                         _______ _______ _______ _____ _____    ______ ____
ROOT
ATOM      1  O   UNL     1     103.830 124.592 146.460  0.00  0.00    +0.000 OA
ATOM      2  O   UNL     1     104.424 124.958 148.894  0.00  0.00    +0.000 OA
ATOM      3  C   UNL     1     103.510 124.437 147.881  0.00  0.00    +0.000 A 
ATOM      4  C   UNL     1     103.314 124.316 147.088  0.00  0.00    +0.000 A 
ATOM      5  C   UNL     1     103.006 124.167 148.476  0.00  0.00    +0.000 A 
ATOM      6  C   UNL     1     102.614 123.926 146.892  0.00  0.00    +0.000 A 
ATOM      7  C   UNL     1     104.561 124.999 146.658  0.00  0.00    +0.000 A 
ATOM      8  C   UNL     1     102.306 123.777 148.279  0.00  0.00    +0.000 A 
ATOM      9  C   UNL     1     102.110 123.656 147.487  0.00  0.00    +0.000 A 
ATOM     10  C   UNL     1     104.235 124.841 148.099  0.00  0.00    +0.000 A 
ATOM     11  C   UNL     1     104.765 125.124 147.483  0.00  0.00    +0.000 A 
ENDROOT
BRANCH   7  13
ATOM     12  O   UNL     1     106.495 124.461 144.624  0.00  0.00    +0.000 OA
ATOM     13  C   UNL     1     105.063 125.267 146.061  0.00  0.00    +0.000 A 
ATOM     14  C   UNL     1     105.528 124.731 145.641  0.00  0.00    +0.000 A 
ATOM     15  C   UNL     1     105.100 126.071 145.884  0.00  0.00    +0.000 A 
ATOM     16  C   UNL     1     106.030 124.997 145.044  0.00  0.00    +0.000 A 
ATOM     17  C   UNL     1     105.602 126.340 145.286  0.00  0.00    +0.000 A 
ATOM     18  C   UNL     1     106.067 125.803 144.866  0.00  0.00    +0.000 A 
BRANCH  18  19
ATOM     19  O   UNL     1     106.569 126.071 144.270  0.00  0.00    +0.000 OA
ATOM     20  C   UNL     1     106.626 126.878 144.111  0.00  0.00    +0.000 C 
ENDBRANCH  18  19
ENDBRANCH   7  13
BRANCH   5  21
ATOM     21  O   UNL     1     103.202 124.288 149.269  0.00  0.00    +0.000 OA
ATOM     22  C   UNL     1     103.243 125.054 149.571  0.00  0.00    +0.000 C 
ENDBRANCH   5  21
BRANCH   6  23
ATOM     23  O   UNL     1     102.418 123.805 146.100  0.00  0.00    +0.000 OA
ATOM     24  C   UNL     1     102.539 123.067 145.752  0.00  0.00    +0.000 C 
ENDBRANCH   6  23
BRANCH   8  25
ATOM     25  O   UNL     1     101.802 123.508 148.875  0.00  0.00    +0.000 OA
ATOM     26  C   UNL     1     101.881 122.739 149.164  0.00  0.00    +0.000 C 
ENDBRANCH   8  25
BRANCH   9  27
ATOM     27  O   UNL     1     101.410 123.266 147.290  0.00  0.00    +0.000 OA
ATOM     28  C   UNL     1     100.710 123.693 147.204  0.00  0.00    +0.000 C 
ENDBRANCH   9  27
TORSDOF 6
ENDMDL
MODEL 10
REMARK VINA RESULT:      -6.9      5.783      8.433
REMARK  Name = 183466
REMARK  6 active torsions:
REMARK  status: ('A' for Active; 'I' for Inactive)
REMARK    1  A    between atoms: O_2  and  C_11
REMARK    2  A    between atoms: O_3  and  C_12
REMARK    3  A    between atoms: O_4  and  C_14
REMARK    4  A    between atoms: O_5  and  C_15
REMARK    5  A    between atoms: O_7  and  C_23
REMARK    6  A    between atoms: C_13  and  C_18
REMARK                            x       y       z     vdW  Elec       q    Type
REMARK                         _______ _______ _______ _____ _____    ______ ____
ROOT
ATOM      1  O   UNL     1     106.717 126.328 145.913  0.00  0.00    +0.000 OA
ATOM      2  O   UNL     1     105.433 124.764 144.392  0.00  0.00    +0.000 OA
ATOM      3  C   UNL     1     106.123 126.033 144.607  0.00  0.00    +0.000 A 
ATOM      4  C   UNL     1     106.542 126.544 145.100  0.00  0.00    +0.000 A 
ATOM      5  C   UNL     1     105.961 126.251 143.827  0.00  0.00    +0.000 A 
ATOM      6  C   UNL     1     106.799 127.275 144.814  0.00  0.00    +0.000 A 
ATOM      7  C   UNL     1     106.453 125.569 146.216  0.00  0.00    +0.000 A 
ATOM      8  C   UNL     1     106.218 126.982 143.543  0.00  0.00    +0.000 A 
ATOM      9  C   UNL     1     106.637 127.493 144.036  0.00  0.00    +0.000 A 
ATOM     10  C   UNL     1     105.851 125.270 144.892  0.00  0.00    +0.000 A 
ATOM     11  C   UNL     1     106.016 125.036 145.703  0.00  0.00    +0.000 A 
ENDROOT
BRANCH   7  13
ATOM     12  O   UNL     1     105.565 125.104 148.893  0.00  0.00    +0.000 OA
ATOM     13  C   UNL     1     106.616 125.352 146.996  0.00  0.00    +0.000 A 
ATOM     14  C   UNL     1     106.010 125.336 147.555  0.00  0.00    +0.000 A 
ATOM     15  C   UNL     1     107.385 125.153 147.216  0.00  0.00    +0.000 A 
ATOM     16  C   UNL     1     106.172 125.120 148.334  0.00  0.00    +0.000 A 
ATOM     17  C   UNL     1     107.548 124.936 147.995  0.00  0.00    +0.000 A 
ATOM     18  C   UNL     1     106.942 124.920 148.555  0.00  0.00    +0.000 A 
BRANCH  18  19
ATOM     19  O   UNL     1     107.105 124.704 149.333  0.00  0.00    +0.000 OA
ATOM     20  C   UNL     1     107.853 124.419 149.534  0.00  0.00    +0.000 C 
ENDBRANCH  18  19
ENDBRANCH   7  13
BRANCH   5  21
ATOM     21  O   UNL     1     105.542 125.740 143.334  0.00  0.00    +0.000 OA
ATOM     22  C   UNL     1     105.883 125.028 143.094  0.00  0.00    +0.000 C 
ENDBRANCH   5  21
BRANCH   6  23
ATOM     23  O   UNL     1     107.218 127.786 145.308  0.00  0.00    +0.000 OA
ATOM     24  C   UNL     1     106.831 128.418 145.671  0.00  0.00    +0.000 C 
ENDBRANCH   6  23
BRANCH   8  25
ATOM     25  O   UNL     1     106.056 127.200 142.763  0.00  0.00    +0.000 OA
ATOM     26  C   UNL     1     105.366 127.618 142.588  0.00  0.00    +0.000 C 
ENDBRANCH   8  25
BRANCH   9  27
ATOM     27  O   UNL     1     106.893 128.224 143.750  0.00  0.00    +0.000 OA
ATOM     28  C   UNL     1     107.629 128.288 143.384  0.00  0.00    +0.000 C 
ENDBRANCH   9  27
TORSDOF 6
ENDMDL
