MODEL 1
REMARK VINA RESULT:      -9.5      0.000      0.000
REMARK  Name = 131834894
REMARK  5 active torsions:
REMARK  status: ('A' for Active; 'I' for Inactive)
REMARK    1  A    between atoms: O_6  and  C_21
REMARK    2  A    between atoms: O_11  and  C_34
REMARK    3  A    between atoms: C_15  and  C_18
REMARK    4  A    between atoms: C_17  and  C_19
REMARK    5  A    between atoms: C_26  and  C_29
REMARK                            x       y       z     vdW  Elec       q    Type
REMARK                         _______ _______ _______ _____ _____    ______ ____
ROOT
ATOM      1  O   UNL     1     106.066 124.461 141.649  0.00  0.00    +0.000 OA
ATOM      2  O   UNL     1     104.198 124.973 139.500  0.00  0.00    +0.000 OA
ATOM      3  O   UNL     1     105.638 123.362 140.819  0.00  0.00    +0.000 OA
ATOM      4  C   UNL     1     105.584 125.788 141.427  0.00  0.00    +0.000 A 
ATOM      5  C   UNL     1     105.598 124.989 141.221  0.00  0.00    +0.000 A 
ATOM      6  C   UNL     1     105.116 126.315 140.999  0.00  0.00    +0.000 A 
ATOM      7  C   UNL     1     105.144 124.717 140.589  0.00  0.00    +0.000 A 
ATOM      8  C   UNL     1     104.661 126.043 140.365  0.00  0.00    +0.000 A 
ATOM      9  C   UNL     1     104.676 125.244 140.161  0.00  0.00    +0.000 A 
ATOM     10  C   UNL     1     105.167 123.882 140.385  0.00  0.00    +0.000 A 
ATOM     11  C   UNL     1     104.209 124.142 139.282  0.00  0.00    +0.000 A 
ATOM     12  C   UNL     1     104.696 123.593 139.728  0.00  0.00    +0.000 A 
ENDROOT
BRANCH   4  19
ATOM     13  O   UNL     1     105.717 126.082 142.819  0.00  0.00    +0.000 OA
ATOM     14  O   UNL     1     107.136 126.287 141.173  0.00  0.00    +0.000 OA
ATOM     15  O   UNL     1     108.045 126.831 142.439  0.00  0.00    +0.000 OA
ATOM     16  O   UNL     1     107.401 126.876 143.956  0.00  0.00    +0.000 OA
ATOM     17  C   UNL     1     106.814 126.309 141.932  0.00  0.00    +0.000 C 
ATOM     18  C   UNL     1     107.269 126.581 142.565  0.00  0.00    +0.000 C 
ATOM     19  C   UNL     1     106.038 126.060 142.059  0.00  0.00    +0.000 C 
ATOM     20  C   UNL     1     106.947 126.604 143.324  0.00  0.00    +0.000 C 
ATOM     21  C   UNL     1     106.170 126.354 143.451  0.00  0.00    +0.000 C 
BRANCH  21  23
ATOM     22  O   UNL     1     105.253 125.847 144.422  0.00  0.00    +0.000 OA
ATOM     23  C   UNL     1     105.849 126.376 144.210  0.00  0.00    +0.000 C 
ENDBRANCH  21  23
ENDBRANCH   4  19
BRANCH  11  26
ATOM     24  O   UNL     1     104.934 123.727 137.860  0.00  0.00    +0.000 OA
ATOM     25  O   UNL     1     101.658 123.484 138.172  0.00  0.00    +0.000 OA
ATOM     26  C   UNL     1     103.753 123.874 138.648  0.00  0.00    +0.000 A 
ATOM     27  C   UNL     1     104.116 123.666 137.937  0.00  0.00    +0.000 A 
ATOM     28  C   UNL     1     102.934 123.813 138.726  0.00  0.00    +0.000 A 
ATOM     29  C   UNL     1     102.477 123.545 138.094  0.00  0.00    +0.000 A 
ATOM     30  C   UNL     1     103.660 123.398 137.304  0.00  0.00    +0.000 A 
ATOM     31  C   UNL     1     102.840 123.337 137.382  0.00  0.00    +0.000 A 
BRANCH  31  32
ATOM     32  O   UNL     1     102.384 123.069 136.749  0.00  0.00    +0.000 OA
ATOM     33  C   UNL     1     102.739 122.919 136.019  0.00  0.00    +0.000 C 
ENDBRANCH  31  32
ENDBRANCH  11  26
BRANCH   6  34
ATOM     34  O   UNL     1     105.101 127.114 141.203  0.00  0.00    +0.000 OA
ATOM     35  C   UNL     1     104.483 127.595 140.945  0.00  0.00    +0.000 C 
ENDBRANCH   6  34
TORSDOF 5
ENDMDL
MODEL 2
REMARK VINA RESULT:      -9.5      8.008      9.190
REMARK  Name = 131834894
REMARK  5 active torsions:
REMARK  status: ('A' for Active; 'I' for Inactive)
REMARK    1  A    between atoms: O_6  and  C_21
REMARK    2  A    between atoms: O_11  and  C_34
REMARK    3  A    between atoms: C_15  and  C_18
REMARK    4  A    between atoms: C_17  and  C_19
REMARK    5  A    between atoms: C_26  and  C_29
REMARK                            x       y       z     vdW  Elec       q    Type
REMARK                         _______ _______ _______ _____ _____    ______ ____
ROOT
ATOM      1  O   UNL     1     114.163 128.373 140.986  0.00  0.00    +0.000 OA
ATOM      2  O   UNL     1     113.070 127.381 138.497  0.00  0.00    +0.000 OA
ATOM      3  O   UNL     1     114.323 126.977 140.660  0.00  0.00    +0.000 OA
ATOM      4  C   UNL     1     113.479 129.264 140.104  0.00  0.00    +0.000 A 
ATOM      5  C   UNL     1     113.755 128.507 140.282  0.00  0.00    +0.000 A 
ATOM      6  C   UNL     1     113.070 129.399 139.400  0.00  0.00    +0.000 A 
ATOM      7  C   UNL     1     113.622 127.886 139.757  0.00  0.00    +0.000 A 
ATOM      8  C   UNL     1     112.937 128.777 138.874  0.00  0.00    +0.000 A 
ATOM      9  C   UNL     1     113.214 128.020 139.053  0.00  0.00    +0.000 A 
ATOM     10  C   UNL     1     113.915 127.102 139.954  0.00  0.00    +0.000 A 
ATOM     11  C   UNL     1     113.355 126.591 138.677  0.00  0.00    +0.000 A 
ATOM     12  C   UNL     1     113.780 126.450 139.410  0.00  0.00    +0.000 A 
ENDROOT
BRANCH   4  19
ATOM     13  O   UNL     1     113.058 130.054 141.218  0.00  0.00    +0.000 OA
ATOM     14  O   UNL     1     114.850 130.174 139.977  0.00  0.00    +0.000 OA
ATOM     15  O   UNL     1     115.115 131.418 141.028  0.00  0.00    +0.000 OA
ATOM     16  O   UNL     1     114.009 131.752 142.205  0.00  0.00    +0.000 OA
ATOM     17  C   UNL     1     114.296 130.341 140.566  0.00  0.00    +0.000 C 
ATOM     18  C   UNL     1     114.429 130.963 141.092  0.00  0.00    +0.000 C 
ATOM     19  C   UNL     1     113.611 129.886 140.629  0.00  0.00    +0.000 C 
ATOM     20  C   UNL     1     113.876 131.130 141.680  0.00  0.00    +0.000 C 
ATOM     21  C   UNL     1     113.190 130.676 141.743  0.00  0.00    +0.000 C 
BRANCH  21  23
ATOM     22  O   UNL     1     112.087 130.271 142.557  0.00  0.00    +0.000 OA
ATOM     23  C   UNL     1     112.638 130.843 142.332  0.00  0.00    +0.000 C 
ENDBRANCH  21  23
ENDBRANCH   4  19
BRANCH  11  26
ATOM     24  O   UNL     1     111.966 125.705 138.778  0.00  0.00    +0.000 OA
ATOM     25  O   UNL     1     114.209 124.998 136.463  0.00  0.00    +0.000 OA
ATOM     26  C   UNL     1     113.220 125.971 138.149  0.00  0.00    +0.000 A 
ATOM     27  C   UNL     1     112.526 125.528 138.200  0.00  0.00    +0.000 A 
ATOM     28  C   UNL     1     113.781 125.794 137.570  0.00  0.00    +0.000 A 
ATOM     29  C   UNL     1     113.648 125.175 137.042  0.00  0.00    +0.000 A 
ATOM     30  C   UNL     1     112.393 124.908 137.671  0.00  0.00    +0.000 A 
ATOM     31  C   UNL     1     112.954 124.732 137.092  0.00  0.00    +0.000 A 
BRANCH  31  32
ATOM     32  O   UNL     1     112.820 124.112 136.564  0.00  0.00    +0.000 OA
ATOM     33  C   UNL     1     112.091 123.724 136.559  0.00  0.00    +0.000 C 
ENDBRANCH  31  32
ENDBRANCH  11  26
BRANCH   6  34
ATOM     34  O   UNL     1     112.794 130.155 139.221  0.00  0.00    +0.000 OA
ATOM     35  C   UNL     1     112.303 130.272 138.569  0.00  0.00    +0.000 C 
ENDBRANCH   6  34
TORSDOF 5
ENDMDL
MODEL 3
REMARK VINA RESULT:      -9.3      8.148     10.469
REMARK  Name = 131834894
REMARK  5 active torsions:
REMARK  status: ('A' for Active; 'I' for Inactive)
REMARK    1  A    between atoms: O_6  and  C_21
REMARK    2  A    between atoms: O_11  and  C_34
REMARK    3  A    between atoms: C_15  and  C_18
REMARK    4  A    between atoms: C_17  and  C_19
REMARK    5  A    between atoms: C_26  and  C_29
REMARK                            x       y       z     vdW  Elec       q    Type
REMARK                         _______ _______ _______ _____ _____    ______ ____
ROOT
ATOM      1  O   UNL     1     113.894 126.155 139.416  0.00  0.00    +0.000 OA
ATOM      2  O   UNL     1     113.110 128.921 139.743  0.00  0.00    +0.000 OA
ATOM      3  O   UNL     1     114.194 126.823 140.658  0.00  0.00    +0.000 OA
ATOM      4  C   UNL     1     113.220 126.833 138.354  0.00  0.00    +0.000 A 
ATOM      5  C   UNL     1     113.540 126.836 139.115  0.00  0.00    +0.000 A 
ATOM      6  C   UNL     1     112.866 127.515 138.053  0.00  0.00    +0.000 A 
ATOM      7  C   UNL     1     113.506 127.520 139.574  0.00  0.00    +0.000 A 
ATOM      8  C   UNL     1     112.832 128.200 138.513  0.00  0.00    +0.000 A 
ATOM      9  C   UNL     1     113.152 128.202 139.274  0.00  0.00    +0.000 A 
ATOM     10  C   UNL     1     113.842 127.510 140.365  0.00  0.00    +0.000 A 
ATOM     11  C   UNL     1     113.441 128.929 140.535  0.00  0.00    +0.000 A 
ATOM     12  C   UNL     1     113.810 128.220 140.849  0.00  0.00    +0.000 A 
ENDROOT
BRANCH   4  19
ATOM     13  O   UNL     1     113.909 126.007 137.413  0.00  0.00    +0.000 OA
ATOM     14  O   UNL     1     111.978 125.748 138.397  0.00  0.00    +0.000 OA
ATOM     15  O   UNL     1     112.046 124.380 137.477  0.00  0.00    +0.000 OA
ATOM     16  O   UNL     1     113.355 124.097 136.516  0.00  0.00    +0.000 OA
ATOM     17  C   UNL     1     112.633 125.607 137.916  0.00  0.00    +0.000 C 
ATOM     18  C   UNL     1     112.667 124.922 137.456  0.00  0.00    +0.000 C 
ATOM     19  C   UNL     1     113.254 126.150 137.895  0.00  0.00    +0.000 C 
ATOM     20  C   UNL     1     113.322 124.781 136.975  0.00  0.00    +0.000 C 
ATOM     21  C   UNL     1     113.943 125.324 136.954  0.00  0.00    +0.000 C 
BRANCH  21  23
ATOM     22  O   UNL     1     115.003 125.813 136.130  0.00  0.00    +0.000 OA
ATOM     23  C   UNL     1     114.598 125.182 136.473  0.00  0.00    +0.000 C 
ENDBRANCH  21  23
ENDBRANCH   4  19
BRANCH  11  26
ATOM     24  O   UNL     1     112.168 129.177 141.555  0.00  0.00    +0.000 OA
ATOM     25  O   UNL     1     114.573 131.427 141.342  0.00  0.00    +0.000 OA
ATOM     26  C   UNL     1     113.406 129.616 140.993  0.00  0.00    +0.000 A 
ATOM     27  C   UNL     1     112.769 129.740 141.502  0.00  0.00    +0.000 A 
ATOM     28  C   UNL     1     114.007 130.178 140.939  0.00  0.00    +0.000 A 
ATOM     29  C   UNL     1     113.972 130.864 141.396  0.00  0.00    +0.000 A 
ATOM     30  C   UNL     1     112.734 130.426 141.959  0.00  0.00    +0.000 A 
ATOM     31  C   UNL     1     113.335 130.988 141.906  0.00  0.00    +0.000 A 
BRANCH  31  32
ATOM     32  O   UNL     1     113.300 131.675 142.362  0.00  0.00    +0.000 OA
ATOM     33  C   UNL     1     112.714 131.758 142.938  0.00  0.00    +0.000 C 
ENDBRANCH  31  32
ENDBRANCH  11  26
BRANCH   6  34
ATOM     34  O   UNL     1     112.546 127.513 137.293  0.00  0.00    +0.000 OA
ATOM     35  C   UNL     1     112.287 128.218 136.953  0.00  0.00    +0.000 C 
ENDBRANCH   6  34
TORSDOF 5
ENDMDL
MODEL 4
REMARK VINA RESULT:      -9.1      3.661      5.774
REMARK  Name = 131834894
REMARK  5 active torsions:
REMARK  status: ('A' for Active; 'I' for Inactive)
REMARK    1  A    between atoms: O_6  and  C_21
REMARK    2  A    between atoms: O_11  and  C_34
REMARK    3  A    between atoms: C_15  and  C_18
REMARK    4  A    between atoms: C_17  and  C_19
REMARK    5  A    between atoms: C_26  and  C_29
REMARK                            x       y       z     vdW  Elec       q    Type
REMARK                         _______ _______ _______ _____ _____    ______ ____
ROOT
ATOM      1  O   UNL     1     104.673 127.432 141.101  0.00  0.00    +0.000 OA
ATOM      2  O   UNL     1     103.865 129.944 142.290  0.00  0.00    +0.000 OA
ATOM      3  O   UNL     1     103.675 128.232 140.434  0.00  0.00    +0.000 OA
ATOM      4  C   UNL     1     105.263 127.860 142.331  0.00  0.00    +0.000 A 
ATOM      5  C   UNL     1     104.737 127.988 141.708  0.00  0.00    +0.000 A 
ATOM      6  C   UNL     1     105.327 128.416 142.937  0.00  0.00    +0.000 A 
ATOM      7  C   UNL     1     104.276 128.671 141.690  0.00  0.00    +0.000 A 
ATOM      8  C   UNL     1     104.865 129.100 142.920  0.00  0.00    +0.000 A 
ATOM      9  C   UNL     1     104.340 129.227 142.297  0.00  0.00    +0.000 A 
ATOM     10  C   UNL     1     103.732 128.793 141.036  0.00  0.00    +0.000 A 
ATOM     11  C   UNL     1     103.316 130.082 141.644  0.00  0.00    +0.000 A 
ATOM     12  C   UNL     1     103.249 129.503 141.013  0.00  0.00    +0.000 A 
ENDROOT
BRANCH   4  19
ATOM     13  O   UNL     1     105.451 126.504 142.740  0.00  0.00    +0.000 OA
ATOM     14  O   UNL     1     106.732 127.838 141.580  0.00  0.00    +0.000 OA
ATOM     15  O   UNL     1     107.655 126.470 141.615  0.00  0.00    +0.000 OA
ATOM     16  O   UNL     1     107.109 125.126 142.399  0.00  0.00    +0.000 OA
ATOM     17  C   UNL     1     106.458 127.166 141.973  0.00  0.00    +0.000 C 
ATOM     18  C   UNL     1     106.920 126.482 141.990  0.00  0.00    +0.000 C 
ATOM     19  C   UNL     1     105.724 127.177 142.348  0.00  0.00    +0.000 C 
ATOM     20  C   UNL     1     106.647 125.809 142.382  0.00  0.00    +0.000 C 
ATOM     21  C   UNL     1     105.912 125.821 142.757  0.00  0.00    +0.000 C 
BRANCH  21  23
ATOM     22  O   UNL     1     105.241 125.222 143.868  0.00  0.00    +0.000 OA
ATOM     23  C   UNL     1     105.639 125.149 143.149  0.00  0.00    +0.000 C 
ENDBRANCH  21  23
ENDBRANCH   4  19
BRANCH  11  26
ATOM     24  O   UNL     1     103.860 131.427 140.858  0.00  0.00    +0.000 OA
ATOM     25  O   UNL     1     100.930 131.476 142.376  0.00  0.00    +0.000 OA
ATOM     26  C   UNL     1     102.856 130.767 141.630  0.00  0.00    +0.000 A 
ATOM     27  C   UNL     1     103.128 131.440 141.237  0.00  0.00    +0.000 A 
ATOM     28  C   UNL     1     102.123 130.779 142.009  0.00  0.00    +0.000 A 
ATOM     29  C   UNL     1     101.663 131.464 141.996  0.00  0.00    +0.000 A 
ATOM     30  C   UNL     1     102.668 132.124 141.224  0.00  0.00    +0.000 A 
ATOM     31  C   UNL     1     101.935 132.136 141.603  0.00  0.00    +0.000 A 
BRANCH  31  32
ATOM     32  O   UNL     1     101.475 132.821 141.590  0.00  0.00    +0.000 OA
ATOM     33  C   UNL     1     101.834 133.558 141.490  0.00  0.00    +0.000 C 
ENDBRANCH  31  32
ENDBRANCH  11  26
BRANCH   6  34
ATOM     34  O   UNL     1     105.852 128.289 143.560  0.00  0.00    +0.000 OA
ATOM     35  C   UNL     1     105.849 128.794 144.212  0.00  0.00    +0.000 C 
ENDBRANCH   6  34
TORSDOF 5
ENDMDL
MODEL 5
REMARK VINA RESULT:      -9.1      7.574      8.904
REMARK  Name = 131834894
REMARK  5 active torsions:
REMARK  status: ('A' for Active; 'I' for Inactive)
REMARK    1  A    between atoms: O_6  and  C_21
REMARK    2  A    between atoms: O_11  and  C_34
REMARK    3  A    between atoms: C_15  and  C_18
REMARK    4  A    between atoms: C_17  and  C_19
REMARK    5  A    between atoms: C_26  and  C_29
REMARK                            x       y       z     vdW  Elec       q    Type
REMARK                         _______ _______ _______ _____ _____    ______ ____
ROOT
ATOM      1  O   UNL     1     112.629 129.101 139.159  0.00  0.00    +0.000 OA
ATOM      2  O   UNL     1     113.099 126.260 138.872  0.00  0.00    +0.000 OA
ATOM      3  O   UNL     1     112.016 128.399 138.058  0.00  0.00    +0.000 OA
ATOM      4  C   UNL     1     113.458 128.418 140.101  0.00  0.00    +0.000 A 
ATOM      5  C   UNL     1     112.983 128.405 139.426  0.00  0.00    +0.000 A 
ATOM      6  C   UNL     1     113.812 127.722 140.369  0.00  0.00    +0.000 A 
ATOM      7  C   UNL     1     112.863 127.698 139.020  0.00  0.00    +0.000 A 
ATOM      8  C   UNL     1     113.692 127.014 139.962  0.00  0.00    +0.000 A 
ATOM      9  C   UNL     1     113.217 127.003 139.287  0.00  0.00    +0.000 A 
ATOM     10  C   UNL     1     112.366 127.699 138.318  0.00  0.00    +0.000 A 
ATOM     11  C   UNL     1     112.606 126.241 138.169  0.00  0.00    +0.000 A 
ATOM     12  C   UNL     1     112.237 126.965 137.890  0.00  0.00    +0.000 A 
ENDROOT
BRANCH   4  19
ATOM     13  O   UNL     1     114.223 129.605 140.320  0.00  0.00    +0.000 OA
ATOM     14  O   UNL     1     112.411 128.873 141.292  0.00  0.00    +0.000 OA
ATOM     15  O   UNL     1     112.652 130.287 142.107  0.00  0.00    +0.000 OA
ATOM     16  O   UNL     1     113.940 131.246 141.730  0.00  0.00    +0.000 OA
ATOM     17  C   UNL     1     113.055 129.352 141.104  0.00  0.00    +0.000 C 
ATOM     18  C   UNL     1     113.176 130.060 141.511  0.00  0.00    +0.000 C 
ATOM     19  C   UNL     1     113.579 129.125 140.508  0.00  0.00    +0.000 C 
ATOM     20  C   UNL     1     113.820 130.539 141.323  0.00  0.00    +0.000 C 
ATOM     21  C   UNL     1     114.344 130.312 140.727  0.00  0.00    +0.000 C 
BRANCH  21  23
ATOM     22  O   UNL     1     115.706 130.450 140.318  0.00  0.00    +0.000 OA
ATOM     23  C   UNL     1     114.987 130.791 140.539  0.00  0.00    +0.000 C 
ENDBRANCH  21  23
ENDBRANCH   4  19
BRANCH  11  26
ATOM     24  O   UNL     1     111.295 125.301 138.516  0.00  0.00    +0.000 OA
ATOM     25  O   UNL     1     113.444 124.345 136.202  0.00  0.00    +0.000 OA
ATOM     26  C   UNL     1     112.487 125.531 137.764  0.00  0.00    +0.000 A 
ATOM     27  C   UNL     1     111.832 125.061 137.937  0.00  0.00    +0.000 A 
ATOM     28  C   UNL     1     113.025 125.293 137.185  0.00  0.00    +0.000 A 
ATOM     29  C   UNL     1     112.907 124.584 136.780  0.00  0.00    +0.000 A 
ATOM     30  C   UNL     1     111.714 124.352 137.532  0.00  0.00    +0.000 A 
ATOM     31  C   UNL     1     112.252 124.113 136.954  0.00  0.00    +0.000 A 
BRANCH  31  32
ATOM     32  O   UNL     1     112.134 123.404 136.549  0.00  0.00    +0.000 OA
ATOM     33  C   UNL     1     111.823 122.749 136.945  0.00  0.00    +0.000 C 
ENDBRANCH  31  32
ENDBRANCH  11  26
BRANCH   6  34
ATOM     34  O   UNL     1     114.287 127.734 141.043  0.00  0.00    +0.000 OA
ATOM     35  C   UNL     1     114.735 127.071 141.244  0.00  0.00    +0.000 C 
ENDBRANCH   6  34
TORSDOF 5
ENDMDL
MODEL 6
REMARK VINA RESULT:      -9.0      7.450      9.003
REMARK  Name = 131834894
REMARK  5 active torsions:
REMARK  status: ('A' for Active; 'I' for Inactive)
REMARK    1  A    between atoms: O_6  and  C_21
REMARK    2  A    between atoms: O_11  and  C_34
REMARK    3  A    between atoms: C_15  and  C_18
REMARK    4  A    between atoms: C_17  and  C_19
REMARK    5  A    between atoms: C_26  and  C_29
REMARK                            x       y       z     vdW  Elec       q    Type
REMARK                         _______ _______ _______ _____ _____    ______ ____
ROOT
ATOM      1  O   UNL     1     110.269 129.539 135.114  0.00  0.00    +0.000 OA
ATOM      2  O   UNL     1     111.376 127.576 136.928  0.00  0.00    +0.000 OA
ATOM      3  O   UNL     1     111.230 128.589 134.612  0.00  0.00    +0.000 OA
ATOM      4  C   UNL     1     109.859 129.525 136.483  0.00  0.00    +0.000 A 
ATOM      5  C   UNL     1     110.314 129.211 135.870  0.00  0.00    +0.000 A 
ATOM      6  C   UNL     1     109.904 129.197 137.238  0.00  0.00    +0.000 A 
ATOM      7  C   UNL     1     110.814 128.571 136.012  0.00  0.00    +0.000 A 
ATOM      8  C   UNL     1     110.405 128.556 137.381  0.00  0.00    +0.000 A 
ATOM      9  C   UNL     1     110.859 128.244 136.768  0.00  0.00    +0.000 A 
ATOM     10  C   UNL     1     111.282 128.254 135.365  0.00  0.00    +0.000 A 
ATOM     11  C   UNL     1     111.852 127.246 136.294  0.00  0.00    +0.000 A 
ATOM     12  C   UNL     1     111.805 127.588 135.507  0.00  0.00    +0.000 A 
ENDROOT
BRANCH   4  19
ATOM     13  O   UNL     1     109.639 130.936 136.431  0.00  0.00    +0.000 OA
ATOM     14  O   UNL     1     108.298 129.264 136.017  0.00  0.00    +0.000 OA
ATOM     15  O   UNL     1     107.297 130.545 135.732  0.00  0.00    +0.000 OA
ATOM     16  O   UNL     1     107.858 132.085 135.913  0.00  0.00    +0.000 OA
ATOM     17  C   UNL     1     108.579 130.035 136.108  0.00  0.00    +0.000 C 
ATOM     18  C   UNL     1     108.078 130.675 135.965  0.00  0.00    +0.000 C 
ATOM     19  C   UNL     1     109.359 130.165 136.340  0.00  0.00    +0.000 C 
ATOM     20  C   UNL     1     108.359 131.446 136.056  0.00  0.00    +0.000 C 
ATOM     21  C   UNL     1     109.139 131.576 136.289  0.00  0.00    +0.000 C 
BRANCH  21  23
ATOM     22  O   UNL     1     110.208 132.478 136.582  0.00  0.00    +0.000 OA
ATOM     23  C   UNL     1     109.419 132.346 136.379  0.00  0.00    +0.000 C 
ENDBRANCH  21  23
ENDBRANCH   4  19
BRANCH  11  26
ATOM     24  O   UNL     1     113.410 127.505 136.771  0.00  0.00    +0.000 OA
ATOM     25  O   UNL     1     112.288 124.424 136.400  0.00  0.00    +0.000 OA
ATOM     26  C   UNL     1     112.351 126.605 136.440  0.00  0.00    +0.000 A 
ATOM     27  C   UNL     1     113.130 126.734 136.679  0.00  0.00    +0.000 A 
ATOM     28  C   UNL     1     112.071 125.835 136.347  0.00  0.00    +0.000 A 
ATOM     29  C   UNL     1     112.569 125.194 136.493  0.00  0.00    +0.000 A 
ATOM     30  C   UNL     1     113.629 126.093 136.825  0.00  0.00    +0.000 A 
ATOM     31  C   UNL     1     113.348 125.323 136.732  0.00  0.00    +0.000 A 
BRANCH  31  32
ATOM     32  O   UNL     1     113.846 124.682 136.878  0.00  0.00    +0.000 OA
ATOM     33  C   UNL     1     114.588 124.805 137.220  0.00  0.00    +0.000 C 
ENDBRANCH  31  32
ENDBRANCH  11  26
BRANCH   6  34
ATOM     34  O   UNL     1     109.450 129.509 137.852  0.00  0.00    +0.000 OA
ATOM     35  C   UNL     1     109.587 129.271 138.630  0.00  0.00    +0.000 C 
ENDBRANCH   6  34
TORSDOF 5
ENDMDL
MODEL 7
REMARK VINA RESULT:      -8.9      8.803     11.906
REMARK  Name = 131834894
REMARK  5 active torsions:
REMARK  status: ('A' for Active; 'I' for Inactive)
REMARK    1  A    between atoms: O_6  and  C_21
REMARK    2  A    between atoms: O_11  and  C_34
REMARK    3  A    between atoms: C_15  and  C_18
REMARK    4  A    between atoms: C_17  and  C_19
REMARK    5  A    between atoms: C_26  and  C_29
REMARK                            x       y       z     vdW  Elec       q    Type
REMARK                         _______ _______ _______ _____ _____    ______ ____
ROOT
ATOM      1  O   UNL     1     112.187 132.528 143.031  0.00  0.00    +0.000 OA
ATOM      2  O   UNL     1     111.694 131.794 145.786  0.00  0.00    +0.000 OA
ATOM      3  O   UNL     1     112.270 133.545 144.050  0.00  0.00    +0.000 OA
ATOM      4  C   UNL     1     111.868 131.175 143.361  0.00  0.00    +0.000 A 
ATOM      5  C   UNL     1     111.999 131.955 143.594  0.00  0.00    +0.000 A 
ATOM      6  C   UNL     1     111.680 130.602 143.924  0.00  0.00    +0.000 A 
ATOM      7  C   UNL     1     111.943 132.163 144.390  0.00  0.00    +0.000 A 
ATOM      8  C   UNL     1     111.624 130.810 144.721  0.00  0.00    +0.000 A 
ATOM      9  C   UNL     1     111.755 131.590 144.954  0.00  0.00    +0.000 A 
ATOM     10  C   UNL     1     112.082 132.979 144.621  0.00  0.00    +0.000 A 
ATOM     11  C   UNL     1     111.830 132.605 146.035  0.00  0.00    +0.000 A 
ATOM     12  C   UNL     1     112.025 133.201 145.449  0.00  0.00    +0.000 A 
ENDROOT
BRANCH   4  19
ATOM     13  O   UNL     1     112.640 130.694 142.258  0.00  0.00    +0.000 OA
ATOM     14  O   UNL     1     110.548 131.304 142.379  0.00  0.00    +0.000 OA
ATOM     15  O   UNL     1     110.660 130.889 140.786  0.00  0.00    +0.000 OA
ATOM     16  O   UNL     1     112.092 130.344 140.175  0.00  0.00    +0.000 OA
ATOM     17  C   UNL     1     111.264 131.032 142.074  0.00  0.00    +0.000 C 
ATOM     18  C   UNL     1     111.320 130.824 141.277  0.00  0.00    +0.000 C 
ATOM     19  C   UNL     1     111.924 130.967 142.565  0.00  0.00    +0.000 C 
ATOM     20  C   UNL     1     112.036 130.552 140.972  0.00  0.00    +0.000 C 
ATOM     21  C   UNL     1     112.696 130.487 141.463  0.00  0.00    +0.000 C 
BRANCH  21  23
ATOM     22  O   UNL     1     114.125 130.524 141.435  0.00  0.00    +0.000 OA
ATOM     23  C   UNL     1     113.412 130.214 141.157  0.00  0.00    +0.000 C 
ENDBRANCH  21  23
ENDBRANCH   4  19
BRANCH  11  26
ATOM     24  O   UNL     1     110.451 133.303 146.613  0.00  0.00    +0.000 OA
ATOM     25  O   UNL     1     112.983 132.722 148.648  0.00  0.00    +0.000 OA
ATOM     26  C   UNL     1     111.773 132.809 146.833  0.00  0.00    +0.000 A 
ATOM     27  C   UNL     1     111.083 133.158 147.122  0.00  0.00    +0.000 A 
ATOM     28  C   UNL     1     112.406 132.664 147.342  0.00  0.00    +0.000 A 
ATOM     29  C   UNL     1     112.349 132.868 148.139  0.00  0.00    +0.000 A 
ATOM     30  C   UNL     1     111.027 133.362 147.919  0.00  0.00    +0.000 A 
ATOM     31  C   UNL     1     111.660 133.216 148.428  0.00  0.00    +0.000 A 
BRANCH  31  32
ATOM     32  O   UNL     1     111.604 133.420 149.225  0.00  0.00    +0.000 OA
ATOM     33  C   UNL     1     110.865 133.576 149.560  0.00  0.00    +0.000 C 
ENDBRANCH  31  32
ENDBRANCH  11  26
BRANCH   6  34
ATOM     34  O   UNL     1     111.549 129.822 143.691  0.00  0.00    +0.000 OA
ATOM     35  C   UNL     1     111.475 129.228 144.260  0.00  0.00    +0.000 C 
ENDBRANCH   6  34
TORSDOF 5
ENDMDL
MODEL 8
REMARK VINA RESULT:      -8.9      4.653      7.166
REMARK  Name = 131834894
REMARK  5 active torsions:
REMARK  status: ('A' for Active; 'I' for Inactive)
REMARK    1  A    between atoms: O_6  and  C_21
REMARK    2  A    between atoms: O_11  and  C_34
REMARK    3  A    between atoms: C_15  and  C_18
REMARK    4  A    between atoms: C_17  and  C_19
REMARK    5  A    between atoms: C_26  and  C_29
REMARK                            x       y       z     vdW  Elec       q    Type
REMARK                         _______ _______ _______ _____ _____    ______ ____
ROOT
ATOM      1  O   UNL     1     105.452 126.467 143.687  0.00  0.00    +0.000 OA
ATOM      2  O   UNL     1     106.460 126.678 146.392  0.00  0.00    +0.000 OA
ATOM      3  O   UNL     1     105.473 125.289 144.519  0.00  0.00    +0.000 OA
ATOM      4  C   UNL     1     105.919 127.726 144.177  0.00  0.00    +0.000 A 
ATOM      5  C   UNL     1     105.774 126.923 144.296  0.00  0.00    +0.000 A 
ATOM      6  C   UNL     1     106.240 128.181 144.785  0.00  0.00    +0.000 A 
ATOM      7  C   UNL     1     105.950 126.574 145.022  0.00  0.00    +0.000 A 
ATOM      8  C   UNL     1     106.417 127.833 145.512  0.00  0.00    +0.000 A 
ATOM      9  C   UNL     1     106.272 127.030 145.630  0.00  0.00    +0.000 A 
ATOM     10  C   UNL     1     105.795 125.736 145.133  0.00  0.00    +0.000 A 
ATOM     11  C   UNL     1     106.311 125.842 146.521  0.00  0.00    +0.000 A 
ATOM     12  C   UNL     1     105.977 125.368 145.888  0.00  0.00    +0.000 A 
ENDROOT
BRANCH   4  19
ATOM     13  O   UNL     1     105.003 128.418 143.326  0.00  0.00    +0.000 OA
ATOM     14  O   UNL     1     107.045 127.735 142.971  0.00  0.00    +0.000 OA
ATOM     15  O   UNL     1     106.693 128.432 141.518  0.00  0.00    +0.000 OA
ATOM     16  O   UNL     1     105.214 129.119 141.270  0.00  0.00    +0.000 OA
ATOM     17  C   UNL     1     106.306 128.079 142.848  0.00  0.00    +0.000 C 
ATOM     18  C   UNL     1     106.129 128.428 142.120  0.00  0.00    +0.000 C 
ATOM     19  C   UNL     1     105.742 128.074 143.450  0.00  0.00    +0.000 C 
ATOM     20  C   UNL     1     105.390 128.771 141.997  0.00  0.00    +0.000 C 
ATOM     21  C   UNL     1     104.826 128.766 142.600  0.00  0.00    +0.000 C 
BRANCH  21  23
ATOM     22  O   UNL     1     103.711 129.514 143.089  0.00  0.00    +0.000 OA
ATOM     23  C   UNL     1     104.087 129.110 142.475  0.00  0.00    +0.000 C 
ENDBRANCH  21  23
ENDBRANCH   4  19
BRANCH  11  26
ATOM     24  O   UNL     1     107.855 125.365 146.854  0.00  0.00    +0.000 OA
ATOM     25  O   UNL     1     105.476 124.940 149.101  0.00  0.00    +0.000 OA
ATOM     26  C   UNL     1     106.489 125.497 147.250  0.00  0.00    +0.000 A 
ATOM     27  C   UNL     1     107.261 125.259 147.416  0.00  0.00    +0.000 A 
ATOM     28  C   UNL     1     105.894 125.391 147.811  0.00  0.00    +0.000 A 
ATOM     29  C   UNL     1     106.071 125.046 148.539  0.00  0.00    +0.000 A 
ATOM     30  C   UNL     1     107.438 124.914 148.144  0.00  0.00    +0.000 A 
ATOM     31  C   UNL     1     106.843 124.807 148.706  0.00  0.00    +0.000 A 
BRANCH  31  32
ATOM     32  O   UNL     1     107.020 124.463 149.434  0.00  0.00    +0.000 OA
ATOM     33  C   UNL     1     107.796 124.239 149.607  0.00  0.00    +0.000 C 
ENDBRANCH  31  32
ENDBRANCH  11  26
BRANCH   6  34
ATOM     34  O   UNL     1     106.385 128.985 144.667  0.00  0.00    +0.000 OA
ATOM     35  C   UNL     1     106.692 129.443 145.280  0.00  0.00    +0.000 C 
ENDBRANCH   6  34
TORSDOF 5
ENDMDL
MODEL 9
REMARK VINA RESULT:      -8.8      4.024      6.602
REMARK  Name = 131834894
REMARK  5 active torsions:
REMARK  status: ('A' for Active; 'I' for Inactive)
REMARK    1  A    between atoms: O_6  and  C_21
REMARK    2  A    between atoms: O_11  and  C_34
REMARK    3  A    between atoms: C_15  and  C_18
REMARK    4  A    between atoms: C_17  and  C_19
REMARK    5  A    between atoms: C_26  and  C_29
REMARK                            x       y       z     vdW  Elec       q    Type
REMARK                         _______ _______ _______ _____ _____    ______ ____
ROOT
ATOM      1  O   UNL     1     106.564 125.477 143.835  0.00  0.00    +0.000 OA
ATOM      2  O   UNL     1     104.928 126.080 146.145  0.00  0.00    +0.000 OA
ATOM      3  O   UNL     1     106.252 124.420 144.765  0.00  0.00    +0.000 OA
ATOM      4  C   UNL     1     106.081 126.806 144.037  0.00  0.00    +0.000 A 
ATOM      5  C   UNL     1     106.133 126.020 144.282  0.00  0.00    +0.000 A 
ATOM      6  C   UNL     1     105.650 127.349 144.484  0.00  0.00    +0.000 A 
ATOM      7  C   UNL     1     105.756 125.777 144.974  0.00  0.00    +0.000 A 
ATOM      8  C   UNL     1     105.273 127.107 145.177  0.00  0.00    +0.000 A 
ATOM      9  C   UNL     1     105.326 126.321 145.421  0.00  0.00    +0.000 A 
ATOM     10  C   UNL     1     105.819 124.956 145.219  0.00  0.00    +0.000 A 
ATOM     11  C   UNL     1     104.980 125.263 146.405  0.00  0.00    +0.000 A 
ATOM     12  C   UNL     1     105.428 124.697 145.939  0.00  0.00    +0.000 A 
ENDROOT
BRANCH   4  19
ATOM     13  O   UNL     1     107.231 127.337 143.374  0.00  0.00    +0.000 OA
ATOM     14  O   UNL     1     105.290 126.716 142.591  0.00  0.00    +0.000 OA
ATOM     15  O   UNL     1     106.044 127.202 141.207  0.00  0.00    +0.000 OA
ATOM     16  O   UNL     1     107.589 127.777 141.267  0.00  0.00    +0.000 OA
ATOM     17  C   UNL     1     106.062 127.004 142.622  0.00  0.00    +0.000 C 
ATOM     18  C   UNL     1     106.440 127.247 141.929  0.00  0.00    +0.000 C 
ATOM     19  C   UNL     1     106.458 127.049 143.345  0.00  0.00    +0.000 C 
ATOM     20  C   UNL     1     107.212 127.534 141.960  0.00  0.00    +0.000 C 
ATOM     21  C   UNL     1     107.607 127.579 142.683  0.00  0.00    +0.000 C 
BRANCH  21  23
ATOM     22  O   UNL     1     108.669 128.201 143.409  0.00  0.00    +0.000 OA
ATOM     23  C   UNL     1     108.379 127.867 142.713  0.00  0.00    +0.000 C 
ENDBRANCH  21  23
ENDBRANCH   4  19
BRANCH  11  26
ATOM     24  O   UNL     1     103.435 124.687 146.346  0.00  0.00    +0.000 OA
ATOM     25  O   UNL     1     105.013 124.883 149.237  0.00  0.00    +0.000 OA
ATOM     26  C   UNL     1     104.601 125.024 147.098  0.00  0.00    +0.000 A 
ATOM     27  C   UNL     1     103.829 124.736 147.069  0.00  0.00    +0.000 A 
ATOM     28  C   UNL     1     104.996 125.073 147.821  0.00  0.00    +0.000 A 
ATOM     29  C   UNL     1     104.618 124.834 148.514  0.00  0.00    +0.000 A 
ATOM     30  C   UNL     1     103.451 124.497 147.762  0.00  0.00    +0.000 A 
ATOM     31  C   UNL     1     103.845 124.546 148.485  0.00  0.00    +0.000 A 
BRANCH  31  32
ATOM     32  O   UNL     1     103.468 124.307 149.178  0.00  0.00    +0.000 OA
ATOM     33  C   UNL     1     102.691 124.027 149.150  0.00  0.00    +0.000 C 
ENDBRANCH  31  32
ENDBRANCH  11  26
BRANCH   6  34
ATOM     34  O   UNL     1     105.597 128.135 144.240  0.00  0.00    +0.000 OA
ATOM     35  C   UNL     1     105.251 128.699 144.733  0.00  0.00    +0.000 C 
ENDBRANCH   6  34
TORSDOF 5
ENDMDL
MODEL 10
REMARK VINA RESULT:      -8.7      7.787      9.586
REMARK  Name = 131834894
REMARK  5 active torsions:
REMARK  status: ('A' for Active; 'I' for Inactive)
REMARK    1  A    between atoms: O_6  and  C_21
REMARK    2  A    between atoms: O_11  and  C_34
REMARK    3  A    between atoms: C_15  and  C_18
REMARK    4  A    between atoms: C_17  and  C_19
REMARK    5  A    between atoms: C_26  and  C_29
REMARK                            x       y       z     vdW  Elec       q    Type
REMARK                         _______ _______ _______ _____ _____    ______ ____
ROOT
ATOM      1  O   UNL     1     113.130 127.209 136.001  0.00  0.00    +0.000 OA
ATOM      2  O   UNL     1     111.326 129.146 137.171  0.00  0.00    +0.000 OA
ATOM      3  O   UNL     1     112.973 128.493 135.362  0.00  0.00    +0.000 OA
ATOM      4  C   UNL     1     112.413 126.884 137.194  0.00  0.00    +0.000 A 
ATOM      5  C   UNL     1     112.594 127.419 136.592  0.00  0.00    +0.000 A 
ATOM      6  C   UNL     1     111.877 127.094 137.784  0.00  0.00    +0.000 A 
ATOM      7  C   UNL     1     112.239 128.163 136.581  0.00  0.00    +0.000 A 
ATOM      8  C   UNL     1     111.521 127.839 137.774  0.00  0.00    +0.000 A 
ATOM      9  C   UNL     1     111.702 128.373 137.172  0.00  0.00    +0.000 A 
ATOM     10  C   UNL     1     112.435 128.712 135.949  0.00  0.00    +0.000 A 
ATOM     11  C   UNL     1     111.510 129.707 136.547  0.00  0.00    +0.000 A 
ATOM     12  C   UNL     1     112.068 129.488 135.932  0.00  0.00    +0.000 A 
ENDROOT
BRANCH   4  19
ATOM     13  O   UNL     1     112.398 125.500 136.839  0.00  0.00    +0.000 OA
ATOM     14  O   UNL     1     113.865 126.674 137.949  0.00  0.00    +0.000 OA
ATOM     15  O   UNL     1     114.576 125.185 137.971  0.00  0.00    +0.000 OA
ATOM     16  O   UNL     1     113.835 123.907 137.239  0.00  0.00    +0.000 OA
ATOM     17  C   UNL     1     113.494 126.035 137.582  0.00  0.00    +0.000 C 
ATOM     18  C   UNL     1     113.850 125.290 137.594  0.00  0.00    +0.000 C 
ATOM     19  C   UNL     1     112.768 126.140 137.205  0.00  0.00    +0.000 C 
ATOM     20  C   UNL     1     113.479 124.651 137.227  0.00  0.00    +0.000 C 
ATOM     21  C   UNL     1     112.753 124.756 136.850  0.00  0.00    +0.000 C 
BRANCH  21  23
ATOM     22  O   UNL     1     111.644 124.215 136.128  0.00  0.00    +0.000 OA
ATOM     23  C   UNL     1     112.382 124.117 136.484  0.00  0.00    +0.000 C 
ENDBRANCH  21  23
ENDBRANCH   4  19
BRANCH  11  26
ATOM     24  O   UNL     1     112.243 130.983 137.293  0.00  0.00    +0.000 OA
ATOM     25  O   UNL     1     109.346 131.404 135.769  0.00  0.00    +0.000 OA
ATOM     26  C   UNL     1     111.153 130.451 136.539  0.00  0.00    +0.000 A 
ATOM     27  C   UNL     1     111.519 131.089 136.912  0.00  0.00    +0.000 A 
ATOM     28  C   UNL     1     110.428 130.556 136.158  0.00  0.00    +0.000 A 
ATOM     29  C   UNL     1     110.070 131.299 136.150  0.00  0.00    +0.000 A 
ATOM     30  C   UNL     1     111.161 131.832 136.904  0.00  0.00    +0.000 A 
ATOM     31  C   UNL     1     110.437 131.937 136.523  0.00  0.00    +0.000 A 
BRANCH  31  32
ATOM     32  O   UNL     1     110.079 132.680 136.515  0.00  0.00    +0.000 OA
ATOM     33  C   UNL     1     110.460 133.326 136.862  0.00  0.00    +0.000 C 
ENDBRANCH  31  32
ENDBRANCH  11  26
BRANCH   6  34
ATOM     34  O   UNL     1     111.695 126.560 138.386  0.00  0.00    +0.000 OA
ATOM     35  C   UNL     1     111.095 126.733 138.925  0.00  0.00    +0.000 C 
ENDBRANCH   6  34
TORSDOF 5
ENDMDL
