MODEL 1
REMARK VINA RESULT:     -12.5      0.000      0.000
REMARK  Name = 131831432
REMARK  8 active torsions:
REMARK  status: ('A' for Active; 'I' for Inactive)
REMARK    1  A    between atoms: O_2  and  C_24
REMARK    2  A    between atoms: O_2  and  C_33
REMARK    3  A    between atoms: O_10  and  C_43
REMARK    4  A    between atoms: O_10  and  C_47
REMARK    5  A    between atoms: C_25  and  C_38
REMARK    6  A    between atoms: C_27  and  C_42
REMARK    7  A    between atoms: C_31  and  C_40
REMARK    8  A    between atoms: C_44  and  C_52
REMARK                            x       y       z     vdW  Elec       q    Type
REMARK                         _______ _______ _______ _____ _____    ______ ____
ROOT
ATOM      1  O   UNL     1     110.242 128.241 136.276  0.00  0.00    +0.000 OA
ATOM      2  O   UNL     1     107.981 130.057 135.958  0.00  0.00    +0.000 OA
ATOM      3  O   UNL     1     108.465 127.111 135.510  0.00  0.00    +0.000 OA
ATOM      4  O   UNL     1     106.860 130.981 135.805  0.00  0.00    +0.000 OA
ATOM      5  C   UNL     1     109.271 130.549 136.448  0.00  0.00    +0.000 A 
ATOM      6  C   UNL     1     108.955 131.345 136.512  0.00  0.00    +0.000 C 
ATOM      7  C   UNL     1     109.116 129.166 136.122  0.00  0.00    +0.000 A 
ATOM      8  C   UNL     1     108.616 128.526 135.841  0.00  0.00    +0.000 C 
ATOM      9  C   UNL     1     108.939 127.732 135.779  0.00  0.00    +0.000 C 
ATOM     10  C   UNL     1     109.757 127.588 135.997  0.00  0.00    +0.000 C 
ATOM     11  C   UNL     1     108.801 129.927 136.180  0.00  0.00    +0.000 A 
ATOM     12  C   UNL     1     110.057 130.411 136.658  0.00  0.00    +0.000 A 
ATOM     13  C   UNL     1     109.902 129.029 136.332  0.00  0.00    +0.000 A 
ATOM     14  C   UNL     1     108.136 131.495 136.295  0.00  0.00    +0.000 C 
ATOM     15  C   UNL     1     110.372 129.651 136.600  0.00  0.00    +0.000 A 
ATOM     16  C   UNL     1     107.646 130.846 136.015  0.00  0.00    +0.000 C 
ENDROOT
BRANCH   6  19
ATOM     17  O   UNL     1     109.825 133.061 138.625  0.00  0.00    +0.000 OA
ATOM     18  O   UNL     1     110.865 133.812 137.587  0.00  0.00    +0.000 OA
ATOM     19  C   UNL     1     109.432 131.962 136.781  0.00  0.00    +0.000 A 
ATOM     20  C   UNL     1     109.390 132.203 137.568  0.00  0.00    +0.000 A 
ATOM     21  C   UNL     1     109.952 132.337 136.261  0.00  0.00    +0.000 A 
ATOM     22  C   UNL     1     109.867 132.819 137.837  0.00  0.00    +0.000 A 
ATOM     23  C   UNL     1     110.429 132.954 136.530  0.00  0.00    +0.000 A 
ATOM     24  C   UNL     1     110.388 133.195 137.318  0.00  0.00    +0.000 A 
ENDBRANCH   6  19
BRANCH  10  26
ATOM     25  O   UNL     1     111.029 124.552 135.769  0.00  0.00    +0.000 OA
ATOM     26  C   UNL     1     110.075 126.829 135.941  0.00  0.00    +0.000 A 
ATOM     27  C   UNL     1     110.307 126.427 136.622  0.00  0.00    +0.000 A 
ATOM     28  C   UNL     1     110.625 125.668 136.565  0.00  0.00    +0.000 A 
ATOM     29  C   UNL     1     110.162 126.473 135.201  0.00  0.00    +0.000 A 
ATOM     30  C   UNL     1     110.711 125.311 135.826  0.00  0.00    +0.000 A 
ATOM     31  C   UNL     1     110.480 125.714 135.144  0.00  0.00    +0.000 A 
BRANCH  28  32
ATOM     32  O   UNL     1     110.856 125.265 137.247  0.00  0.00    +0.000 OA
BRANCH  32  40
ATOM     33  O   UNL     1     112.129 125.880 137.457  0.00  0.00    +0.000 OA
ATOM     34  O   UNL     1     111.647 126.052 139.878  0.00  0.00    +0.000 OA
ATOM     35  O   UNL     1     110.535 125.380 138.861  0.00  0.00    +0.000 OA
ATOM     36  O   UNL     1     113.080 126.609 139.280  0.00  0.00    +0.000 OA
ATOM     37  C   UNL     1     111.807 125.994 139.071  0.00  0.00    +0.000 C 
ATOM     38  C   UNL     1     111.251 125.658 138.562  0.00  0.00    +0.000 C 
ATOM     39  C   UNL     1     112.524 126.273 138.772  0.00  0.00    +0.000 C 
ATOM     40  C   UNL     1     111.412 125.601 137.755  0.00  0.00    +0.000 C 
ATOM     41  C   UNL     1     112.685 126.216 137.965  0.00  0.00    +0.000 C 
BRANCH  41  44
ATOM     42  O   UNL     1     113.465 127.275 137.406  0.00  0.00    +0.000 OA
ATOM     43  O   UNL     1     114.056 125.993 137.628  0.00  0.00    +0.000 OA
ATOM     44  C   UNL     1     113.402 126.495 137.666  0.00  0.00    +0.000 C 
ENDBRANCH  41  44
ENDBRANCH  32  40
ENDBRANCH  28  32
ENDBRANCH  10  26
BRANCH  12  45
ATOM     45  O   UNL     1     110.527 131.033 136.926  0.00  0.00    +0.000 OA
BRANCH  45  53
ATOM     46  O   UNL     1     111.285 130.669 138.082  0.00  0.00    +0.000 OA
ATOM     47  O   UNL     1     113.373 130.825 136.763  0.00  0.00    +0.000 OA
ATOM     48  O   UNL     1     111.920 131.137 136.046  0.00  0.00    +0.000 OA
ATOM     49  O   UNL     1     113.434 130.409 138.358  0.00  0.00    +0.000 OA
ATOM     50  C   UNL     1     112.677 130.773 137.202  0.00  0.00    +0.000 C 
ATOM     51  C   UNL     1     111.950 130.929 136.843  0.00  0.00    +0.000 C 
ATOM     52  C   UNL     1     112.708 130.565 137.999  0.00  0.00    +0.000 C 
ATOM     53  C   UNL     1     111.254 130.877 137.283  0.00  0.00    +0.000 C 
ATOM     54  C   UNL     1     112.012 130.513 138.439  0.00  0.00    +0.000 C 
BRANCH  54  56
ATOM     55  O   UNL     1     111.644 130.761 139.797  0.00  0.00    +0.000 OA
ATOM     56  C   UNL     1     112.042 130.305 139.237  0.00  0.00    +0.000 C 
ENDBRANCH  54  56
ENDBRANCH  45  53
ENDBRANCH  12  45
TORSDOF 8
ENDMDL
MODEL 2
REMARK VINA RESULT:     -11.8      1.731      4.958
REMARK  Name = 131831432
REMARK  8 active torsions:
REMARK  status: ('A' for Active; 'I' for Inactive)
REMARK    1  A    between atoms: O_2  and  C_24
REMARK    2  A    between atoms: O_2  and  C_33
REMARK    3  A    between atoms: O_10  and  C_43
REMARK    4  A    between atoms: O_10  and  C_47
REMARK    5  A    between atoms: C_25  and  C_38
REMARK    6  A    between atoms: C_27  and  C_42
REMARK    7  A    between atoms: C_31  and  C_40
REMARK    8  A    between atoms: C_44  and  C_52
REMARK                            x       y       z     vdW  Elec       q    Type
REMARK                         _______ _______ _______ _____ _____    ______ ____
ROOT
ATOM      1  O   UNL     1     112.110 127.146 138.002  0.00  0.00    +0.000 OA
ATOM      2  O   UNL     1     114.186 126.770 140.017  0.00  0.00    +0.000 OA
ATOM      3  O   UNL     1     113.039 125.122 137.763  0.00  0.00    +0.000 OA
ATOM      4  O   UNL     1     115.222 126.599 141.033  0.00  0.00    +0.000 OA
ATOM      5  C   UNL     1     113.422 128.018 139.956  0.00  0.00    +0.000 A 
ATOM      6  C   UNL     1     113.861 128.332 140.624  0.00  0.00    +0.000 C 
ATOM      7  C   UNL     1     113.149 126.973 139.020  0.00  0.00    +0.000 A 
ATOM      8  C   UNL     1     113.322 126.185 138.723  0.00  0.00    +0.000 C 
ATOM      9  C   UNL     1     112.879 125.878 138.054  0.00  0.00    +0.000 C 
ATOM     10  C   UNL     1     112.269 126.361 137.691  0.00  0.00    +0.000 C 
ATOM     11  C   UNL     1     113.579 127.263 139.663  0.00  0.00    +0.000 A 
ATOM     12  C   UNL     1     112.835 128.482 139.607  0.00  0.00    +0.000 A 
ATOM     13  C   UNL     1     112.564 127.438 138.672  0.00  0.00    +0.000 A 
ATOM     14  C   UNL     1     114.473 127.852 140.992  0.00  0.00    +0.000 C 
ATOM     15  C   UNL     1     112.407 128.193 138.965  0.00  0.00    +0.000 A 
ATOM     16  C   UNL     1     114.636 127.065 140.686  0.00  0.00    +0.000 C 
ENDROOT
BRANCH   6  19
ATOM     17  O   UNL     1     114.515 131.107 140.802  0.00  0.00    +0.000 OA
ATOM     18  O   UNL     1     113.206 131.354 141.775  0.00  0.00    +0.000 OA
ATOM     19  C   UNL     1     113.698 129.087 140.912  0.00  0.00    +0.000 A 
ATOM     20  C   UNL     1     114.188 129.719 140.713  0.00  0.00    +0.000 A 
ATOM     21  C   UNL     1     113.042 129.210 141.399  0.00  0.00    +0.000 A 
ATOM     22  C   UNL     1     114.025 130.475 141.001  0.00  0.00    +0.000 A 
ATOM     23  C   UNL     1     112.879 129.966 141.686  0.00  0.00    +0.000 A 
ATOM     24  C   UNL     1     113.369 130.598 141.488  0.00  0.00    +0.000 A 
ENDBRANCH   6  19
BRANCH  10  26
ATOM     25  O   UNL     1     110.547 125.210 135.122  0.00  0.00    +0.000 OA
ATOM     26  C   UNL     1     111.838 126.074 137.049  0.00  0.00    +0.000 A 
ATOM     27  C   UNL     1     111.669 126.568 136.412  0.00  0.00    +0.000 A 
ATOM     28  C   UNL     1     111.238 126.281 135.769  0.00  0.00    +0.000 A 
ATOM     29  C   UNL     1     111.578 125.290 137.044  0.00  0.00    +0.000 A 
ATOM     30  C   UNL     1     110.978 125.498 135.764  0.00  0.00    +0.000 A 
ATOM     31  C   UNL     1     111.148 125.003 136.402  0.00  0.00    +0.000 A 
BRANCH  28  32
ATOM     32  O   UNL     1     111.068 126.776 135.132  0.00  0.00    +0.000 OA
BRANCH  32  40
ATOM     33  O   UNL     1     109.991 127.558 135.651  0.00  0.00    +0.000 OA
ATOM     34  O   UNL     1     111.114 129.622 134.876  0.00  0.00    +0.000 OA
ATOM     35  O   UNL     1     111.817 128.152 134.614  0.00  0.00    +0.000 OA
ATOM     36  O   UNL     1     109.663 129.715 135.654  0.00  0.00    +0.000 OA
ATOM     37  C   UNL     1     110.740 128.934 135.134  0.00  0.00    +0.000 C 
ATOM     38  C   UNL     1     111.091 128.199 135.003  0.00  0.00    +0.000 C 
ATOM     39  C   UNL     1     110.014 128.980 135.524  0.00  0.00    +0.000 C 
ATOM     40  C   UNL     1     110.717 127.511 135.262  0.00  0.00    +0.000 C 
ATOM     41  C   UNL     1     109.639 128.292 135.782  0.00  0.00    +0.000 C 
BRANCH  41  44
ATOM     42  O   UNL     1     108.889 128.498 136.981  0.00  0.00    +0.000 OA
ATOM     43  O   UNL     1     108.212 128.226 135.752  0.00  0.00    +0.000 OA
ATOM     44  C   UNL     1     108.913 128.339 136.172  0.00  0.00    +0.000 C 
ENDBRANCH  41  44
ENDBRANCH  32  40
ENDBRANCH  28  32
ENDBRANCH  10  26
BRANCH  12  45
ATOM     45  O   UNL     1     112.678 129.237 139.901  0.00  0.00    +0.000 OA
BRANCH  45  53
ATOM     46  O   UNL     1     112.548 130.191 138.845  0.00  0.00    +0.000 OA
ATOM     47  O   UNL     1     110.152 130.475 139.398  0.00  0.00    +0.000 OA
ATOM     48  O   UNL     1     111.081 129.426 140.269  0.00  0.00    +0.000 OA
ATOM     49  O   UNL     1     110.820 131.335 138.158  0.00  0.00    +0.000 OA
ATOM     50  C   UNL     1     110.951 130.380 139.214  0.00  0.00    +0.000 C 
ATOM     51  C   UNL     1     111.415 129.856 139.650  0.00  0.00    +0.000 C 
ATOM     52  C   UNL     1     111.284 130.810 138.594  0.00  0.00    +0.000 C 
ATOM     53  C   UNL     1     112.213 129.761 139.466  0.00  0.00    +0.000 C 
ATOM     54  C   UNL     1     112.083 130.715 138.410  0.00  0.00    +0.000 C 
BRANCH  54  56
ATOM     55  O   UNL     1     113.223 131.321 137.798  0.00  0.00    +0.000 OA
ATOM     56  C   UNL     1     112.417 131.146 137.790  0.00  0.00    +0.000 C 
ENDBRANCH  54  56
ENDBRANCH  45  53
ENDBRANCH  12  45
TORSDOF 8
ENDMDL
MODEL 3
REMARK VINA RESULT:     -11.6      1.784      4.923
REMARK  Name = 131831432
REMARK  8 active torsions:
REMARK  status: ('A' for Active; 'I' for Inactive)
REMARK    1  A    between atoms: O_2  and  C_24
REMARK    2  A    between atoms: O_2  and  C_33
REMARK    3  A    between atoms: O_10  and  C_43
REMARK    4  A    between atoms: O_10  and  C_47
REMARK    5  A    between atoms: C_25  and  C_38
REMARK    6  A    between atoms: C_27  and  C_42
REMARK    7  A    between atoms: C_31  and  C_40
REMARK    8  A    between atoms: C_44  and  C_52
REMARK                            x       y       z     vdW  Elec       q    Type
REMARK                         _______ _______ _______ _____ _____    ______ ____
ROOT
ATOM      1  O   UNL     1     112.540 129.272 137.801  0.00  0.00    +0.000 OA
ATOM      2  O   UNL     1     110.742 130.244 135.720  0.00  0.00    +0.000 OA
ATOM      3  O   UNL     1     112.648 131.506 137.691  0.00  0.00    +0.000 OA
ATOM      4  O   UNL     1     109.836 130.713 134.674  0.00  0.00    +0.000 OA
ATOM      5  C   UNL     1     110.858 128.810 135.995  0.00  0.00    +0.000 A 
ATOM      6  C   UNL     1     110.285 128.635 135.381  0.00  0.00    +0.000 C 
ATOM      7  C   UNL     1     111.632 129.744 136.753  0.00  0.00    +0.000 A 
ATOM      8  C   UNL     1     111.854 130.558 136.914  0.00  0.00    +0.000 C 
ATOM      9  C   UNL     1     112.429 130.726 137.530  0.00  0.00    +0.000 C 
ATOM     10  C   UNL     1     112.774 130.079 137.977  0.00  0.00    +0.000 C 
ATOM     11  C   UNL     1     111.079 129.588 136.159  0.00  0.00    +0.000 A 
ATOM     12  C   UNL     1     111.190 128.188 136.425  0.00  0.00    +0.000 A 
ATOM     13  C   UNL     1     111.963 129.122 137.181  0.00  0.00    +0.000 A 
ATOM     14  C   UNL     1     109.936 129.279 134.930  0.00  0.00    +0.000 C 
ATOM     15  C   UNL     1     111.742 128.344 137.017  0.00  0.00    +0.000 A 
ATOM     16  C   UNL     1     110.166 130.089 135.101  0.00  0.00    +0.000 C 
ENDROOT
BRANCH   6  19
ATOM     17  O   UNL     1     108.429 126.478 135.643  0.00  0.00    +0.000 OA
ATOM     18  O   UNL     1     109.425 125.512 134.750  0.00  0.00    +0.000 OA
ATOM     19  C   UNL     1     110.069 127.854 135.224  0.00  0.00    +0.000 A 
ATOM     20  C   UNL     1     109.357 127.557 135.512  0.00  0.00    +0.000 A 
ATOM     21  C   UNL     1     110.568 127.371 134.777  0.00  0.00    +0.000 A 
ATOM     22  C   UNL     1     109.141 126.776 135.355  0.00  0.00    +0.000 A 
ATOM     23  C   UNL     1     110.353 126.590 134.619  0.00  0.00    +0.000 A 
ATOM     24  C   UNL     1     109.640 126.292 134.908  0.00  0.00    +0.000 A 
ENDBRANCH   6  19
BRANCH  10  26
ATOM     25  O   UNL     1     114.985 130.691 140.349  0.00  0.00    +0.000 OA
ATOM     26  C   UNL     1     113.327 130.232 138.570  0.00  0.00    +0.000 A 
ATOM     27  C   UNL     1     113.160 130.029 139.351  0.00  0.00    +0.000 A 
ATOM     28  C   UNL     1     113.712 130.182 139.944  0.00  0.00    +0.000 A 
ATOM     29  C   UNL     1     114.047 130.588 138.380  0.00  0.00    +0.000 A 
ATOM     30  C   UNL     1     114.432 130.538 139.756  0.00  0.00    +0.000 A 
ATOM     31  C   UNL     1     114.599 130.741 138.974  0.00  0.00    +0.000 A 
BRANCH  28  32
ATOM     32  O   UNL     1     113.545 129.979 140.726  0.00  0.00    +0.000 OA
BRANCH  32  40
ATOM     33  O   UNL     1     113.864 128.588 140.647  0.00  0.00    +0.000 OA
ATOM     34  O   UNL     1     111.901 128.057 142.058  0.00  0.00    +0.000 OA
ATOM     35  O   UNL     1     112.236 129.625 141.667  0.00  0.00    +0.000 OA
ATOM     36  O   UNL     1     112.875 126.844 141.509  0.00  0.00    +0.000 OA
ATOM     37  C   UNL     1     112.555 128.235 141.588  0.00  0.00    +0.000 C 
ATOM     38  C   UNL     1     112.723 129.018 141.392  0.00  0.00    +0.000 C 
ATOM     39  C   UNL     1     113.043 127.628 141.313  0.00  0.00    +0.000 C 
ATOM     40  C   UNL     1     113.377 129.195 140.922  0.00  0.00    +0.000 C 
ATOM     41  C   UNL     1     113.697 127.805 140.843  0.00  0.00    +0.000 C 
BRANCH  41  44
ATOM     42  O   UNL     1     114.016 126.828 139.850  0.00  0.00    +0.000 OA
ATOM     43  O   UNL     1     114.838 126.961 141.012  0.00  0.00    +0.000 OA
ATOM     44  C   UNL     1     114.184 127.198 140.568  0.00  0.00    +0.000 C 
ENDBRANCH  41  44
ENDBRANCH  32  40
ENDBRANCH  28  32
ENDBRANCH  10  26
BRANCH  12  45
ATOM     45  O   UNL     1     110.969 127.411 136.261  0.00  0.00    +0.000 OA
BRANCH  45  53
ATOM     46  O   UNL     1     110.690 126.696 137.466  0.00  0.00    +0.000 OA
ATOM     47  O   UNL     1     112.635 125.225 137.044  0.00  0.00    +0.000 OA
ATOM     48  O   UNL     1     112.266 126.430 135.979  0.00  0.00    +0.000 OA
ATOM     49  O   UNL     1     111.708 125.000 138.390  0.00  0.00    +0.000 OA
ATOM     50  C   UNL     1     111.987 125.715 137.185  0.00  0.00    +0.000 C 
ATOM     51  C   UNL     1     111.803 126.317 136.652  0.00  0.00    +0.000 C 
ATOM     52  C   UNL     1     111.524 125.603 137.857  0.00  0.00    +0.000 C 
ATOM     53  C   UNL     1     111.154 126.808 136.793  0.00  0.00    +0.000 C 
ATOM     54  C   UNL     1     110.875 126.093 137.998  0.00  0.00    +0.000 C 
BRANCH  54  56
ATOM     55  O   UNL     1     109.589 126.025 138.618  0.00  0.00    +0.000 OA
ATOM     56  C   UNL     1     110.411 125.981 138.672  0.00  0.00    +0.000 C 
ENDBRANCH  54  56
ENDBRANCH  45  53
ENDBRANCH  12  45
TORSDOF 8
ENDMDL
MODEL 4
REMARK VINA RESULT:     -11.4      1.865      6.042
REMARK  Name = 131831432
REMARK  8 active torsions:
REMARK  status: ('A' for Active; 'I' for Inactive)
REMARK    1  A    between atoms: O_2  and  C_24
REMARK    2  A    between atoms: O_2  and  C_33
REMARK    3  A    between atoms: O_10  and  C_43
REMARK    4  A    between atoms: O_10  and  C_47
REMARK    5  A    between atoms: C_25  and  C_38
REMARK    6  A    between atoms: C_27  and  C_42
REMARK    7  A    between atoms: C_31  and  C_40
REMARK    8  A    between atoms: C_44  and  C_52
REMARK                            x       y       z     vdW  Elec       q    Type
REMARK                         _______ _______ _______ _____ _____    ______ ____
ROOT
ATOM      1  O   UNL     1     111.188 129.635 137.585  0.00  0.00    +0.000 OA
ATOM      2  O   UNL     1     113.551 128.564 136.251  0.00  0.00    +0.000 OA
ATOM      3  O   UNL     1     112.576 131.308 137.045  0.00  0.00    +0.000 OA
ATOM      4  O   UNL     1     114.728 128.010 135.585  0.00  0.00    +0.000 OA
ATOM      5  C   UNL     1     112.484 127.671 136.709  0.00  0.00    +0.000 A 
ATOM      6  C   UNL     1     112.914 126.989 136.415  0.00  0.00    +0.000 C 
ATOM      7  C   UNL     1     112.369 129.081 136.917  0.00  0.00    +0.000 A 
ATOM      8  C   UNL     1     112.700 129.869 136.829  0.00  0.00    +0.000 C 
ATOM      9  C   UNL     1     112.264 130.547 137.125  0.00  0.00    +0.000 C 
ATOM     10  C   UNL     1     111.504 130.430 137.506  0.00  0.00    +0.000 C 
ATOM     11  C   UNL     1     112.792 128.433 136.630  0.00  0.00    +0.000 A 
ATOM     12  C   UNL     1     111.753 127.559 137.075  0.00  0.00    +0.000 A 
ATOM     13  C   UNL     1     111.638 128.967 137.282  0.00  0.00    +0.000 A 
ATOM     14  C   UNL     1     113.676 127.100 136.033  0.00  0.00    +0.000 C 
ATOM     15  C   UNL     1     111.330 128.206 137.361  0.00  0.00    +0.000 A 
ATOM     16  C   UNL     1     113.997 127.894 135.951  0.00  0.00    +0.000 C 
ENDROOT
BRANCH   6  19
ATOM     17  O   UNL     1     112.855 124.465 137.754  0.00  0.00    +0.000 OA
ATOM     18  O   UNL     1     111.651 123.958 136.746  0.00  0.00    +0.000 OA
ATOM     19  C   UNL     1     112.599 126.231 136.498  0.00  0.00    +0.000 A 
ATOM     20  C   UNL     1     112.885 125.727 137.085  0.00  0.00    +0.000 A 
ATOM     21  C   UNL     1     111.997 125.978 135.993  0.00  0.00    +0.000 A 
ATOM     22  C   UNL     1     112.569 124.970 137.168  0.00  0.00    +0.000 A 
ATOM     23  C   UNL     1     111.681 125.220 136.076  0.00  0.00    +0.000 A 
ATOM     24  C   UNL     1     111.967 124.715 136.663  0.00  0.00    +0.000 A 
ENDBRANCH   6  19
BRANCH  10  26
ATOM     25  O   UNL     1     109.804 133.014 138.656  0.00  0.00    +0.000 OA
ATOM     26  C   UNL     1     111.079 131.076 137.794  0.00  0.00    +0.000 A 
ATOM     27  C   UNL     1     111.017 131.200 138.606  0.00  0.00    +0.000 A 
ATOM     28  C   UNL     1     110.592 131.846 138.894  0.00  0.00    +0.000 A 
ATOM     29  C   UNL     1     110.716 131.598 137.267  0.00  0.00    +0.000 A 
ATOM     30  C   UNL     1     110.229 132.368 138.368  0.00  0.00    +0.000 A 
ATOM     31  C   UNL     1     110.291 132.244 137.555  0.00  0.00    +0.000 A 
BRANCH  28  32
ATOM     32  O   UNL     1     110.530 131.970 139.707  0.00  0.00    +0.000 OA
BRANCH  32  40
ATOM     33  O   UNL     1     109.478 131.049 140.004  0.00  0.00    +0.000 OA
ATOM     34  O   UNL     1     110.707 130.292 142.015  0.00  0.00    +0.000 OA
ATOM     35  O   UNL     1     111.350 131.466 141.047  0.00  0.00    +0.000 OA
ATOM     36  O   UNL     1     109.246 129.625 141.640  0.00  0.00    +0.000 OA
ATOM     37  C   UNL     1     110.298 130.545 141.344  0.00  0.00    +0.000 C 
ATOM     38  C   UNL     1     110.619 131.132 140.861  0.00  0.00    +0.000 C 
ATOM     39  C   UNL     1     109.567 130.211 141.157  0.00  0.00    +0.000 C 
ATOM     40  C   UNL     1     110.209 131.384 140.190  0.00  0.00    +0.000 C 
ATOM     41  C   UNL     1     109.157 130.463 140.487  0.00  0.00    +0.000 C 
BRANCH  41  44
ATOM     42  O   UNL     1     107.730 130.493 140.551  0.00  0.00    +0.000 OA
ATOM     43  O   UNL     1     108.392 129.430 139.863  0.00  0.00    +0.000 OA
ATOM     44  C   UNL     1     108.426 130.129 140.300  0.00  0.00    +0.000 C 
ENDBRANCH  41  44
ENDBRANCH  32  40
ENDBRANCH  28  32
ENDBRANCH  10  26
BRANCH  12  45
ATOM     45  O   UNL     1     111.445 126.797 137.154  0.00  0.00    +0.000 OA
BRANCH  45  53
ATOM     46  O   UNL     1     110.941 126.541 138.467  0.00  0.00    +0.000 OA
ATOM     47  O   UNL     1     108.635 126.485 137.570  0.00  0.00    +0.000 OA
ATOM     48  O   UNL     1     109.907 126.760 136.557  0.00  0.00    +0.000 OA
ATOM     49  O   UNL     1     108.900 126.247 139.182  0.00  0.00    +0.000 OA
ATOM     50  C   UNL     1     109.403 126.504 137.869  0.00  0.00    +0.000 C 
ATOM     51  C   UNL     1     110.039 126.641 137.362  0.00  0.00    +0.000 C 
ATOM     52  C   UNL     1     109.536 126.385 138.674  0.00  0.00    +0.000 C 
ATOM     53  C   UNL     1     110.808 126.660 137.660  0.00  0.00    +0.000 C 
ATOM     54  C   UNL     1     110.304 126.404 138.973  0.00  0.00    +0.000 C 
BRANCH  54  56
ATOM     55  O   UNL     1     111.203 126.151 140.055  0.00  0.00    +0.000 OA
ATOM     56  C   UNL     1     110.437 126.285 139.779  0.00  0.00    +0.000 C 
ENDBRANCH  54  56
ENDBRANCH  45  53
ENDBRANCH  12  45
TORSDOF 8
ENDMDL
MODEL 5
REMARK VINA RESULT:     -11.4      1.765      4.205
REMARK  Name = 131831432
REMARK  8 active torsions:
REMARK  status: ('A' for Active; 'I' for Inactive)
REMARK    1  A    between atoms: O_2  and  C_24
REMARK    2  A    between atoms: O_2  and  C_33
REMARK    3  A    between atoms: O_10  and  C_43
REMARK    4  A    between atoms: O_10  and  C_47
REMARK    5  A    between atoms: C_25  and  C_38
REMARK    6  A    between atoms: C_27  and  C_42
REMARK    7  A    between atoms: C_31  and  C_40
REMARK    8  A    between atoms: C_44  and  C_52
REMARK                            x       y       z     vdW  Elec       q    Type
REMARK                         _______ _______ _______ _____ _____    ______ ____
ROOT
ATOM      1  O   UNL     1     112.202 127.787 138.512  0.00  0.00    +0.000 OA
ATOM      2  O   UNL     1     110.748 126.350 136.431  0.00  0.00    +0.000 OA
ATOM      3  O   UNL     1     112.740 125.613 138.576  0.00  0.00    +0.000 OA
ATOM      4  O   UNL     1     110.011 125.647 135.384  0.00  0.00    +0.000 OA
ATOM      5  C   UNL     1     110.573 127.795 136.603  0.00  0.00    +0.000 A 
ATOM      6  C   UNL     1     110.013 127.815 135.952  0.00  0.00    +0.000 C 
ATOM      7  C   UNL     1     111.464 127.080 137.462  0.00  0.00    +0.000 A 
ATOM      8  C   UNL     1     111.828 126.337 137.694  0.00  0.00    +0.000 C 
ATOM      9  C   UNL     1     112.387 126.324 138.347  0.00  0.00    +0.000 C 
ATOM     10  C   UNL     1     112.576 127.053 138.758  0.00  0.00    +0.000 C 
ATOM     11  C   UNL     1     110.928 127.087 136.835  0.00  0.00    +0.000 A 
ATOM     12  C   UNL     1     110.754 128.495 136.999  0.00  0.00    +0.000 A 
ATOM     13  C   UNL     1     111.645 127.781 137.857  0.00  0.00    +0.000 A 
ATOM     14  C   UNL     1     109.820 127.088 135.536  0.00  0.00    +0.000 C 
ATOM     15  C   UNL     1     111.290 128.489 137.626  0.00  0.00    +0.000 A 
ATOM     16  C   UNL     1     110.190 126.350 135.778  0.00  0.00    +0.000 C 
ENDROOT
BRANCH   6  19
ATOM     17  O   UNL     1     107.774 129.590 135.981  0.00  0.00    +0.000 OA
ATOM     18  O   UNL     1     108.613 130.664 135.051  0.00  0.00    +0.000 OA
ATOM     19  C   UNL     1     109.662 128.527 135.727  0.00  0.00    +0.000 A 
ATOM     20  C   UNL     1     108.894 128.702 135.967  0.00  0.00    +0.000 A 
ATOM     21  C   UNL     1     110.083 129.064 135.261  0.00  0.00    +0.000 A 
ATOM     22  C   UNL     1     108.543 129.414 135.742  0.00  0.00    +0.000 A 
ATOM     23  C   UNL     1     109.732 129.776 135.036  0.00  0.00    +0.000 A 
ATOM     24  C   UNL     1     108.963 129.952 135.276  0.00  0.00    +0.000 A 
ENDBRANCH   6  19
BRANCH  10  26
ATOM     25  O   UNL     1     114.719 127.037 141.267  0.00  0.00    +0.000 OA
ATOM     26  C   UNL     1     113.111 127.049 139.386  0.00  0.00    +0.000 A 
ATOM     27  C   UNL     1     112.906 127.396 140.105  0.00  0.00    +0.000 A 
ATOM     28  C   UNL     1     113.442 127.392 140.732  0.00  0.00    +0.000 A 
ATOM     29  C   UNL     1     113.853 126.698 139.292  0.00  0.00    +0.000 A 
ATOM     30  C   UNL     1     114.183 127.041 140.640  0.00  0.00    +0.000 A 
ATOM     31  C   UNL     1     114.389 126.695 139.920  0.00  0.00    +0.000 A 
BRANCH  28  32
ATOM     32  O   UNL     1     113.237 127.738 141.452  0.00  0.00    +0.000 OA
BRANCH  32  40
ATOM     33  O   UNL     1     113.437 129.115 141.123  0.00  0.00    +0.000 OA
ATOM     34  O   UNL     1     111.307 129.693 142.244  0.00  0.00    +0.000 OA
ATOM     35  O   UNL     1     111.817 128.123 142.199  0.00  0.00    +0.000 OA
ATOM     36  O   UNL     1     112.218 130.876 141.541  0.00  0.00    +0.000 OA
ATOM     37  C   UNL     1     112.017 129.500 141.870  0.00  0.00    +0.000 C 
ATOM     38  C   UNL     1     112.272 128.715 141.848  0.00  0.00    +0.000 C 
ATOM     39  C   UNL     1     112.473 130.091 141.519  0.00  0.00    +0.000 C 
ATOM     40  C   UNL     1     112.982 128.523 141.475  0.00  0.00    +0.000 C 
ATOM     41  C   UNL     1     113.183 129.899 141.145  0.00  0.00    +0.000 C 
BRANCH  41  44
ATOM     42  O   UNL     1     113.514 130.692 140.004  0.00  0.00    +0.000 OA
ATOM     43  O   UNL     1     114.216 130.882 141.234  0.00  0.00    +0.000 OA
ATOM     44  C   UNL     1     113.638 130.491 140.794  0.00  0.00    +0.000 C 
ENDBRANCH  41  44
ENDBRANCH  32  40
ENDBRANCH  28  32
ENDBRANCH  10  26
BRANCH  12  45
ATOM     45  O   UNL     1     110.399 129.203 136.768  0.00  0.00    +0.000 OA
BRANCH  45  53
ATOM     46  O   UNL     1     109.916 129.941 137.892  0.00  0.00    +0.000 OA
ATOM     47  O   UNL     1     111.603 131.700 137.464  0.00  0.00    +0.000 OA
ATOM     48  O   UNL     1     111.524 130.376 136.482  0.00  0.00    +0.000 OA
ATOM     49  O   UNL     1     110.558 131.851 138.731  0.00  0.00    +0.000 OA
ATOM     50  C   UNL     1     111.041 131.113 137.606  0.00  0.00    +0.000 C 
ATOM     51  C   UNL     1     111.002 130.452 137.115  0.00  0.00    +0.000 C 
ATOM     52  C   UNL     1     110.519 131.189 138.240  0.00  0.00    +0.000 C 
ATOM     53  C   UNL     1     110.439 129.865 137.258  0.00  0.00    +0.000 C 
ATOM     54  C   UNL     1     109.956 130.603 138.383  0.00  0.00    +0.000 C 
BRANCH  54  56
ATOM     55  O   UNL     1     108.679 130.348 138.970  0.00  0.00    +0.000 OA
ATOM     56  C   UNL     1     109.433 130.678 139.017  0.00  0.00    +0.000 C 
ENDBRANCH  54  56
ENDBRANCH  45  53
ENDBRANCH  12  45
TORSDOF 8
ENDMDL
MODEL 6
REMARK VINA RESULT:     -11.4      6.897      8.274
REMARK  Name = 131831432
REMARK  8 active torsions:
REMARK  status: ('A' for Active; 'I' for Inactive)
REMARK    1  A    between atoms: O_2  and  C_24
REMARK    2  A    between atoms: O_2  and  C_33
REMARK    3  A    between atoms: O_10  and  C_43
REMARK    4  A    between atoms: O_10  and  C_47
REMARK    5  A    between atoms: C_25  and  C_38
REMARK    6  A    between atoms: C_27  and  C_42
REMARK    7  A    between atoms: C_31  and  C_40
REMARK    8  A    between atoms: C_44  and  C_52
REMARK                            x       y       z     vdW  Elec       q    Type
REMARK                         _______ _______ _______ _____ _____    ______ ____
ROOT
ATOM      1  O   UNL     1     104.771 128.835 142.835  0.00  0.00    +0.000 OA
ATOM      2  O   UNL     1     103.068 129.081 140.480  0.00  0.00    +0.000 OA
ATOM      3  O   UNL     1     104.990 127.014 141.550  0.00  0.00    +0.000 OA
ATOM      4  O   UNL     1     102.209 129.221 139.306  0.00  0.00    +0.000 OA
ATOM      5  C   UNL     1     103.108 130.144 141.486  0.00  0.00    +0.000 A 
ATOM      6  C   UNL     1     102.540 130.606 141.036  0.00  0.00    +0.000 C 
ATOM      7  C   UNL     1     103.910 128.973 141.658  0.00  0.00    +0.000 A 
ATOM      8  C   UNL     1     104.168 128.207 141.367  0.00  0.00    +0.000 C 
ATOM      9  C   UNL     1     104.737 127.751 141.822  0.00  0.00    +0.000 C 
ATOM     10  C   UNL     1     105.040 128.067 142.561  0.00  0.00    +0.000 C 
ATOM     11  C   UNL     1     103.363 129.407 141.217  0.00  0.00    +0.000 A 
ATOM     12  C   UNL     1     103.400 130.447 142.196  0.00  0.00    +0.000 A 
ATOM     13  C   UNL     1     104.201 129.277 142.367  0.00  0.00    +0.000 A 
ATOM     14  C   UNL     1     102.233 130.295 140.296  0.00  0.00    +0.000 C 
ATOM     15  C   UNL     1     103.946 130.014 142.636  0.00  0.00    +0.000 A 
ATOM     16  C   UNL     1     102.499 129.527 140.015  0.00  0.00    +0.000 C 
ENDROOT
BRANCH   6  19
ATOM     17  O   UNL     1     102.700 133.458 140.973  0.00  0.00    +0.000 OA
ATOM     18  O   UNL     1     101.540 133.549 142.142  0.00  0.00    +0.000 OA
ATOM     19  C   UNL     1     102.290 131.342 141.313  0.00  0.00    +0.000 A 
ATOM     20  C   UNL     1     102.620 132.031 141.005  0.00  0.00    +0.000 A 
ATOM     21  C   UNL     1     101.710 131.387 141.898  0.00  0.00    +0.000 A 
ATOM     22  C   UNL     1     102.370 132.767 141.281  0.00  0.00    +0.000 A 
ATOM     23  C   UNL     1     101.460 132.123 142.174  0.00  0.00    +0.000 A 
ATOM     24  C   UNL     1     101.789 132.813 141.866  0.00  0.00    +0.000 A 
ENDBRANCH   6  19
BRANCH  10  26
ATOM     25  O   UNL     1     107.225 126.341 144.332  0.00  0.00    +0.000 OA
ATOM     26  C   UNL     1     105.587 127.635 143.004  0.00  0.00    +0.000 A 
ATOM     27  C   UNL     1     106.393 127.779 142.917  0.00  0.00    +0.000 A 
ATOM     28  C   UNL     1     106.940 127.348 143.360  0.00  0.00    +0.000 A 
ATOM     29  C   UNL     1     105.324 127.059 143.534  0.00  0.00    +0.000 A 
ATOM     30  C   UNL     1     106.678 126.772 143.890  0.00  0.00    +0.000 A 
ATOM     31  C   UNL     1     105.871 126.628 143.977  0.00  0.00    +0.000 A 
BRANCH  28  32
ATOM     32  O   UNL     1     107.747 127.492 143.273  0.00  0.00    +0.000 OA
BRANCH  32  40
ATOM     33  O   UNL     1     108.044 126.682 142.134  0.00  0.00    +0.000 OA
ATOM     34  O   UNL     1     109.306 128.558 141.126  0.00  0.00    +0.000 OA
ATOM     35  O   UNL     1     108.588 128.743 142.602  0.00  0.00    +0.000 OA
ATOM     36  O   UNL     1     109.181 127.122 140.324  0.00  0.00    +0.000 OA
ATOM     37  C   UNL     1     108.885 127.933 141.463  0.00  0.00    +0.000 C 
ATOM     38  C   UNL     1     108.526 128.026 142.200  0.00  0.00    +0.000 C 
ATOM     39  C   UNL     1     108.822 127.215 141.061  0.00  0.00    +0.000 C 
ATOM     40  C   UNL     1     108.106 127.400 142.535  0.00  0.00    +0.000 C 
ATOM     41  C   UNL     1     108.402 126.589 141.397  0.00  0.00    +0.000 C 
BRANCH  41  44
ATOM     42  O   UNL     1     108.833 125.241 141.197  0.00  0.00    +0.000 OA
ATOM     43  O   UNL     1     107.785 125.783 140.391  0.00  0.00    +0.000 OA
ATOM     44  C   UNL     1     108.340 125.871 140.995  0.00  0.00    +0.000 C 
ENDBRANCH  41  44
ENDBRANCH  32  40
ENDBRANCH  28  32
ENDBRANCH  10  26
BRANCH  12  45
ATOM     45  O   UNL     1     103.145 131.184 142.465  0.00  0.00    +0.000 OA
BRANCH  45  53
ATOM     46  O   UNL     1     104.236 132.001 142.895  0.00  0.00    +0.000 OA
ATOM     47  O   UNL     1     103.425 131.855 145.229  0.00  0.00    +0.000 OA
ATOM     48  O   UNL     1     102.604 131.087 144.021  0.00  0.00    +0.000 OA
ATOM     49  O   UNL     1     104.786 132.720 144.881  0.00  0.00    +0.000 OA
ATOM     50  C   UNL     1     103.695 131.903 144.451  0.00  0.00    +0.000 C 
ATOM     51  C   UNL     1     103.285 131.519 143.847  0.00  0.00    +0.000 C 
ATOM     52  C   UNL     1     104.376 132.336 144.277  0.00  0.00    +0.000 C 
ATOM     53  C   UNL     1     103.555 131.568 143.069  0.00  0.00    +0.000 C 
ATOM     54  C   UNL     1     104.646 132.385 143.499  0.00  0.00    +0.000 C 
BRANCH  54  56
ATOM     55  O   UNL     1     105.572 132.903 142.542  0.00  0.00    +0.000 OA
ATOM     56  C   UNL     1     105.327 132.818 143.325  0.00  0.00    +0.000 C 
ENDBRANCH  54  56
ENDBRANCH  45  53
ENDBRANCH  12  45
TORSDOF 8
ENDMDL
MODEL 7
REMARK VINA RESULT:     -11.4      2.164      5.284
REMARK  Name = 131831432
REMARK  8 active torsions:
REMARK  status: ('A' for Active; 'I' for Inactive)
REMARK    1  A    between atoms: O_2  and  C_24
REMARK    2  A    between atoms: O_2  and  C_33
REMARK    3  A    between atoms: O_10  and  C_43
REMARK    4  A    between atoms: O_10  and  C_47
REMARK    5  A    between atoms: C_25  and  C_38
REMARK    6  A    between atoms: C_27  and  C_42
REMARK    7  A    between atoms: C_31  and  C_40
REMARK    8  A    between atoms: C_44  and  C_52
REMARK                            x       y       z     vdW  Elec       q    Type
REMARK                         _______ _______ _______ _____ _____    ______ ____
ROOT
ATOM      1  O   UNL     1     111.545 126.822 138.224  0.00  0.00    +0.000 OA
ATOM      2  O   UNL     1     113.880 126.855 139.972  0.00  0.00    +0.000 OA
ATOM      3  O   UNL     1     113.204 125.641 137.292  0.00  0.00    +0.000 OA
ATOM      4  O   UNL     1     115.040 126.882 140.859  0.00  0.00    +0.000 OA
ATOM      5  C   UNL     1     112.652 127.558 140.353  0.00  0.00    +0.000 A 
ATOM      6  C   UNL     1     113.017 127.818 141.086  0.00  0.00    +0.000 C 
ATOM      7  C   UNL     1     112.709 126.848 139.113  0.00  0.00    +0.000 A 
ATOM      8  C   UNL     1     113.154 126.364 138.560  0.00  0.00    +0.000 C 
ATOM      9  C   UNL     1     112.783 126.107 137.829  0.00  0.00    +0.000 C 
ATOM     10  C   UNL     1     111.973 126.337 137.659  0.00  0.00    +0.000 C 
ATOM     11  C   UNL     1     113.070 127.092 139.814  0.00  0.00    +0.000 A 
ATOM     12  C   UNL     1     111.874 127.779 140.190  0.00  0.00    +0.000 A 
ATOM     13  C   UNL     1     111.931 127.070 138.951  0.00  0.00    +0.000 A 
ATOM     14  C   UNL     1     113.827 127.590 141.261  0.00  0.00    +0.000 C 
ATOM     15  C   UNL     1     111.514 127.535 139.490  0.00  0.00    +0.000 A 
ATOM     16  C   UNL     1     114.262 127.105 140.699  0.00  0.00    +0.000 C 
ENDROOT
BRANCH   6  19
ATOM     17  O   UNL     1     112.417 130.377 142.206  0.00  0.00    +0.000 OA
ATOM     18  O   UNL     1     111.318 129.677 143.218  0.00  0.00    +0.000 OA
ATOM     19  C   UNL     1     112.592 128.283 141.619  0.00  0.00    +0.000 A 
ATOM     20  C   UNL     1     112.717 129.097 141.646  0.00  0.00    +0.000 A 
ATOM     21  C   UNL     1     112.042 127.932 142.125  0.00  0.00    +0.000 A 
ATOM     22  C   UNL     1     112.292 129.562 142.179  0.00  0.00    +0.000 A 
ATOM     23  C   UNL     1     111.618 128.397 142.658  0.00  0.00    +0.000 A 
ATOM     24  C   UNL     1     111.742 129.212 142.685  0.00  0.00    +0.000 A 
ENDBRANCH   6  19
BRANCH  10  26
ATOM     25  O   UNL     1     110.521 125.366 134.860  0.00  0.00    +0.000 OA
ATOM     26  C   UNL     1     111.610 126.094 136.959  0.00  0.00    +0.000 A 
ATOM     27  C   UNL     1     111.492 126.634 136.348  0.00  0.00    +0.000 A 
ATOM     28  C   UNL     1     111.129 126.392 135.648  0.00  0.00    +0.000 A 
ATOM     29  C   UNL     1     111.366 125.311 136.872  0.00  0.00    +0.000 A 
ATOM     30  C   UNL     1     110.884 125.609 135.560  0.00  0.00    +0.000 A 
ATOM     31  C   UNL     1     111.003 125.068 136.172  0.00  0.00    +0.000 A 
BRANCH  28  32
ATOM     32  O   UNL     1     111.010 126.932 135.036  0.00  0.00    +0.000 OA
BRANCH  32  40
ATOM     33  O   UNL     1     109.896 127.663 135.551  0.00  0.00    +0.000 OA
ATOM     34  O   UNL     1     110.995 129.788 134.917  0.00  0.00    +0.000 OA
ATOM     35  O   UNL     1     111.744 128.348 134.613  0.00  0.00    +0.000 OA
ATOM     36  O   UNL     1     109.514 129.810 135.644  0.00  0.00    +0.000 OA
ATOM     37  C   UNL     1     110.629 129.080 135.128  0.00  0.00    +0.000 C 
ATOM     38  C   UNL     1     111.003 128.360 134.976  0.00  0.00    +0.000 C 
ATOM     39  C   UNL     1     109.888 129.090 135.492  0.00  0.00    +0.000 C 
ATOM     40  C   UNL     1     110.636 127.652 135.188  0.00  0.00    +0.000 C 
ATOM     41  C   UNL     1     109.521 128.382 135.703  0.00  0.00    +0.000 C 
BRANCH  41  44
ATOM     42  O   UNL     1     108.725 128.396 136.890  0.00  0.00    +0.000 OA
ATOM     43  O   UNL     1     108.096 128.403 135.607  0.00  0.00    +0.000 OA
ATOM     44  C   UNL     1     108.781 128.394 136.067  0.00  0.00    +0.000 C 
ENDBRANCH  41  44
ENDBRANCH  32  40
ENDBRANCH  28  32
ENDBRANCH  10  26
BRANCH  12  45
ATOM     45  O   UNL     1     111.457 128.244 140.728  0.00  0.00    +0.000 OA
BRANCH  45  53
ATOM     46  O   UNL     1     110.759 129.322 140.100  0.00  0.00    +0.000 OA
ATOM     47  O   UNL     1     108.601 128.234 140.632  0.00  0.00    +0.000 OA
ATOM     48  O   UNL     1     110.018 127.519 141.083  0.00  0.00    +0.000 OA
ATOM     49  O   UNL     1     108.623 129.674 139.827  0.00  0.00    +0.000 OA
ATOM     50  C   UNL     1     109.320 128.597 140.455  0.00  0.00    +0.000 C 
ATOM     51  C   UNL     1     110.029 128.239 140.680  0.00  0.00    +0.000 C 
ATOM     52  C   UNL     1     109.331 129.316 140.052  0.00  0.00    +0.000 C 
ATOM     53  C   UNL     1     110.748 128.601 140.503  0.00  0.00    +0.000 C 
ATOM     54  C   UNL     1     110.051 129.679 139.875  0.00  0.00    +0.000 C 
BRANCH  54  56
ATOM     55  O   UNL     1     110.747 130.642 139.081  0.00  0.00    +0.000 OA
ATOM     56  C   UNL     1     110.062 130.399 139.472  0.00  0.00    +0.000 C 
ENDBRANCH  54  56
ENDBRANCH  45  53
ENDBRANCH  12  45
TORSDOF 8
ENDMDL
MODEL 8
REMARK VINA RESULT:     -11.3      1.693      5.415
REMARK  Name = 131831432
REMARK  8 active torsions:
REMARK  status: ('A' for Active; 'I' for Inactive)
REMARK    1  A    between atoms: O_2  and  C_24
REMARK    2  A    between atoms: O_2  and  C_33
REMARK    3  A    between atoms: O_10  and  C_43
REMARK    4  A    between atoms: O_10  and  C_47
REMARK    5  A    between atoms: C_25  and  C_38
REMARK    6  A    between atoms: C_27  and  C_42
REMARK    7  A    between atoms: C_31  and  C_40
REMARK    8  A    between atoms: C_44  and  C_52
REMARK                            x       y       z     vdW  Elec       q    Type
REMARK                         _______ _______ _______ _____ _____    ______ ____
ROOT
ATOM      1  O   UNL     1     110.160 129.014 137.361  0.00  0.00    +0.000 OA
ATOM      2  O   UNL     1     109.542 126.833 135.525  0.00  0.00    +0.000 OA
ATOM      3  O   UNL     1     108.374 129.552 136.121  0.00  0.00    +0.000 OA
ATOM      4  O   UNL     1     109.247 125.731 134.612  0.00  0.00    +0.000 OA
ATOM      5  C   UNL     1     110.672 126.732 136.452  0.00  0.00    +0.000 A 
ATOM      6  C   UNL     1     110.861 125.949 136.151  0.00  0.00    +0.000 C 
ATOM      7  C   UNL     1     109.863 127.910 136.445  0.00  0.00    +0.000 A 
ATOM      8  C   UNL     1     109.196 128.345 136.122  0.00  0.00    +0.000 C 
ATOM      9  C   UNL     1     109.013 129.127 136.427  0.00  0.00    +0.000 C 
ATOM     10  C   UNL     1     109.497 129.464 137.051  0.00  0.00    +0.000 C 
ATOM     11  C   UNL     1     110.034 127.159 136.149  0.00  0.00    +0.000 A 
ATOM     12  C   UNL     1     111.137 127.055 137.051  0.00  0.00    +0.000 A 
ATOM     13  C   UNL     1     110.329 128.233 137.044  0.00  0.00    +0.000 A 
ATOM     14  C   UNL     1     110.379 125.607 135.527  0.00  0.00    +0.000 C 
ATOM     15  C   UNL     1     110.966 127.805 137.347  0.00  0.00    +0.000 A 
ATOM     16  C   UNL     1     109.715 126.052 135.211  0.00  0.00    +0.000 C 
ENDROOT
BRANCH   6  19
ATOM     17  O   UNL     1     111.879 123.857 137.810  0.00  0.00    +0.000 OA
ATOM     18  O   UNL     1     113.419 124.268 137.384  0.00  0.00    +0.000 OA
ATOM     19  C   UNL     1     111.500 125.529 136.460  0.00  0.00    +0.000 A 
ATOM     20  C   UNL     1     111.370 124.903 136.980  0.00  0.00    +0.000 A 
ATOM     21  C   UNL     1     112.270 125.735 136.246  0.00  0.00    +0.000 A 
ATOM     22  C   UNL     1     112.009 124.483 137.289  0.00  0.00    +0.000 A 
ATOM     23  C   UNL     1     112.910 125.315 136.555  0.00  0.00    +0.000 A 
ATOM     24  C   UNL     1     112.780 124.689 137.076  0.00  0.00    +0.000 A 
ENDBRANCH   6  19
BRANCH  10  26
ATOM     25  O   UNL     1     108.821 132.466 138.243  0.00  0.00    +0.000 OA
ATOM     26  C   UNL     1     109.328 130.215 137.349  0.00  0.00    +0.000 A 
ATOM     27  C   UNL     1     109.002 130.295 138.101  0.00  0.00    +0.000 A 
ATOM     28  C   UNL     1     108.833 131.045 138.400  0.00  0.00    +0.000 A 
ATOM     29  C   UNL     1     109.485 130.884 136.893  0.00  0.00    +0.000 A 
ATOM     30  C   UNL     1     108.990 131.715 137.945  0.00  0.00    +0.000 A 
ATOM     31  C   UNL     1     109.316 131.635 137.191  0.00  0.00    +0.000 A 
BRANCH  28  32
ATOM     32  O   UNL     1     108.507 131.126 139.153  0.00  0.00    +0.000 OA
BRANCH  32  40
ATOM     33  O   UNL     1     109.682 131.027 139.960  0.00  0.00    +0.000 OA
ATOM     34  O   UNL     1     108.514 129.454 141.472  0.00  0.00    +0.000 OA
ATOM     35  O   UNL     1     107.727 130.078 140.161  0.00  0.00    +0.000 OA
ATOM     36  O   UNL     1     110.079 129.880 141.773  0.00  0.00    +0.000 OA
ATOM     37  C   UNL     1     108.903 129.978 140.968  0.00  0.00    +0.000 C 
ATOM     38  C   UNL     1     108.510 130.290 140.312  0.00  0.00    +0.000 C 
ATOM     39  C   UNL     1     109.686 130.191 141.118  0.00  0.00    +0.000 C 
ATOM     40  C   UNL     1     108.900 130.814 139.808  0.00  0.00    +0.000 C 
ATOM     41  C   UNL     1     110.076 130.715 140.614  0.00  0.00    +0.000 C 
BRANCH  41  44
ATOM     42  O   UNL     1     111.024 131.596 141.220  0.00  0.00    +0.000 OA
ATOM     43  O   UNL     1     111.476 130.472 140.462  0.00  0.00    +0.000 OA
ATOM     44  C   UNL     1     110.859 130.928 140.765  0.00  0.00    +0.000 C 
ENDBRANCH  41  44
ENDBRANCH  32  40
ENDBRANCH  28  32
ENDBRANCH  10  26
BRANCH  12  45
ATOM     45  O   UNL     1     111.775 126.628 137.354  0.00  0.00    +0.000 OA
BRANCH  45  53
ATOM     46  O   UNL     1     111.810 126.596 138.782  0.00  0.00    +0.000 OA
ATOM     47  O   UNL     1     113.803 128.063 138.767  0.00  0.00    +0.000 OA
ATOM     48  O   UNL     1     113.104 127.606 137.344  0.00  0.00    +0.000 OA
ATOM     49  O   UNL     1     113.173 127.541 140.200  0.00  0.00    +0.000 OA
ATOM     50  C   UNL     1     113.138 127.574 138.772  0.00  0.00    +0.000 C 
ATOM     51  C   UNL     1     112.789 127.346 138.060  0.00  0.00    +0.000 C 
ATOM     52  C   UNL     1     112.824 127.313 139.488  0.00  0.00    +0.000 C 
ATOM     53  C   UNL     1     112.125 126.857 138.065  0.00  0.00    +0.000 C 
ATOM     54  C   UNL     1     112.160 126.824 139.493  0.00  0.00    +0.000 C 
BRANCH  54  56
ATOM     55  O   UNL     1     111.138 126.137 140.219  0.00  0.00    +0.000 OA
ATOM     56  C   UNL     1     111.845 126.563 140.210  0.00  0.00    +0.000 C 
ENDBRANCH  54  56
ENDBRANCH  45  53
ENDBRANCH  12  45
TORSDOF 8
ENDMDL
MODEL 9
REMARK VINA RESULT:     -11.3      1.348      5.309
REMARK  Name = 131831432
REMARK  8 active torsions:
REMARK  status: ('A' for Active; 'I' for Inactive)
REMARK    1  A    between atoms: O_2  and  C_24
REMARK    2  A    between atoms: O_2  and  C_33
REMARK    3  A    between atoms: O_10  and  C_43
REMARK    4  A    between atoms: O_10  and  C_47
REMARK    5  A    between atoms: C_25  and  C_38
REMARK    6  A    between atoms: C_27  and  C_42
REMARK    7  A    between atoms: C_31  and  C_40
REMARK    8  A    between atoms: C_44  and  C_52
REMARK                            x       y       z     vdW  Elec       q    Type
REMARK                         _______ _______ _______ _____ _____    ______ ____
ROOT
ATOM      1  O   UNL     1     110.580 128.954 136.903  0.00  0.00    +0.000 OA
ATOM      2  O   UNL     1     111.007 126.087 137.238  0.00  0.00    +0.000 OA
ATOM      3  O   UNL     1     109.401 127.828 135.367  0.00  0.00    +0.000 OA
ATOM      4  O   UNL     1     111.232 124.655 137.421  0.00  0.00    +0.000 OA
ATOM      5  C   UNL     1     111.669 127.049 138.123  0.00  0.00    +0.000 A 
ATOM      6  C   UNL     1     112.050 126.409 138.551  0.00  0.00    +0.000 C 
ATOM      7  C   UNL     1     110.805 127.517 137.084  0.00  0.00    +0.000 A 
ATOM      8  C   UNL     1     110.282 127.343 136.425  0.00  0.00    +0.000 C 
ATOM      9  C   UNL     1     109.905 127.988 136.001  0.00  0.00    +0.000 C 
ATOM     10  C   UNL     1     110.055 128.798 136.241  0.00  0.00    +0.000 C 
ATOM     11  C   UNL     1     111.165 126.894 137.488  0.00  0.00    +0.000 A 
ATOM     12  C   UNL     1     111.813 127.829 138.353  0.00  0.00    +0.000 A 
ATOM     13  C   UNL     1     110.950 128.296 137.316  0.00  0.00    +0.000 A 
ATOM     14  C   UNL     1     111.903 125.596 138.315  0.00  0.00    +0.000 C 
ATOM     15  C   UNL     1     111.453 128.451 137.950  0.00  0.00    +0.000 A 
ATOM     16  C   UNL     1     111.378 125.433 137.654  0.00  0.00    +0.000 C 
ENDROOT
BRANCH   6  19
ATOM     17  O   UNL     1     112.497 126.624 141.365  0.00  0.00    +0.000 OA
ATOM     18  O   UNL     1     114.061 127.068 141.083  0.00  0.00    +0.000 OA
ATOM     19  C   UNL     1     112.552 126.574 139.184  0.00  0.00    +0.000 A 
ATOM     20  C   UNL     1     112.273 126.516 139.958  0.00  0.00    +0.000 A 
ATOM     21  C   UNL     1     113.334 126.796 139.042  0.00  0.00    +0.000 A 
ATOM     22  C   UNL     1     112.776 126.681 140.591  0.00  0.00    +0.000 A 
ATOM     23  C   UNL     1     113.837 126.960 139.676  0.00  0.00    +0.000 A 
ATOM     24  C   UNL     1     113.559 126.903 140.450  0.00  0.00    +0.000 A 
ENDBRANCH   6  19
BRANCH  10  26
ATOM     25  O   UNL     1     108.621 131.298 134.634  0.00  0.00    +0.000 OA
ATOM     26  C   UNL     1     109.696 129.424 135.839  0.00  0.00    +0.000 A 
ATOM     27  C   UNL     1     109.319 130.023 136.262  0.00  0.00    +0.000 A 
ATOM     28  C   UNL     1     108.961 130.648 135.860  0.00  0.00    +0.000 A 
ATOM     29  C   UNL     1     109.715 129.448 135.015  0.00  0.00    +0.000 A 
ATOM     30  C   UNL     1     108.980 130.673 135.035  0.00  0.00    +0.000 A 
ATOM     31  C   UNL     1     109.357 130.073 134.613  0.00  0.00    +0.000 A 
BRANCH  28  32
ATOM     32  O   UNL     1     108.584 131.248 136.282  0.00  0.00    +0.000 OA
BRANCH  32  40
ATOM     33  O   UNL     1     109.693 132.051 136.691  0.00  0.00    +0.000 OA
ATOM     34  O   UNL     1     108.812 132.092 139.004  0.00  0.00    +0.000 OA
ATOM     35  O   UNL     1     107.996 131.275 137.824  0.00  0.00    +0.000 OA
ATOM     36  O   UNL     1     110.215 132.881 138.640  0.00  0.00    +0.000 OA
ATOM     37  C   UNL     1     109.105 132.078 138.233  0.00  0.00    +0.000 C 
ATOM     38  C   UNL     1     108.698 131.670 137.643  0.00  0.00    +0.000 C 
ATOM     39  C   UNL     1     109.807 132.473 138.051  0.00  0.00    +0.000 C 
ATOM     40  C   UNL     1     108.991 131.656 136.872  0.00  0.00    +0.000 C 
ATOM     41  C   UNL     1     110.101 132.459 137.280  0.00  0.00    +0.000 C 
BRANCH  41  44
ATOM     42  O   UNL     1     111.529 132.495 137.254  0.00  0.00    +0.000 OA
ATOM     43  O   UNL     1     110.777 133.607 136.763  0.00  0.00    +0.000 OA
ATOM     44  C   UNL     1     110.802 132.854 137.099  0.00  0.00    +0.000 C 
ENDBRANCH  41  44
ENDBRANCH  32  40
ENDBRANCH  28  32
ENDBRANCH  10  26
BRANCH  12  45
ATOM     45  O   UNL     1     112.317 127.984 138.988  0.00  0.00    +0.000 OA
BRANCH  45  53
ATOM     46  O   UNL     1     111.775 128.942 139.899  0.00  0.00    +0.000 OA
ATOM     47  O   UNL     1     113.498 130.578 139.204  0.00  0.00    +0.000 OA
ATOM     48  O   UNL     1     113.465 129.074 138.525  0.00  0.00    +0.000 OA
ATOM     49  O   UNL     1     112.381 130.990 140.347  0.00  0.00    +0.000 OA
ATOM     50  C   UNL     1     112.923 130.032 139.436  0.00  0.00    +0.000 C 
ATOM     51  C   UNL     1     112.908 129.281 139.096  0.00  0.00    +0.000 C 
ATOM     52  C   UNL     1     112.366 130.239 140.007  0.00  0.00    +0.000 C 
ATOM     53  C   UNL     1     112.333 128.736 139.327  0.00  0.00    +0.000 C 
ATOM     54  C   UNL     1     111.791 129.694 140.238  0.00  0.00    +0.000 C 
BRANCH  54  56
ATOM     55  O   UNL     1     110.455 129.633 140.742  0.00  0.00    +0.000 OA
ATOM     56  C   UNL     1     111.233 129.900 140.810  0.00  0.00    +0.000 C 
ENDBRANCH  54  56
ENDBRANCH  45  53
ENDBRANCH  12  45
TORSDOF 8
ENDMDL
MODEL 10
REMARK VINA RESULT:     -11.2      2.804      5.627
REMARK  Name = 131831432
REMARK  8 active torsions:
REMARK  status: ('A' for Active; 'I' for Inactive)
REMARK    1  A    between atoms: O_2  and  C_24
REMARK    2  A    between atoms: O_2  and  C_33
REMARK    3  A    between atoms: O_10  and  C_43
REMARK    4  A    between atoms: O_10  and  C_47
REMARK    5  A    between atoms: C_25  and  C_38
REMARK    6  A    between atoms: C_27  and  C_42
REMARK    7  A    between atoms: C_31  and  C_40
REMARK    8  A    between atoms: C_44  and  C_52
REMARK                            x       y       z     vdW  Elec       q    Type
REMARK                         _______ _______ _______ _____ _____    ______ ____
ROOT
ATOM      1  O   UNL     1     111.902 128.451 140.250  0.00  0.00    +0.000 OA
ATOM      2  O   UNL     1     113.191 126.389 138.639  0.00  0.00    +0.000 OA
ATOM      3  O   UNL     1     112.439 126.704 141.545  0.00  0.00    +0.000 OA
ATOM      4  O   UNL     1     113.835 125.368 137.817  0.00  0.00    +0.000 OA
ATOM      5  C   UNL     1     112.740 127.642 138.027  0.00  0.00    +0.000 A 
ATOM      6  C   UNL     1     113.022 127.380 137.259  0.00  0.00    +0.000 C 
ATOM      7  C   UNL     1     112.548 127.426 139.427  0.00  0.00    +0.000 A 
ATOM      8  C   UNL     1     112.639 126.918 140.114  0.00  0.00    +0.000 C 
ATOM      9  C   UNL     1     112.355 127.186 140.880  0.00  0.00    +0.000 C 
ATOM     10  C   UNL     1     111.984 127.958 140.948  0.00  0.00    +0.000 C 
ATOM     11  C   UNL     1     112.822 127.163 138.694  0.00  0.00    +0.000 A 
ATOM     12  C   UNL     1     112.384 128.383 138.093  0.00  0.00    +0.000 A 
ATOM     13  C   UNL     1     112.192 128.167 139.492  0.00  0.00    +0.000 A 
ATOM     14  C   UNL     1     113.394 126.608 137.184  0.00  0.00    +0.000 C 
ATOM     15  C   UNL     1     112.110 128.645 138.825  0.00  0.00    +0.000 A 
ATOM     16  C   UNL     1     113.479 126.109 137.879  0.00  0.00    +0.000 C 
ENDROOT
BRANCH   6  19
ATOM     17  O   UNL     1     111.616 128.087 134.874  0.00  0.00    +0.000 OA
ATOM     18  O   UNL     1     112.680 129.321 134.612  0.00  0.00    +0.000 OA
ATOM     19  C   UNL     1     112.936 127.865 136.597  0.00  0.00    +0.000 A 
ATOM     20  C   UNL     1     112.319 127.733 136.067  0.00  0.00    +0.000 A 
ATOM     21  C   UNL     1     113.469 128.482 136.467  0.00  0.00    +0.000 A 
ATOM     22  C   UNL     1     112.233 128.218 135.405  0.00  0.00    +0.000 A 
ATOM     23  C   UNL     1     113.383 128.967 135.805  0.00  0.00    +0.000 A 
ATOM     24  C   UNL     1     112.766 128.836 135.274  0.00  0.00    +0.000 A 
ENDBRANCH   6  19
BRANCH  10  26
ATOM     25  O   UNL     1     110.884 129.018 143.873  0.00  0.00    +0.000 OA
ATOM     26  C   UNL     1     111.709 128.223 141.680  0.00  0.00    +0.000 A 
ATOM     27  C   UNL     1     110.912 128.140 141.875  0.00  0.00    +0.000 A 
ATOM     28  C   UNL     1     110.637 128.405 142.606  0.00  0.00    +0.000 A 
ATOM     29  C   UNL     1     112.232 128.570 142.215  0.00  0.00    +0.000 A 
ATOM     30  C   UNL     1     111.159 128.753 143.142  0.00  0.00    +0.000 A 
ATOM     31  C   UNL     1     111.957 128.835 142.947  0.00  0.00    +0.000 A 
BRANCH  28  32
ATOM     32  O   UNL     1     109.840 128.323 142.801  0.00  0.00    +0.000 OA
BRANCH  32  40
ATOM     33  O   UNL     1     109.318 129.424 142.054  0.00  0.00    +0.000 OA
ATOM     34  O   UNL     1     107.401 128.031 141.339  0.00  0.00    +0.000 OA
ATOM     35  O   UNL     1     108.562 127.394 142.324  0.00  0.00    +0.000 OA
ATOM     36  O   UNL     1     107.519 129.596 140.831  0.00  0.00    +0.000 OA
ATOM     37  C   UNL     1     108.040 128.495 141.577  0.00  0.00    +0.000 C 
ATOM     38  C   UNL     1     108.621 128.177 142.070  0.00  0.00    +0.000 C 
ATOM     39  C   UNL     1     108.099 129.278 141.324  0.00  0.00    +0.000 C 
ATOM     40  C   UNL     1     109.259 128.641 142.308  0.00  0.00    +0.000 C 
ATOM     41  C   UNL     1     108.738 129.742 141.562  0.00  0.00    +0.000 C 
BRANCH  41  44
ATOM     42  O   UNL     1     108.501 131.135 141.778  0.00  0.00    +0.000 OA
ATOM     43  O   UNL     1     109.150 130.698 140.583  0.00  0.00    +0.000 OA
ATOM     44  C   UNL     1     108.796 130.525 141.308  0.00  0.00    +0.000 C 
ENDBRANCH  41  44
ENDBRANCH  32  40
ENDBRANCH  28  32
ENDBRANCH  10  26
BRANCH  12  45
ATOM     45  O   UNL     1     112.302 128.862 137.426  0.00  0.00    +0.000 OA
BRANCH  45  53
ATOM     46  O   UNL     1     110.997 129.433 137.318  0.00  0.00    +0.000 OA
ATOM     47  O   UNL     1     111.940 131.674 137.781  0.00  0.00    +0.000 OA
ATOM     48  O   UNL     1     112.931 130.356 137.735  0.00  0.00    +0.000 OA
ATOM     49  O   UNL     1     110.321 131.499 137.519  0.00  0.00    +0.000 OA
ATOM     50  C   UNL     1     111.626 130.927 137.627  0.00  0.00    +0.000 C 
ATOM     51  C   UNL     1     112.122 130.268 137.604  0.00  0.00    +0.000 C 
ATOM     52  C   UNL     1     110.817 130.840 137.496  0.00  0.00    +0.000 C 
ATOM     53  C   UNL     1     111.807 129.521 137.450  0.00  0.00    +0.000 C 
ATOM     54  C   UNL     1     110.502 130.093 137.342  0.00  0.00    +0.000 C 
BRANCH  54  56
ATOM     55  O   UNL     1     109.362 129.251 137.164  0.00  0.00    +0.000 OA
ATOM     56  C   UNL     1     109.692 130.005 137.210  0.00  0.00    +0.000 C 
ENDBRANCH  54  56
ENDBRANCH  45  53
ENDBRANCH  12  45
TORSDOF 8
ENDMDL
