MODEL 1
REMARK VINA RESULT:     -11.0      0.000      0.000
REMARK  Name = 44257705
REMARK  4 active torsions:
REMARK  status: ('A' for Active; 'I' for Inactive)
REMARK    1  A    between atoms: O_1  and  C_14
REMARK    2  A    between atoms: O_1  and  C_15
REMARK    3  A    between atoms: C_18  and  C_24
REMARK    4  A    between atoms: C_34  and  C_35
REMARK                            x       y       z     vdW  Elec       q    Type
REMARK                         _______ _______ _______ _____ _____    ______ ____
ROOT
ATOM      1  O   UNL     1     107.565 125.357 147.013  0.00  0.00    +0.000 OA
ATOM      2  O   UNL     1     105.993 124.553 148.747  0.00  0.00    +0.000 OA
ATOM      3  O   UNL     1     107.620 124.478 149.010  0.00  0.00    +0.000 OA
ATOM      4  C   UNL     1     106.227 125.127 147.460  0.00  0.00    +0.000 C 
ATOM      5  C   UNL     1     106.751 125.394 146.882  0.00  0.00    +0.000 C 
ATOM      6  C   UNL     1     106.517 124.821 148.170  0.00  0.00    +0.000 C 
ATOM      7  C   UNL     1     107.854 125.051 147.722  0.00  0.00    +0.000 C 
ATOM      8  C   UNL     1     107.331 124.783 148.301  0.00  0.00    +0.000 C 
ATOM      9  C   UNL     1     108.668 125.014 147.853  0.00  0.00    +0.000 C 
ENDROOT
BRANCH   5  14
ATOM     10  O   UNL     1     106.730 127.026 146.634  0.00  0.00    +0.000 OA
ATOM     11  O   UNL     1     106.193 124.375 145.711  0.00  0.00    +0.000 OA
ATOM     12  O   UNL     1     105.577 126.618 144.010  0.00  0.00    +0.000 OA
ATOM     13  O   UNL     1     106.436 128.175 145.813  0.00  0.00    +0.000 OA
ATOM     14  C   UNL     1     106.461 125.700 146.172  0.00  0.00    +0.000 A 
ATOM     15  C   UNL     1     106.451 126.516 146.049  0.00  0.00    +0.000 A 
ATOM     16  C   UNL     1     106.182 125.191 145.586  0.00  0.00    +0.000 A 
ATOM     17  C   UNL     1     106.161 126.822 145.339  0.00  0.00    +0.000 A 
ATOM     18  C   UNL     1     105.893 125.496 144.878  0.00  0.00    +0.000 A 
ATOM     19  C   UNL     1     105.882 126.312 144.753  0.00  0.00    +0.000 A 
ATOM     20  C   UNL     1     106.155 127.673 145.223  0.00  0.00    +0.000 A 
ATOM     21  C   UNL     1     105.854 127.998 144.485  0.00  0.00    +0.000 A 
ATOM     22  C   UNL     1     105.563 127.467 143.875  0.00  0.00    +0.000 A 
BRANCH  22  24
ATOM     23  O   UNL     1     104.402 128.680 141.035  0.00  0.00    +0.000 OA
ATOM     24  C   UNL     1     105.273 127.770 143.165  0.00  0.00    +0.000 A 
ATOM     25  C   UNL     1     104.777 128.429 143.170  0.00  0.00    +0.000 A 
ATOM     26  C   UNL     1     105.479 127.414 142.450  0.00  0.00    +0.000 A 
ATOM     27  C   UNL     1     104.487 128.732 142.461  0.00  0.00    +0.000 A 
ATOM     28  C   UNL     1     105.188 127.718 141.740  0.00  0.00    +0.000 A 
ATOM     29  C   UNL     1     104.692 128.377 141.746  0.00  0.00    +0.000 A 
ENDBRANCH  22  24
ENDBRANCH   5  14
BRANCH   4  30
ATOM     30  O   UNL     1     105.413 125.164 147.328  0.00  0.00    +0.000 OA
BRANCH  30  35
ATOM     31  O   UNL     1     105.172 126.195 148.288  0.00  0.00    +0.000 OA
ATOM     32  O   UNL     1     103.928 124.521 147.647  0.00  0.00    +0.000 OA
ATOM     33  O   UNL     1     102.944 125.229 148.766  0.00  0.00    +0.000 OA
ATOM     34  O   UNL     1     103.446 126.582 149.566  0.00  0.00    +0.000 OA
ATOM     35  C   UNL     1     104.922 125.520 147.888  0.00  0.00    +0.000 C 
ATOM     36  C   UNL     1     104.179 125.198 148.047  0.00  0.00    +0.000 C 
ATOM     37  C   UNL     1     103.687 125.551 148.606  0.00  0.00    +0.000 C 
ATOM     38  C   UNL     1     103.938 126.228 149.006  0.00  0.00    +0.000 C 
ATOM     39  C   UNL     1     104.681 126.550 148.847  0.00  0.00    +0.000 C 
ATOM     40  C   UNL     1     104.931 127.226 149.248  0.00  0.00    +0.000 C 
ENDBRANCH  30  35
ENDBRANCH   4  30
TORSDOF 4
ENDMDL
MODEL 2
REMARK VINA RESULT:     -11.0      1.872      6.419
REMARK  Name = 44257705
REMARK  4 active torsions:
REMARK  status: ('A' for Active; 'I' for Inactive)
REMARK    1  A    between atoms: O_1  and  C_14
REMARK    2  A    between atoms: O_1  and  C_15
REMARK    3  A    between atoms: C_18  and  C_24
REMARK    4  A    between atoms: C_34  and  C_35
REMARK                            x       y       z     vdW  Elec       q    Type
REMARK                         _______ _______ _______ _____ _____    ______ ____
ROOT
ATOM      1  O   UNL     1     105.202 128.158 143.362  0.00  0.00    +0.000 OA
ATOM      2  O   UNL     1     106.749 128.221 141.431  0.00  0.00    +0.000 OA
ATOM      3  O   UNL     1     105.232 128.856 141.294  0.00  0.00    +0.000 OA
ATOM      4  C   UNL     1     106.476 127.861 142.787  0.00  0.00    +0.000 C 
ATOM      5  C   UNL     1     105.961 127.840 143.430  0.00  0.00    +0.000 C 
ATOM      6  C   UNL     1     106.233 128.200 142.074  0.00  0.00    +0.000 C 
ATOM      7  C   UNL     1     104.960 128.496 142.650  0.00  0.00    +0.000 C 
ATOM      8  C   UNL     1     105.475 128.518 142.006  0.00  0.00    +0.000 C 
ATOM      9  C   UNL     1     104.201 128.814 142.582  0.00  0.00    +0.000 C 
ENDROOT
BRANCH   5  14
ATOM     10  O   UNL     1     105.466 126.318 143.830  0.00  0.00    +0.000 OA
ATOM     11  O   UNL     1     106.941 128.685 144.453  0.00  0.00    +0.000 OA
ATOM     12  O   UNL     1     106.950 126.482 146.310  0.00  0.00    +0.000 OA
ATOM     13  O   UNL     1     105.446 125.193 144.734  0.00  0.00    +0.000 OA
ATOM     14  C   UNL     1     106.204 127.502 144.142  0.00  0.00    +0.000 A 
ATOM     15  C   UNL     1     105.957 126.740 144.342  0.00  0.00    +0.000 A 
ATOM     16  C   UNL     1     106.694 127.924 144.654  0.00  0.00    +0.000 A 
ATOM     17  C   UNL     1     106.200 126.401 145.055  0.00  0.00    +0.000 A 
ATOM     18  C   UNL     1     106.937 127.585 145.365  0.00  0.00    +0.000 A 
ATOM     19  C   UNL     1     106.690 126.824 145.566  0.00  0.00    +0.000 A 
ATOM     20  C   UNL     1     105.935 125.608 145.251  0.00  0.00    +0.000 A 
ATOM     21  C   UNL     1     106.186 125.250 145.992  0.00  0.00    +0.000 A 
ATOM     22  C   UNL     1     106.696 125.689 146.525  0.00  0.00    +0.000 A 
BRANCH  22  24
ATOM     23  O   UNL     1     107.675 124.344 149.374  0.00  0.00    +0.000 OA
ATOM     24  C   UNL     1     106.941 125.353 147.237  0.00  0.00    +0.000 A 
ATOM     25  C   UNL     1     107.745 125.278 147.403  0.00  0.00    +0.000 A 
ATOM     26  C   UNL     1     106.380 125.092 147.784  0.00  0.00    +0.000 A 
ATOM     27  C   UNL     1     107.990 124.942 148.115  0.00  0.00    +0.000 A 
ATOM     28  C   UNL     1     106.626 124.755 148.496  0.00  0.00    +0.000 A 
ATOM     29  C   UNL     1     107.431 124.681 148.661  0.00  0.00    +0.000 A 
ENDBRANCH  22  24
ENDBRANCH   5  14
BRANCH   4  30
ATOM     30  O   UNL     1     107.235 127.544 142.855  0.00  0.00    +0.000 OA
BRANCH  30  35
ATOM     31  O   UNL     1     107.001 126.449 141.966  0.00  0.00    +0.000 OA
ATOM     32  O   UNL     1     108.810 127.603 142.366  0.00  0.00    +0.000 OA
ATOM     33  O   UNL     1     109.363 126.539 141.234  0.00  0.00    +0.000 OA
ATOM     34  O   UNL     1     108.342 125.415 140.589  0.00  0.00    +0.000 OA
ATOM     35  C   UNL     1     107.511 127.011 142.288  0.00  0.00    +0.000 C 
ATOM     36  C   UNL     1     108.298 127.041 142.044  0.00  0.00    +0.000 C 
ATOM     37  C   UNL     1     108.576 126.509 141.478  0.00  0.00    +0.000 C 
ATOM     38  C   UNL     1     108.064 125.947 141.156  0.00  0.00    +0.000 C 
ATOM     39  C   UNL     1     107.277 125.918 141.400  0.00  0.00    +0.000 C 
ATOM     40  C   UNL     1     106.767 125.355 141.077  0.00  0.00    +0.000 C 
ENDBRANCH  30  35
ENDBRANCH   4  30
TORSDOF 4
ENDMDL
MODEL 3
REMARK VINA RESULT:     -10.8      9.067     11.010
REMARK  Name = 44257705
REMARK  4 active torsions:
REMARK  status: ('A' for Active; 'I' for Inactive)
REMARK    1  A    between atoms: O_1  and  C_14
REMARK    2  A    between atoms: O_1  and  C_15
REMARK    3  A    between atoms: C_18  and  C_24
REMARK    4  A    between atoms: C_34  and  C_35
REMARK                            x       y       z     vdW  Elec       q    Type
REMARK                         _______ _______ _______ _____ _____    ______ ____
ROOT
ATOM      1  O   UNL     1     113.475 125.657 137.357  0.00  0.00    +0.000 OA
ATOM      2  O   UNL     1     111.228 124.646 137.584  0.00  0.00    +0.000 OA
ATOM      3  O   UNL     1     112.377 123.905 136.661  0.00  0.00    +0.000 OA
ATOM      4  C   UNL     1     112.152 125.691 137.895  0.00  0.00    +0.000 C 
ATOM      5  C   UNL     1     112.901 126.028 137.819  0.00  0.00    +0.000 C 
ATOM      6  C   UNL     1     111.977 124.982 137.508  0.00  0.00    +0.000 C 
ATOM      7  C   UNL     1     113.301 124.950 136.971  0.00  0.00    +0.000 C 
ATOM      8  C   UNL     1     112.552 124.612 137.046  0.00  0.00    +0.000 C 
ATOM      9  C   UNL     1     113.875 124.579 136.510  0.00  0.00    +0.000 C 
ENDROOT
BRANCH   5  14
ATOM     10  O   UNL     1     113.279 126.019 139.425  0.00  0.00    +0.000 OA
ATOM     11  O   UNL     1     112.871 127.451 136.985  0.00  0.00    +0.000 OA
ATOM     12  O   UNL     1     113.603 128.895 139.369  0.00  0.00    +0.000 OA
ATOM     13  O   UNL     1     113.647 126.706 140.640  0.00  0.00    +0.000 OA
ATOM     14  C   UNL     1     113.075 126.736 138.205  0.00  0.00    +0.000 A 
ATOM     15  C   UNL     1     113.264 126.731 139.008  0.00  0.00    +0.000 A 
ATOM     16  C   UNL     1     113.060 127.448 137.789  0.00  0.00    +0.000 A 
ATOM     17  C   UNL     1     113.439 127.440 139.395  0.00  0.00    +0.000 A 
ATOM     18  C   UNL     1     113.234 128.155 138.175  0.00  0.00    +0.000 A 
ATOM     19  C   UNL     1     113.424 128.152 138.978  0.00  0.00    +0.000 A 
ATOM     20  C   UNL     1     113.634 127.421 140.231  0.00  0.00    +0.000 A 
ATOM     21  C   UNL     1     113.817 128.156 140.639  0.00  0.00    +0.000 A 
ATOM     22  C   UNL     1     113.802 128.898 140.205  0.00  0.00    +0.000 A 
BRANCH  22  24
ATOM     23  O   UNL     1     114.496 131.734 141.741  0.00  0.00    +0.000 OA
ATOM     24  C   UNL     1     113.975 129.607 140.589  0.00  0.00    +0.000 A 
ATOM     25  C   UNL     1     113.419 129.952 141.091  0.00  0.00    +0.000 A 
ATOM     26  C   UNL     1     114.706 129.971 140.471  0.00  0.00    +0.000 A 
ATOM     27  C   UNL     1     113.592 130.660 141.474  0.00  0.00    +0.000 A 
ATOM     28  C   UNL     1     114.880 130.681 140.856  0.00  0.00    +0.000 A 
ATOM     29  C   UNL     1     114.322 131.025 141.357  0.00  0.00    +0.000 A 
ENDBRANCH  22  24
ENDBRANCH   5  14
BRANCH   4  30
ATOM     30  O   UNL     1     111.577 126.061 138.356  0.00  0.00    +0.000 OA
BRANCH  30  35
ATOM     31  O   UNL     1     110.750 126.399 137.241  0.00  0.00    +0.000 OA
ATOM     32  O   UNL     1     110.243 126.000 139.326  0.00  0.00    +0.000 OA
ATOM     33  O   UNL     1     108.750 126.307 138.695  0.00  0.00    +0.000 OA
ATOM     34  O   UNL     1     108.590 126.674 137.094  0.00  0.00    +0.000 OA
ATOM     35  C   UNL     1     110.830 126.215 138.040  0.00  0.00    +0.000 C 
ATOM     36  C   UNL     1     110.163 126.184 138.525  0.00  0.00    +0.000 C 
ATOM     37  C   UNL     1     109.417 126.337 138.210  0.00  0.00    +0.000 C 
ATOM     38  C   UNL     1     109.337 126.521 137.410  0.00  0.00    +0.000 C 
ATOM     39  C   UNL     1     110.004 126.552 136.925  0.00  0.00    +0.000 C 
ATOM     40  C   UNL     1     109.923 126.736 136.125  0.00  0.00    +0.000 C 
ENDBRANCH  30  35
ENDBRANCH   4  30
TORSDOF 4
ENDMDL
MODEL 4
REMARK VINA RESULT:     -10.8      8.194     10.085
REMARK  Name = 44257705
REMARK  4 active torsions:
REMARK  status: ('A' for Active; 'I' for Inactive)
REMARK    1  A    between atoms: O_1  and  C_14
REMARK    2  A    between atoms: O_1  and  C_15
REMARK    3  A    between atoms: C_18  and  C_24
REMARK    4  A    between atoms: C_34  and  C_35
REMARK                            x       y       z     vdW  Elec       q    Type
REMARK                         _______ _______ _______ _____ _____    ______ ____
ROOT
ATOM      1  O   UNL     1     114.234 129.537 140.121  0.00  0.00    +0.000 OA
ATOM      2  O   UNL     1     112.910 130.101 142.134  0.00  0.00    +0.000 OA
ATOM      3  O   UNL     1     114.055 131.151 141.579  0.00  0.00    +0.000 OA
ATOM      4  C   UNL     1     113.219 129.200 141.069  0.00  0.00    +0.000 C 
ATOM      5  C   UNL     1     113.661 129.012 140.398  0.00  0.00    +0.000 C 
ATOM      6  C   UNL     1     113.351 129.913 141.463  0.00  0.00    +0.000 C 
ATOM      7  C   UNL     1     114.365 130.250 140.514  0.00  0.00    +0.000 C 
ATOM      8  C   UNL     1     113.924 130.438 141.186  0.00  0.00    +0.000 C 
ATOM      9  C   UNL     1     114.938 130.775 140.237  0.00  0.00    +0.000 C 
ENDROOT
BRANCH   5  14
ATOM     10  O   UNL     1     112.791 128.993 138.996  0.00  0.00    +0.000 OA
ATOM     11  O   UNL     1     114.267 127.606 141.013  0.00  0.00    +0.000 OA
ATOM     12  O   UNL     1     113.135 126.124 138.816  0.00  0.00    +0.000 OA
ATOM     13  O   UNL     1     112.208 128.287 137.880  0.00  0.00    +0.000 OA
ATOM     14  C   UNL     1     113.529 128.299 140.004  0.00  0.00    +0.000 A 
ATOM     15  C   UNL     1     113.094 128.290 139.303  0.00  0.00    +0.000 A 
ATOM     16  C   UNL     1     113.832 127.596 140.312  0.00  0.00    +0.000 A 
ATOM     17  C   UNL     1     112.962 127.576 138.910  0.00  0.00    +0.000 A 
ATOM     18  C   UNL     1     113.700 126.883 139.918  0.00  0.00    +0.000 A 
ATOM     19  C   UNL     1     113.265 126.873 139.217  0.00  0.00    +0.000 A 
ATOM     20  C   UNL     1     112.508 127.580 138.180  0.00  0.00    +0.000 A 
ATOM     21  C   UNL     1     112.367 126.840 137.766  0.00  0.00    +0.000 A 
ATOM     22  C   UNL     1     112.683 126.107 138.086  0.00  0.00    +0.000 A 
BRANCH  22  24
ATOM     23  O   UNL     1     112.160 123.251 136.520  0.00  0.00    +0.000 OA
ATOM     24  C   UNL     1     112.552 125.393 137.694  0.00  0.00    +0.000 A 
ATOM     25  C   UNL     1     111.817 125.022 137.747  0.00  0.00    +0.000 A 
ATOM     26  C   UNL     1     113.157 125.050 137.249  0.00  0.00    +0.000 A 
ATOM     27  C   UNL     1     111.687 124.308 137.356  0.00  0.00    +0.000 A 
ATOM     28  C   UNL     1     113.025 124.335 136.858  0.00  0.00    +0.000 A 
ATOM     29  C   UNL     1     112.290 123.965 136.911  0.00  0.00    +0.000 A 
ENDBRANCH  22  24
ENDBRANCH   5  14
BRANCH   4  30
ATOM     30  O   UNL     1     112.647 128.675 141.347  0.00  0.00    +0.000 OA
BRANCH  30  35
ATOM     31  O   UNL     1     111.536 129.514 141.024  0.00  0.00    +0.000 OA
ATOM     32  O   UNL     1     111.817 128.076 142.641  0.00  0.00    +0.000 OA
ATOM     33  O   UNL     1     110.292 128.615 142.965  0.00  0.00    +0.000 OA
ATOM     34  O   UNL     1     109.596 129.754 141.995  0.00  0.00    +0.000 OA
ATOM     35  C   UNL     1     111.884 128.945 141.508  0.00  0.00    +0.000 C 
ATOM     36  C   UNL     1     111.469 128.646 142.156  0.00  0.00    +0.000 C 
ATOM     37  C   UNL     1     110.707 128.915 142.318  0.00  0.00    +0.000 C 
ATOM     38  C   UNL     1     110.359 129.484 141.833  0.00  0.00    +0.000 C 
ATOM     39  C   UNL     1     110.774 129.784 141.185  0.00  0.00    +0.000 C 
ATOM     40  C   UNL     1     110.425 130.353 140.700  0.00  0.00    +0.000 C 
ENDBRANCH  30  35
ENDBRANCH   4  30
TORSDOF 4
ENDMDL
MODEL 5
REMARK VINA RESULT:     -10.7      7.777     10.365
REMARK  Name = 44257705
REMARK  4 active torsions:
REMARK  status: ('A' for Active; 'I' for Inactive)
REMARK    1  A    between atoms: O_1  and  C_14
REMARK    2  A    between atoms: O_1  and  C_15
REMARK    3  A    between atoms: C_18  and  C_24
REMARK    4  A    between atoms: C_34  and  C_35
REMARK                            x       y       z     vdW  Elec       q    Type
REMARK                         _______ _______ _______ _____ _____    ______ ____
ROOT
ATOM      1  O   UNL     1     110.385 130.801 141.739  0.00  0.00    +0.000 OA
ATOM      2  O   UNL     1     112.175 130.614 140.040  0.00  0.00    +0.000 OA
ATOM      3  O   UNL     1     110.593 130.487 139.589  0.00  0.00    +0.000 OA
ATOM      4  C   UNL     1     111.773 130.802 141.399  0.00  0.00    +0.000 C 
ATOM      5  C   UNL     1     111.176 130.864 141.964  0.00  0.00    +0.000 C 
ATOM      6  C   UNL     1     111.578 130.676 140.606  0.00  0.00    +0.000 C 
ATOM      7  C   UNL     1     110.191 130.675 140.947  0.00  0.00    +0.000 C 
ATOM      8  C   UNL     1     110.787 130.613 140.380  0.00  0.00    +0.000 C 
ATOM      9  C   UNL     1     109.400 130.612 140.722  0.00  0.00    +0.000 C 
ENDROOT
BRANCH   5  14
ATOM     10  O   UNL     1     111.566 132.379 142.487  0.00  0.00    +0.000 OA
ATOM     11  O   UNL     1     111.174 129.600 143.025  0.00  0.00    +0.000 OA
ATOM     12  O   UNL     1     111.960 131.359 145.167  0.00  0.00    +0.000 OA
ATOM     13  O   UNL     1     111.960 133.293 143.533  0.00  0.00    +0.000 OA
ATOM     14  C   UNL     1     111.370 130.990 142.757  0.00  0.00    +0.000 A 
ATOM     15  C   UNL     1     111.566 131.747 143.018  0.00  0.00    +0.000 A 
ATOM     16  C   UNL     1     111.369 130.358 143.287  0.00  0.00    +0.000 A 
ATOM     17  C   UNL     1     111.760 131.873 143.810  0.00  0.00    +0.000 A 
ATOM     18  C   UNL     1     111.564 130.483 144.078  0.00  0.00    +0.000 A 
ATOM     19  C   UNL     1     111.759 131.241 144.340  0.00  0.00    +0.000 A 
ATOM     20  C   UNL     1     111.962 132.667 144.069  0.00  0.00    +0.000 A 
ATOM     21  C   UNL     1     112.165 132.804 144.894  0.00  0.00    +0.000 A 
ATOM     22  C   UNL     1     112.165 132.146 145.446  0.00  0.00    +0.000 A 
BRANCH  22  24
ATOM     23  O   UNL     1     112.940 132.638 148.615  0.00  0.00    +0.000 OA
ATOM     24  C   UNL     1     112.359 132.269 146.238  0.00  0.00    +0.000 A 
ATOM     25  C   UNL     1     111.835 132.670 146.734  0.00  0.00    +0.000 A 
ATOM     26  C   UNL     1     113.076 131.990 146.535  0.00  0.00    +0.000 A 
ATOM     27  C   UNL     1     112.029 132.794 147.525  0.00  0.00    +0.000 A 
ATOM     28  C   UNL     1     113.270 132.114 147.328  0.00  0.00    +0.000 A 
ATOM     29  C   UNL     1     112.746 132.515 147.823  0.00  0.00    +0.000 A 
ENDBRANCH  22  24
ENDBRANCH   5  14
BRANCH   4  30
ATOM     30  O   UNL     1     112.564 130.865 141.624  0.00  0.00    +0.000 OA
BRANCH  30  35
ATOM     31  O   UNL     1     112.901 129.512 141.312  0.00  0.00    +0.000 OA
ATOM     32  O   UNL     1     114.087 131.341 141.204  0.00  0.00    +0.000 OA
ATOM     33  O   UNL     1     115.185 130.226 140.681  0.00  0.00    +0.000 OA
ATOM     34  O   UNL     1     114.760 128.635 140.579  0.00  0.00    +0.000 OA
ATOM     35  C   UNL     1     113.113 130.307 141.363  0.00  0.00    +0.000 C 
ATOM     36  C   UNL     1     113.874 130.545 141.153  0.00  0.00    +0.000 C 
ATOM     37  C   UNL     1     114.424 129.988 140.891  0.00  0.00    +0.000 C 
ATOM     38  C   UNL     1     114.211 129.193 140.841  0.00  0.00    +0.000 C 
ATOM     39  C   UNL     1     113.449 128.955 141.051  0.00  0.00    +0.000 C 
ATOM     40  C   UNL     1     113.238 128.159 140.999  0.00  0.00    +0.000 C 
ENDBRANCH  30  35
ENDBRANCH   4  30
TORSDOF 4
ENDMDL
MODEL 6
REMARK VINA RESULT:     -10.6      8.992     11.430
REMARK  Name = 44257705
REMARK  4 active torsions:
REMARK  status: ('A' for Active; 'I' for Inactive)
REMARK    1  A    between atoms: O_1  and  C_14
REMARK    2  A    between atoms: O_1  and  C_15
REMARK    3  A    between atoms: C_18  and  C_24
REMARK    4  A    between atoms: C_34  and  C_35
REMARK                            x       y       z     vdW  Elec       q    Type
REMARK                         _______ _______ _______ _____ _____    ______ ____
ROOT
ATOM      1  O   UNL     1     110.610 126.639 135.479  0.00  0.00    +0.000 OA
ATOM      2  O   UNL     1     112.074 125.322 136.979  0.00  0.00    +0.000 OA
ATOM      3  O   UNL     1     111.101 124.553 135.890  0.00  0.00    +0.000 OA
ATOM      4  C   UNL     1     111.584 126.585 136.524  0.00  0.00    +0.000 C 
ATOM      5  C   UNL     1     111.096 127.024 136.024  0.00  0.00    +0.000 C 
ATOM      6  C   UNL     1     111.586 125.761 136.479  0.00  0.00    +0.000 C 
ATOM      7  C   UNL     1     110.612 125.816 135.435  0.00  0.00    +0.000 C 
ATOM      8  C   UNL     1     111.100 125.376 135.935  0.00  0.00    +0.000 C 
ATOM      9  C   UNL     1     110.125 125.432 134.891  0.00  0.00    +0.000 C 
ENDROOT
BRANCH   5  14
ATOM     10  O   UNL     1     109.854 127.807 136.776  0.00  0.00    +0.000 OA
ATOM     11  O   UNL     1     112.336 127.888 135.362  0.00  0.00    +0.000 OA
ATOM     12  O   UNL     1     111.102 130.354 136.198  0.00  0.00    +0.000 OA
ATOM     13  O   UNL     1     109.204 129.019 137.212  0.00  0.00    +0.000 OA
ATOM     14  C   UNL     1     111.095 127.848 136.069  0.00  0.00    +0.000 A 
ATOM     15  C   UNL     1     110.473 128.239 136.444  0.00  0.00    +0.000 A 
ATOM     16  C   UNL     1     111.715 128.281 135.737  0.00  0.00    +0.000 A 
ATOM     17  C   UNL     1     110.472 129.064 136.489  0.00  0.00    +0.000 A 
ATOM     18  C   UNL     1     111.713 129.104 135.782  0.00  0.00    +0.000 A 
ATOM     19  C   UNL     1     111.092 129.496 136.158  0.00  0.00    +0.000 A 
ATOM     20  C   UNL     1     109.819 129.459 136.884  0.00  0.00    +0.000 A 
ATOM     21  C   UNL     1     109.812 130.318 136.933  0.00  0.00    +0.000 A 
ATOM     22  C   UNL     1     110.457 130.768 136.589  0.00  0.00    +0.000 A 
BRANCH  22  24
ATOM     23  O   UNL     1     110.460 134.063 136.761  0.00  0.00    +0.000 OA
ATOM     24  C   UNL     1     110.458 131.592 136.632  0.00  0.00    +0.000 A 
ATOM     25  C   UNL     1     109.994 132.033 136.112  0.00  0.00    +0.000 A 
ATOM     26  C   UNL     1     110.923 131.975 137.195  0.00  0.00    +0.000 A 
ATOM     27  C   UNL     1     109.994 132.856 136.155  0.00  0.00    +0.000 A 
ATOM     28  C   UNL     1     110.924 132.799 137.238  0.00  0.00    +0.000 A 
ATOM     29  C   UNL     1     110.459 133.239 136.718  0.00  0.00    +0.000 A 
ENDBRANCH  22  24
ENDBRANCH   5  14
BRANCH   4  30
ATOM     30  O   UNL     1     112.071 126.970 137.068  0.00  0.00    +0.000 OA
BRANCH  30  35
ATOM     31  O   UNL     1     111.331 126.550 138.216  0.00  0.00    +0.000 OA
ATOM     32  O   UNL     1     113.460 126.953 137.957  0.00  0.00    +0.000 OA
ATOM     33  O   UNL     1     113.415 126.525 139.550  0.00  0.00    +0.000 OA
ATOM     34  O   UNL     1     111.980 126.114 140.254  0.00  0.00    +0.000 OA
ATOM     35  C   UNL     1     112.047 126.756 137.864  0.00  0.00    +0.000 C 
ATOM     36  C   UNL     1     112.742 126.747 138.309  0.00  0.00    +0.000 C 
ATOM     37  C   UNL     1     112.720 126.533 139.105  0.00  0.00    +0.000 C 
ATOM     38  C   UNL     1     112.003 126.328 139.457  0.00  0.00    +0.000 C 
ATOM     39  C   UNL     1     111.308 126.336 139.012  0.00  0.00    +0.000 C 
ATOM     40  C   UNL     1     110.591 126.131 139.364  0.00  0.00    +0.000 C 
ENDBRANCH  30  35
ENDBRANCH   4  30
TORSDOF 4
ENDMDL
MODEL 7
REMARK VINA RESULT:     -10.6      9.952     11.953
REMARK  Name = 44257705
REMARK  4 active torsions:
REMARK  status: ('A' for Active; 'I' for Inactive)
REMARK    1  A    between atoms: O_1  and  C_14
REMARK    2  A    between atoms: O_1  and  C_15
REMARK    3  A    between atoms: C_18  and  C_24
REMARK    4  A    between atoms: C_34  and  C_35
REMARK                            x       y       z     vdW  Elec       q    Type
REMARK                         _______ _______ _______ _____ _____    ______ ____
ROOT
ATOM      1  O   UNL     1     113.237 130.210 136.917  0.00  0.00    +0.000 OA
ATOM      2  O   UNL     1     111.372 131.551 137.838  0.00  0.00    +0.000 OA
ATOM      3  O   UNL     1     112.647 132.302 137.108  0.00  0.00    +0.000 OA
ATOM      4  C   UNL     1     111.978 130.281 137.589  0.00  0.00    +0.000 C 
ATOM      5  C   UNL     1     112.599 129.834 137.282  0.00  0.00    +0.000 C 
ATOM      6  C   UNL     1     111.994 131.105 137.531  0.00  0.00    +0.000 C 
ATOM      7  C   UNL     1     113.253 131.032 136.859  0.00  0.00    +0.000 C 
ATOM      8  C   UNL     1     112.631 131.480 137.166  0.00  0.00    +0.000 C 
ATOM      9  C   UNL     1     113.890 131.407 136.494  0.00  0.00    +0.000 C 
ENDROOT
BRANCH   5  14
ATOM     10  O   UNL     1     112.177 128.923 135.973  0.00  0.00    +0.000 OA
ATOM     11  O   UNL     1     112.989 129.100 138.707  0.00  0.00    +0.000 OA
ATOM     12  O   UNL     1     112.538 126.509 137.529  0.00  0.00    +0.000 OA
ATOM     13  O   UNL     1     111.941 127.645 135.346  0.00  0.00    +0.000 OA
ATOM     14  C   UNL     1     112.583 129.011 137.340  0.00  0.00    +0.000 A 
ATOM     15  C   UNL     1     112.372 128.556 136.685  0.00  0.00    +0.000 A 
ATOM     16  C   UNL     1     112.778 128.644 138.052  0.00  0.00    +0.000 A 
ATOM     17  C   UNL     1     112.356 127.732 136.743  0.00  0.00    +0.000 A 
ATOM     18  C   UNL     1     112.762 127.821 138.110  0.00  0.00    +0.000 A 
ATOM     19  C   UNL     1     112.551 127.365 137.456  0.00  0.00    +0.000 A 
ATOM     20  C   UNL     1     112.134 127.270 136.054  0.00  0.00    +0.000 A 
ATOM     21  C   UNL     1     112.115 126.412 136.108  0.00  0.00    +0.000 A 
ATOM     22  C   UNL     1     112.318 126.029 136.850  0.00  0.00    +0.000 A 
BRANCH  22  24
ATOM     23  O   UNL     1     112.255 122.739 137.093  0.00  0.00    +0.000 OA
ATOM     24  C   UNL     1     112.303 125.207 136.911  0.00  0.00    +0.000 A 
ATOM     25  C   UNL     1     111.610 124.823 137.141  0.00  0.00    +0.000 A 
ATOM     26  C   UNL     1     112.980 124.768 136.741  0.00  0.00    +0.000 A 
ATOM     27  C   UNL     1     111.594 124.001 137.202  0.00  0.00    +0.000 A 
ATOM     28  C   UNL     1     112.964 123.944 136.802  0.00  0.00    +0.000 A 
ATOM     29  C   UNL     1     112.271 123.562 137.033  0.00  0.00    +0.000 A 
ENDBRANCH  22  24
ENDBRANCH   5  14
BRANCH   4  30
ATOM     30  O   UNL     1     111.340 129.906 137.954  0.00  0.00    +0.000 OA
BRANCH  30  35
ATOM     31  O   UNL     1     110.394 130.238 136.935  0.00  0.00    +0.000 OA
ATOM     32  O   UNL     1     110.145 129.982 139.089  0.00  0.00    +0.000 OA
ATOM     33  O   UNL     1     108.601 130.352 138.638  0.00  0.00    +0.000 OA
ATOM     34  O   UNL     1     108.253 130.646 137.052  0.00  0.00    +0.000 OA
ATOM     35  C   UNL     1     110.568 130.091 137.728  0.00  0.00    +0.000 C 
ATOM     36  C   UNL     1     109.971 130.129 138.295  0.00  0.00    +0.000 C 
ATOM     37  C   UNL     1     109.199 130.314 138.070  0.00  0.00    +0.000 C 
ATOM     38  C   UNL     1     109.026 130.461 137.277  0.00  0.00    +0.000 C 
ATOM     39  C   UNL     1     109.623 130.423 136.710  0.00  0.00    +0.000 C 
ATOM     40  C   UNL     1     109.448 130.570 135.917  0.00  0.00    +0.000 C 
ENDBRANCH  30  35
ENDBRANCH   4  30
TORSDOF 4
ENDMDL
MODEL 8
REMARK VINA RESULT:     -10.6      9.014     11.336
REMARK  Name = 44257705
REMARK  4 active torsions:
REMARK  status: ('A' for Active; 'I' for Inactive)
REMARK    1  A    between atoms: O_1  and  C_14
REMARK    2  A    between atoms: O_1  and  C_15
REMARK    3  A    between atoms: C_18  and  C_24
REMARK    4  A    between atoms: C_34  and  C_35
REMARK                            x       y       z     vdW  Elec       q    Type
REMARK                         _______ _______ _______ _____ _____    ______ ____
ROOT
ATOM      1  O   UNL     1     109.209 130.316 135.450  0.00  0.00    +0.000 OA
ATOM      2  O   UNL     1     108.224 131.434 137.426  0.00  0.00    +0.000 OA
ATOM      3  O   UNL     1     108.061 132.109 135.930  0.00  0.00    +0.000 OA
ATOM      4  C   UNL     1     108.962 130.350 136.857  0.00  0.00    +0.000 C 
ATOM      5  C   UNL     1     109.290 129.978 136.198  0.00  0.00    +0.000 C 
ATOM      6  C   UNL     1     108.552 131.062 136.767  0.00  0.00    +0.000 C 
ATOM      7  C   UNL     1     108.799 131.026 135.361  0.00  0.00    +0.000 C 
ATOM      8  C   UNL     1     108.471 131.399 136.019  0.00  0.00    +0.000 C 
ATOM      9  C   UNL     1     108.718 131.363 134.612  0.00  0.00    +0.000 C 
ENDROOT
BRANCH   5  14
ATOM     10  O   UNL     1     108.460 128.558 136.331  0.00  0.00    +0.000 OA
ATOM     11  O   UNL     1     110.939 129.977 136.246  0.00  0.00    +0.000 OA
ATOM     12  O   UNL     1     110.957 127.113 136.561  0.00  0.00    +0.000 OA
ATOM     13  O   UNL     1     108.426 127.124 136.487  0.00  0.00    +0.000 OA
ATOM     14  C   UNL     1     109.700 129.267 136.288  0.00  0.00    +0.000 A 
ATOM     15  C   UNL     1     109.285 128.558 136.354  0.00  0.00    +0.000 A 
ATOM     16  C   UNL     1     110.525 129.266 136.312  0.00  0.00    +0.000 A 
ATOM     17  C   UNL     1     109.695 127.847 136.444  0.00  0.00    +0.000 A 
ATOM     18  C   UNL     1     110.934 128.556 136.402  0.00  0.00    +0.000 A 
ATOM     19  C   UNL     1     110.519 127.846 136.468  0.00  0.00    +0.000 A 
ATOM     20  C   UNL     1     109.250 127.114 136.512  0.00  0.00    +0.000 A 
ATOM     21  C   UNL     1     109.672 126.371 136.606  0.00  0.00    +0.000 A 
ATOM     22  C   UNL     1     110.530 126.370 136.630  0.00  0.00    +0.000 A 
BRANCH  22  24
ATOM     23  O   UNL     1     112.178 123.534 136.991  0.00  0.00    +0.000 OA
ATOM     24  C   UNL     1     110.942 125.661 136.720  0.00  0.00    +0.000 A 
ATOM     25  C   UNL     1     111.170 125.408 137.472  0.00  0.00    +0.000 A 
ATOM     26  C   UNL     1     111.127 125.204 136.058  0.00  0.00    +0.000 A 
ATOM     27  C   UNL     1     111.581 124.700 137.562  0.00  0.00    +0.000 A 
ATOM     28  C   UNL     1     111.539 124.495 136.149  0.00  0.00    +0.000 A 
ATOM     29  C   UNL     1     111.766 124.243 136.901  0.00  0.00    +0.000 A 
ENDBRANCH  22  24
ENDBRANCH   5  14
BRANCH   4  30
ATOM     30  O   UNL     1     109.044 130.013 137.606  0.00  0.00    +0.000 OA
BRANCH  30  35
ATOM     31  O   UNL     1     109.857 131.076 138.105  0.00  0.00    +0.000 OA
ATOM     32  O   UNL     1     108.495 129.715 139.133  0.00  0.00    +0.000 OA
ATOM     33  O   UNL     1     109.035 130.630 140.396  0.00  0.00    +0.000 OA
ATOM     34  O   UNL     1     110.123 131.842 140.132  0.00  0.00    +0.000 OA
ATOM     35  C   UNL     1     109.314 130.471 138.237  0.00  0.00    +0.000 C 
ATOM     36  C   UNL     1     109.040 130.322 139.001  0.00  0.00    +0.000 C 
ATOM     37  C   UNL     1     109.309 130.778 139.632  0.00  0.00    +0.000 C 
ATOM     38  C   UNL     1     109.853 131.384 139.500  0.00  0.00    +0.000 C 
ATOM     39  C   UNL     1     110.127 131.533 138.736  0.00  0.00    +0.000 C 
ATOM     40  C   UNL     1     110.671 132.139 138.604  0.00  0.00    +0.000 C 
ENDBRANCH  30  35
ENDBRANCH   4  30
TORSDOF 4
ENDMDL
MODEL 9
REMARK VINA RESULT:     -10.6      9.011     11.212
REMARK  Name = 44257705
REMARK  4 active torsions:
REMARK  status: ('A' for Active; 'I' for Inactive)
REMARK    1  A    between atoms: O_1  and  C_14
REMARK    2  A    between atoms: O_1  and  C_15
REMARK    3  A    between atoms: C_18  and  C_24
REMARK    4  A    between atoms: C_34  and  C_35
REMARK                            x       y       z     vdW  Elec       q    Type
REMARK                         _______ _______ _______ _____ _____    ______ ____
ROOT
ATOM      1  O   UNL     1     113.635 126.350 136.366  0.00  0.00    +0.000 OA
ATOM      2  O   UNL     1     113.538 125.294 138.602  0.00  0.00    +0.000 OA
ATOM      3  O   UNL     1     114.817 124.996 137.603  0.00  0.00    +0.000 OA
ATOM      4  C   UNL     1     112.963 126.148 137.610  0.00  0.00    +0.000 C 
ATOM      5  C   UNL     1     112.996 126.500 136.865  0.00  0.00    +0.000 C 
ATOM      6  C   UNL     1     113.571 125.646 137.856  0.00  0.00    +0.000 C 
ATOM      7  C   UNL     1     114.242 125.849 136.611  0.00  0.00    +0.000 C 
ATOM      8  C   UNL     1     114.211 125.497 137.357  0.00  0.00    +0.000 C 
ATOM      9  C   UNL     1     114.881 125.700 136.112  0.00  0.00    +0.000 C 
ENDROOT
BRANCH   5  14
ATOM     10  O   UNL     1     113.208 128.135 136.911  0.00  0.00    +0.000 OA
ATOM     11  O   UNL     1     111.570 125.867 136.328  0.00  0.00    +0.000 OA
ATOM     12  O   UNL     1     110.534 128.516 135.869  0.00  0.00    +0.000 OA
ATOM     13  O   UNL     1     112.725 129.479 136.695  0.00  0.00    +0.000 OA
ATOM     14  C   UNL     1     112.388 127.002 136.619  0.00  0.00    +0.000 A 
ATOM     15  C   UNL     1     112.495 127.819 136.642  0.00  0.00    +0.000 A 
ATOM     16  C   UNL     1     111.675 126.685 136.350  0.00  0.00    +0.000 A 
ATOM     17  C   UNL     1     111.887 128.321 136.396  0.00  0.00    +0.000 A 
ATOM     18  C   UNL     1     111.069 127.187 136.105  0.00  0.00    +0.000 A 
ATOM     19  C   UNL     1     111.174 128.005 136.128  0.00  0.00    +0.000 A 
ATOM     20  C   UNL     1     112.010 129.171 136.426  0.00  0.00    +0.000 A 
ATOM     21  C   UNL     1     111.380 129.699 136.171  0.00  0.00    +0.000 A 
ATOM     22  C   UNL     1     110.638 129.369 135.891  0.00  0.00    +0.000 A 
BRANCH  22  24
ATOM     23  O   UNL     1     108.202 131.366 134.907  0.00  0.00    +0.000 OA
ATOM     24  C   UNL     1     110.029 129.869 135.644  0.00  0.00    +0.000 A 
ATOM     25  C   UNL     1     109.457 130.118 136.184  0.00  0.00    +0.000 A 
ATOM     26  C   UNL     1     109.993 130.119 134.859  0.00  0.00    +0.000 A 
ATOM     27  C   UNL     1     108.848 130.616 135.938  0.00  0.00    +0.000 A 
ATOM     28  C   UNL     1     109.383 130.618 134.613  0.00  0.00    +0.000 A 
ATOM     29  C   UNL     1     108.811 130.867 135.153  0.00  0.00    +0.000 A 
ENDBRANCH  22  24
ENDBRANCH   5  14
BRANCH   4  30
ATOM     30  O   UNL     1     112.324 126.297 138.110  0.00  0.00    +0.000 OA
BRANCH  30  35
ATOM     31  O   UNL     1     113.081 127.039 139.069  0.00  0.00    +0.000 OA
ATOM     32  O   UNL     1     111.339 125.746 139.313  0.00  0.00    +0.000 OA
ATOM     33  O   UNL     1     111.603 126.212 140.874  0.00  0.00    +0.000 OA
ATOM     34  O   UNL     1     112.852 127.229 141.231  0.00  0.00    +0.000 OA
ATOM     35  C   UNL     1     112.456 126.531 138.890  0.00  0.00    +0.000 C 
ATOM     36  C   UNL     1     111.964 126.255 139.492  0.00  0.00    +0.000 C 
ATOM     37  C   UNL     1     112.095 126.488 140.272  0.00  0.00    +0.000 C 
ATOM     38  C   UNL     1     112.720 126.996 140.450  0.00  0.00    +0.000 C 
ATOM     39  C   UNL     1     113.213 127.272 139.849  0.00  0.00    +0.000 C 
ATOM     40  C   UNL     1     113.837 127.780 140.028  0.00  0.00    +0.000 C 
ENDBRANCH  30  35
ENDBRANCH   4  30
TORSDOF 4
ENDMDL
MODEL 10
REMARK VINA RESULT:     -10.5      1.299      2.117
REMARK  Name = 44257705
REMARK  4 active torsions:
REMARK  status: ('A' for Active; 'I' for Inactive)
REMARK    1  A    between atoms: O_1  and  C_14
REMARK    2  A    between atoms: O_1  and  C_15
REMARK    3  A    between atoms: C_18  and  C_24
REMARK    4  A    between atoms: C_34  and  C_35
REMARK                            x       y       z     vdW  Elec       q    Type
REMARK                         _______ _______ _______ _____ _____    ______ ____
ROOT
ATOM      1  O   UNL     1     106.858 125.723 146.936  0.00  0.00    +0.000 OA
ATOM      2  O   UNL     1     105.053 124.458 148.062  0.00  0.00    +0.000 OA
ATOM      3  O   UNL     1     106.626 124.217 148.498  0.00  0.00    +0.000 OA
ATOM      4  C   UNL     1     105.469 125.423 147.093  0.00  0.00    +0.000 C 
ATOM      5  C   UNL     1     106.071 125.844 146.718  0.00  0.00    +0.000 C 
ATOM      6  C   UNL     1     105.655 124.880 147.687  0.00  0.00    +0.000 C 
ATOM      7  C   UNL     1     107.042 125.181 147.529  0.00  0.00    +0.000 C 
ATOM      8  C   UNL     1     106.441 124.759 147.905  0.00  0.00    +0.000 C 
ATOM      9  C   UNL     1     107.829 125.061 147.747  0.00  0.00    +0.000 C 
ENDROOT
BRANCH   5  14
ATOM     10  O   UNL     1     106.338 125.459 145.136  0.00  0.00    +0.000 OA
ATOM     11  O   UNL     1     105.433 127.314 147.113  0.00  0.00    +0.000 OA
ATOM     12  O   UNL     1     105.318 128.044 144.328  0.00  0.00    +0.000 OA
ATOM     13  O   UNL     1     106.297 125.787 143.731  0.00  0.00    +0.000 OA
ATOM     14  C   UNL     1     105.886 126.387 146.124  0.00  0.00    +0.000 A 
ATOM     15  C   UNL     1     106.020 126.194 145.333  0.00  0.00    +0.000 A 
ATOM     16  C   UNL     1     105.567 127.122 146.321  0.00  0.00    +0.000 A 
ATOM     17  C   UNL     1     105.834 126.736 144.739  0.00  0.00    +0.000 A 
ATOM     18  C   UNL     1     105.382 127.663 145.728  0.00  0.00    +0.000 A 
ATOM     19  C   UNL     1     105.515 127.471 144.937  0.00  0.00    +0.000 A 
ATOM     20  C   UNL     1     105.978 126.523 143.920  0.00  0.00    +0.000 A 
ATOM     21  C   UNL     1     105.787 127.085 143.296  0.00  0.00    +0.000 A 
ATOM     22  C   UNL     1     105.455 127.850 143.502  0.00  0.00    +0.000 A 
BRANCH  22  24
ATOM     23  O   UNL     1     104.709 130.025 141.136  0.00  0.00    +0.000 OA
ATOM     24  C   UNL     1     105.269 128.394 142.911  0.00  0.00    +0.000 A 
ATOM     25  C   UNL     1     104.510 128.408 142.588  0.00  0.00    +0.000 A 
ATOM     26  C   UNL     1     105.842 128.923 142.642  0.00  0.00    +0.000 A 
ATOM     27  C   UNL     1     104.324 128.952 141.997  0.00  0.00    +0.000 A 
ATOM     28  C   UNL     1     105.655 129.467 142.050  0.00  0.00    +0.000 A 
ATOM     29  C   UNL     1     104.896 129.481 141.728  0.00  0.00    +0.000 A 
ENDBRANCH  22  24
ENDBRANCH   5  14
BRANCH   4  30
ATOM     30  O   UNL     1     104.683 125.543 146.875  0.00  0.00    +0.000 OA
BRANCH  30  35
ATOM     31  O   UNL     1     104.495 124.283 146.228  0.00  0.00    +0.000 OA
ATOM     32  O   UNL     1     103.135 125.483 147.443  0.00  0.00    +0.000 OA
ATOM     33  O   UNL     1     102.173 124.193 147.080  0.00  0.00    +0.000 OA
ATOM     34  O   UNL     1     102.758 122.963 146.149  0.00  0.00    +0.000 OA
ATOM     35  C   UNL     1     104.202 124.898 146.693  0.00  0.00    +0.000 C 
ATOM     36  C   UNL     1     103.428 124.867 146.977  0.00  0.00    +0.000 C 
ATOM     37  C   UNL     1     102.947 124.223 146.796  0.00  0.00    +0.000 C 
ATOM     38  C   UNL     1     103.240 123.608 146.331  0.00  0.00    +0.000 C 
ATOM     39  C   UNL     1     104.014 123.638 146.047  0.00  0.00    +0.000 C 
ATOM     40  C   UNL     1     104.306 123.023 145.581  0.00  0.00    +0.000 C 
ENDBRANCH  30  35
ENDBRANCH   4  30
TORSDOF 4
ENDMDL
