MODEL 1
REMARK VINA RESULT:      -9.1      0.000      0.000
REMARK  Name = 44258510
REMARK  5 active torsions:
REMARK  status: ('A' for Active; 'I' for Inactive)
REMARK    1  A    between atoms: O_2  and  C_17
REMARK    2  A    between atoms: O_2  and  C_20
REMARK    3  A    between atoms: O_9  and  C_21
REMARK    4  A    between atoms: C_18  and  C_19
REMARK    5  A    between atoms: C_27  and  C_29
REMARK                            x       y       z     vdW  Elec       q    Type
REMARK                         _______ _______ _______ _____ _____    ______ ____
ROOT
ATOM      1  O   UNL     1     110.742 127.371 136.265  0.00  0.00    +0.000 OA
ATOM      2  O   UNL     1     110.917 124.534 135.714  0.00  0.00    +0.000 OA
ATOM      3  O   UNL     1     110.226 125.388 134.777  0.00  0.00    +0.000 OA
ATOM      4  C   UNL     1     111.680 125.711 137.386  0.00  0.00    +0.000 A 
ATOM      5  C   UNL     1     111.510 125.068 136.899  0.00  0.00    +0.000 A 
ATOM      6  C   UNL     1     111.426 126.467 137.174  0.00  0.00    +0.000 A 
ATOM      7  C   UNL     1     111.002 126.579 136.475  0.00  0.00    +0.000 A 
ATOM      8  C   UNL     1     110.832 125.934 135.988  0.00  0.00    +0.000 A 
ATOM      9  C   UNL     1     111.086 125.179 136.200  0.00  0.00    +0.000 A 
ATOM     10  C   UNL     1     110.391 126.037 135.258  0.00  0.00    +0.000 A 
ATOM     11  C   UNL     1     110.301 127.493 135.538  0.00  0.00    +0.000 A 
ATOM     12  C   UNL     1     110.124 126.822 135.031  0.00  0.00    +0.000 A 
ENDROOT
BRANCH  11  15
ATOM     13  O   UNL     1     108.345 129.573 135.667  0.00  0.00    +0.000 OA
ATOM     14  O   UNL     1     109.288 130.519 134.699  0.00  0.00    +0.000 OA
ATOM     15  C   UNL     1     110.048 128.250 135.328  0.00  0.00    +0.000 A 
ATOM     16  C   UNL     1     109.323 128.533 135.602  0.00  0.00    +0.000 A 
ATOM     17  C   UNL     1     110.519 128.723 134.845  0.00  0.00    +0.000 A 
ATOM     18  C   UNL     1     109.069 129.289 135.393  0.00  0.00    +0.000 A 
ATOM     19  C   UNL     1     110.266 129.480 134.635  0.00  0.00    +0.000 A 
ATOM     20  C   UNL     1     109.541 129.762 134.909  0.00  0.00    +0.000 A 
ENDBRANCH  11  15
BRANCH   5  21
ATOM     21  O   UNL     1     111.765 124.311 137.112  0.00  0.00    +0.000 OA
ATOM     22  C   UNL     1     112.378 123.951 136.694  0.00  0.00    +0.000 C 
ENDBRANCH   5  21
BRANCH   4  23
ATOM     23  O   UNL     1     112.104 125.600 138.085  0.00  0.00    +0.000 OA
BRANCH  23  31
ATOM     24  O   UNL     1     111.039 125.781 139.021  0.00  0.00    +0.000 OA
ATOM     25  O   UNL     1     112.537 127.122 140.465  0.00  0.00    +0.000 OA
ATOM     26  O   UNL     1     113.103 126.493 139.048  0.00  0.00    +0.000 OA
ATOM     27  O   UNL     1     110.974 126.856 140.919  0.00  0.00    +0.000 OA
ATOM     28  C   UNL     1     112.038 126.675 139.984  0.00  0.00    +0.000 C 
ATOM     29  C   UNL     1     112.321 126.360 139.275  0.00  0.00    +0.000 C 
ATOM     30  C   UNL     1     111.256 126.542 140.210  0.00  0.00    +0.000 C 
ATOM     31  C   UNL     1     111.821 125.914 138.793  0.00  0.00    +0.000 C 
ATOM     32  C   UNL     1     110.757 126.095 139.729  0.00  0.00    +0.000 C 
BRANCH  32  35
ATOM     33  O   UNL     1     109.770 125.263 140.342  0.00  0.00    +0.000 OA
ATOM     34  O   UNL     1     109.398 126.530 139.796  0.00  0.00    +0.000 OA
ATOM     35  C   UNL     1     109.975 125.963 139.956  0.00  0.00    +0.000 C 
ENDBRANCH  32  35
ENDBRANCH  23  31
ENDBRANCH   4  23
TORSDOF 5
ENDMDL
MODEL 2
REMARK VINA RESULT:      -9.1      7.618     11.032
REMARK  Name = 44258510
REMARK  5 active torsions:
REMARK  status: ('A' for Active; 'I' for Inactive)
REMARK    1  A    between atoms: O_2  and  C_17
REMARK    2  A    between atoms: O_2  and  C_20
REMARK    3  A    between atoms: O_9  and  C_21
REMARK    4  A    between atoms: C_18  and  C_19
REMARK    5  A    between atoms: C_27  and  C_29
REMARK                            x       y       z     vdW  Elec       q    Type
REMARK                         _______ _______ _______ _____ _____    ______ ____
ROOT
ATOM      1  O   UNL     1     104.205 124.854 145.817  0.00  0.00    +0.000 OA
ATOM      2  O   UNL     1     106.754 125.142 147.159  0.00  0.00    +0.000 OA
ATOM      3  O   UNL     1     105.805 124.176 147.659  0.00  0.00    +0.000 OA
ATOM      4  C   UNL     1     105.934 126.174 145.419  0.00  0.00    +0.000 A 
ATOM      5  C   UNL     1     106.453 125.950 146.020  0.00  0.00    +0.000 A 
ATOM      6  C   UNL     1     105.196 125.810 145.356  0.00  0.00    +0.000 A 
ATOM      7  C   UNL     1     104.977 125.225 145.894  0.00  0.00    +0.000 A 
ATOM      8  C   UNL     1     105.497 125.002 146.495  0.00  0.00    +0.000 A 
ATOM      9  C   UNL     1     106.234 125.365 146.558  0.00  0.00    +0.000 A 
ATOM     10  C   UNL     1     105.280 124.393 147.061  0.00  0.00    +0.000 A 
ATOM     11  C   UNL     1     103.972 124.243 146.374  0.00  0.00    +0.000 A 
ATOM     12  C   UNL     1     104.512 124.011 147.001  0.00  0.00    +0.000 A 
ENDROOT
BRANCH  11  15
ATOM     13  O   UNL     1     101.165 124.234 146.913  0.00  0.00    +0.000 OA
ATOM     14  O   UNL     1     101.016 122.799 146.113  0.00  0.00    +0.000 OA
ATOM     15  C   UNL     1     103.233 123.882 146.309  0.00  0.00    +0.000 A 
ATOM     16  C   UNL     1     102.568 124.238 146.643  0.00  0.00    +0.000 A 
ATOM     17  C   UNL     1     103.159 123.164 145.909  0.00  0.00    +0.000 A 
ATOM     18  C   UNL     1     101.830 123.878 146.578  0.00  0.00    +0.000 A 
ATOM     19  C   UNL     1     102.420 122.803 145.843  0.00  0.00    +0.000 A 
ATOM     20  C   UNL     1     101.755 123.160 146.178  0.00  0.00    +0.000 A 
ENDBRANCH  11  15
BRANCH   5  21
ATOM     21  O   UNL     1     107.192 126.314 146.083  0.00  0.00    +0.000 OA
ATOM     22  C   UNL     1     107.337 126.849 146.694  0.00  0.00    +0.000 C 
ENDBRANCH   5  21
BRANCH   4  23
ATOM     23  O   UNL     1     106.153 126.760 144.881  0.00  0.00    +0.000 OA
BRANCH  23  31
ATOM     24  O   UNL     1     106.305 125.976 143.696  0.00  0.00    +0.000 OA
ATOM     25  O   UNL     1     105.041 127.672 142.411  0.00  0.00    +0.000 OA
ATOM     26  O   UNL     1     105.311 127.891 144.024  0.00  0.00    +0.000 OA
ATOM     27  O   UNL     1     105.614 126.323 141.655  0.00  0.00    +0.000 OA
ATOM     28  C   UNL     1     105.463 127.106 142.840  0.00  0.00    +0.000 C 
ATOM     29  C   UNL     1     105.598 127.216 143.647  0.00  0.00    +0.000 C 
ATOM     30  C   UNL     1     105.749 126.432 142.462  0.00  0.00    +0.000 C 
ATOM     31  C   UNL     1     106.019 126.650 144.075  0.00  0.00    +0.000 C 
ATOM     32  C   UNL     1     106.171 125.866 142.890  0.00  0.00    +0.000 C 
BRANCH  32  35
ATOM     33  O   UNL     1     105.959 124.546 142.386  0.00  0.00    +0.000 OA
ATOM     34  O   UNL     1     107.242 125.163 142.259  0.00  0.00    +0.000 OA
ATOM     35  C   UNL     1     106.457 125.192 142.512  0.00  0.00    +0.000 C 
ENDBRANCH  32  35
ENDBRANCH  23  31
ENDBRANCH   4  23
TORSDOF 5
ENDMDL
MODEL 3
REMARK VINA RESULT:      -9.0      2.397      4.658
REMARK  Name = 44258510
REMARK  5 active torsions:
REMARK  status: ('A' for Active; 'I' for Inactive)
REMARK    1  A    between atoms: O_2  and  C_17
REMARK    2  A    between atoms: O_2  and  C_20
REMARK    3  A    between atoms: O_9  and  C_21
REMARK    4  A    between atoms: C_18  and  C_19
REMARK    5  A    between atoms: C_27  and  C_29
REMARK                            x       y       z     vdW  Elec       q    Type
REMARK                         _______ _______ _______ _____ _____    ______ ____
ROOT
ATOM      1  O   UNL     1     110.831 127.396 136.345  0.00  0.00    +0.000 OA
ATOM      2  O   UNL     1     108.484 128.969 135.717  0.00  0.00    +0.000 OA
ATOM      3  O   UNL     1     108.357 127.536 135.825  0.00  0.00    +0.000 OA
ATOM      4  C   UNL     1     110.549 129.574 136.083  0.00  0.00    +0.000 A 
ATOM      5  C   UNL     1     109.743 129.615 135.914  0.00  0.00    +0.000 A 
ATOM      6  C   UNL     1     110.903 128.841 136.224  0.00  0.00    +0.000 A 
ATOM      7  C   UNL     1     110.451 128.152 136.196  0.00  0.00    +0.000 A 
ATOM      8  C   UNL     1     109.644 128.195 136.027  0.00  0.00    +0.000 A 
ATOM      9  C   UNL     1     109.291 128.926 135.886  0.00  0.00    +0.000 A 
ATOM     10  C   UNL     1     109.163 127.484 135.995  0.00  0.00    +0.000 A 
ATOM     11  C   UNL     1     110.365 126.675 136.317  0.00  0.00    +0.000 A 
ATOM     12  C   UNL     1     109.525 126.719 136.141  0.00  0.00    +0.000 A 
ENDROOT
BRANCH  11  15
ATOM     13  O   UNL     1     111.387 124.733 138.149  0.00  0.00    +0.000 OA
ATOM     14  O   UNL     1     111.790 123.753 136.884  0.00  0.00    +0.000 OA
ATOM     15  C   UNL     1     110.721 125.944 136.459  0.00  0.00    +0.000 A 
ATOM     16  C   UNL     1     110.876 125.704 137.233  0.00  0.00    +0.000 A 
ATOM     17  C   UNL     1     110.923 125.454 135.827  0.00  0.00    +0.000 A 
ATOM     18  C   UNL     1     111.232 124.974 137.375  0.00  0.00    +0.000 A 
ATOM     19  C   UNL     1     111.279 124.724 135.968  0.00  0.00    +0.000 A 
ATOM     20  C   UNL     1     111.434 124.484 136.743  0.00  0.00    +0.000 A 
ENDBRANCH  11  15
BRANCH   5  21
ATOM     21  O   UNL     1     109.389 130.348 135.773  0.00  0.00    +0.000 OA
ATOM     22  C   UNL     1     109.142 130.546 135.011  0.00  0.00    +0.000 C 
ENDBRANCH   5  21
BRANCH   4  23
ATOM     23  O   UNL     1     111.002 130.263 136.111  0.00  0.00    +0.000 OA
BRANCH  23  31
ATOM     24  O   UNL     1     111.143 130.433 137.523  0.00  0.00    +0.000 OA
ATOM     25  O   UNL     1     113.564 130.856 137.230  0.00  0.00    +0.000 OA
ATOM     26  O   UNL     1     112.616 130.545 135.916  0.00  0.00    +0.000 OA
ATOM     27  O   UNL     1     112.898 130.885 138.739  0.00  0.00    +0.000 OA
ATOM     28  C   UNL     1     112.757 130.715 137.328  0.00  0.00    +0.000 C 
ATOM     29  C   UNL     1     112.282 130.559 136.670  0.00  0.00    +0.000 C 
ATOM     30  C   UNL     1     112.424 130.729 138.082  0.00  0.00    +0.000 C 
ATOM     31  C   UNL     1     111.475 130.418 136.768  0.00  0.00    +0.000 C 
ATOM     32  C   UNL     1     111.617 130.588 138.180  0.00  0.00    +0.000 C 
BRANCH  32  35
ATOM     33  O   UNL     1     110.956 131.301 139.228  0.00  0.00    +0.000 OA
ATOM     34  O   UNL     1     111.279 129.919 139.396  0.00  0.00    +0.000 OA
ATOM     35  C   UNL     1     111.284 130.603 138.934  0.00  0.00    +0.000 C 
ENDBRANCH  32  35
ENDBRANCH  23  31
ENDBRANCH   4  23
TORSDOF 5
ENDMDL
MODEL 4
REMARK VINA RESULT:      -8.9      2.292      5.083
REMARK  Name = 44258510
REMARK  5 active torsions:
REMARK  status: ('A' for Active; 'I' for Inactive)
REMARK    1  A    between atoms: O_2  and  C_17
REMARK    2  A    between atoms: O_2  and  C_20
REMARK    3  A    between atoms: O_9  and  C_21
REMARK    4  A    between atoms: C_18  and  C_19
REMARK    5  A    between atoms: C_27  and  C_29
REMARK                            x       y       z     vdW  Elec       q    Type
REMARK                         _______ _______ _______ _____ _____    ______ ____
ROOT
ATOM      1  O   UNL     1     112.066 127.465 136.868  0.00  0.00    +0.000 OA
ATOM      2  O   UNL     1     113.806 129.599 135.977  0.00  0.00    +0.000 OA
ATOM      3  O   UNL     1     114.208 128.231 135.756  0.00  0.00    +0.000 OA
ATOM      4  C   UNL     1     111.873 129.664 136.989  0.00  0.00    +0.000 A 
ATOM      5  C   UNL     1     112.571 129.910 136.626  0.00  0.00    +0.000 A 
ATOM      6  C   UNL     1     111.710 128.859 137.066  0.00  0.00    +0.000 A 
ATOM      7  C   UNL     1     112.246 128.300 136.781  0.00  0.00    +0.000 A 
ATOM      8  C   UNL     1     112.945 128.548 136.418  0.00  0.00    +0.000 A 
ATOM      9  C   UNL     1     113.107 129.352 136.340  0.00  0.00    +0.000 A 
ATOM     10  C   UNL     1     113.511 127.976 136.117  0.00  0.00    +0.000 A 
ATOM     11  C   UNL     1     112.620 126.879 136.573  0.00  0.00    +0.000 A 
ATOM     12  C   UNL     1     113.348 127.135 136.195  0.00  0.00    +0.000 A 
ENDROOT
BRANCH  11  15
ATOM     13  O   UNL     1     111.119 124.573 135.800  0.00  0.00    +0.000 OA
ATOM     14  O   UNL     1     111.960 123.661 136.889  0.00  0.00    +0.000 OA
ATOM     15  C   UNL     1     112.455 126.074 136.652  0.00  0.00    +0.000 A 
ATOM     16  C   UNL     1     111.870 125.725 136.187  0.00  0.00    +0.000 A 
ATOM     17  C   UNL     1     112.875 125.618 137.197  0.00  0.00    +0.000 A 
ATOM     18  C   UNL     1     111.705 124.921 136.266  0.00  0.00    +0.000 A 
ATOM     19  C   UNL     1     112.710 124.814 137.276  0.00  0.00    +0.000 A 
ATOM     20  C   UNL     1     112.125 124.466 136.810  0.00  0.00    +0.000 A 
ENDBRANCH  11  15
BRANCH   5  21
ATOM     21  O   UNL     1     112.734 130.716 136.548  0.00  0.00    +0.000 OA
ATOM     22  C   UNL     1     113.318 131.065 137.014  0.00  0.00    +0.000 C 
ENDBRANCH   5  21
BRANCH   4  23
ATOM     23  O   UNL     1     111.337 130.223 137.274  0.00  0.00    +0.000 OA
BRANCH  23  31
ATOM     24  O   UNL     1     110.290 130.063 136.314  0.00  0.00    +0.000 OA
ATOM     25  O   UNL     1     108.613 130.115 138.133  0.00  0.00    +0.000 OA
ATOM     26  O   UNL     1     110.219 130.258 138.487  0.00  0.00    +0.000 OA
ATOM     27  O   UNL     1     108.126 129.938 136.567  0.00  0.00    +0.000 OA
ATOM     28  C   UNL     1     109.172 130.098 137.527  0.00  0.00    +0.000 C 
ATOM     29  C   UNL     1     109.976 130.169 137.703  0.00  0.00    +0.000 C 
ATOM     30  C   UNL     1     108.929 130.010 136.743  0.00  0.00    +0.000 C 
ATOM     31  C   UNL     1     110.535 130.152 137.097  0.00  0.00    +0.000 C 
ATOM     32  C   UNL     1     109.488 129.992 136.137  0.00  0.00    +0.000 C 
BRANCH  32  35
ATOM     33  O   UNL     1     109.205 130.561 134.857  0.00  0.00    +0.000 OA
ATOM     34  O   UNL     1     109.040 129.157 135.068  0.00  0.00    +0.000 OA
ATOM     35  C   UNL     1     109.244 129.904 135.354  0.00  0.00    +0.000 C 
ENDBRANCH  32  35
ENDBRANCH  23  31
ENDBRANCH   4  23
TORSDOF 5
ENDMDL
MODEL 5
REMARK VINA RESULT:      -8.9      2.630      4.429
REMARK  Name = 44258510
REMARK  5 active torsions:
REMARK  status: ('A' for Active; 'I' for Inactive)
REMARK    1  A    between atoms: O_2  and  C_17
REMARK    2  A    between atoms: O_2  and  C_20
REMARK    3  A    between atoms: O_9  and  C_21
REMARK    4  A    between atoms: C_18  and  C_19
REMARK    5  A    between atoms: C_27  and  C_29
REMARK                            x       y       z     vdW  Elec       q    Type
REMARK                         _______ _______ _______ _____ _____    ______ ____
ROOT
ATOM      1  O   UNL     1     110.009 130.859 136.113  0.00  0.00    +0.000 OA
ATOM      2  O   UNL     1     112.062 131.728 137.959  0.00  0.00    +0.000 OA
ATOM      3  O   UNL     1     110.950 132.606 137.686  0.00  0.00    +0.000 OA
ATOM      4  C   UNL     1     111.858 129.875 136.823  0.00  0.00    +0.000 A 
ATOM      5  C   UNL     1     112.161 130.447 137.335  0.00  0.00    +0.000 A 
ATOM      6  C   UNL     1     111.149 130.015 136.423  0.00  0.00    +0.000 A 
ATOM      7  C   UNL     1     110.745 130.726 136.535  0.00  0.00    +0.000 A 
ATOM      8  C   UNL     1     111.050 131.296 137.047  0.00  0.00    +0.000 A 
ATOM      9  C   UNL     1     111.757 131.157 137.447  0.00  0.00    +0.000 A 
ATOM     10  C   UNL     1     110.639 132.040 137.172  0.00  0.00    +0.000 A 
ATOM     11  C   UNL     1     109.584 131.597 136.226  0.00  0.00    +0.000 A 
ATOM     12  C   UNL     1     109.900 132.192 136.759  0.00  0.00    +0.000 A 
ENDROOT
BRANCH  11  15
ATOM     13  O   UNL     1     106.738 131.376 136.083  0.00  0.00    +0.000 OA
ATOM     14  O   UNL     1     106.752 132.144 134.622  0.00  0.00    +0.000 OA
ATOM     15  C   UNL     1     108.876 131.734 135.825  0.00  0.00    +0.000 A 
ATOM     16  C   UNL     1     108.161 131.487 136.154  0.00  0.00    +0.000 A 
ATOM     17  C   UNL     1     108.883 132.118 135.094  0.00  0.00    +0.000 A 
ATOM     18  C   UNL     1     107.453 131.623 135.754  0.00  0.00    +0.000 A 
ATOM     19  C   UNL     1     108.175 132.254 134.693  0.00  0.00    +0.000 A 
ATOM     20  C   UNL     1     107.460 132.007 135.023  0.00  0.00    +0.000 A 
ENDBRANCH  11  15
BRANCH   5  21
ATOM     21  O   UNL     1     112.870 130.307 137.735  0.00  0.00    +0.000 OA
ATOM     22  C   UNL     1     113.555 130.709 137.512  0.00  0.00    +0.000 C 
ENDBRANCH   5  21
BRANCH   4  23
ATOM     23  O   UNL     1     112.262 129.165 136.711  0.00  0.00    +0.000 OA
BRANCH  23  31
ATOM     24  O   UNL     1     111.407 128.303 137.465  0.00  0.00    +0.000 OA
ATOM     25  O   UNL     1     111.583 126.580 135.697  0.00  0.00    +0.000 OA
ATOM     26  O   UNL     1     112.379 128.016 135.532  0.00  0.00    +0.000 OA
ATOM     27  O   UNL     1     110.670 126.293 137.040  0.00  0.00    +0.000 OA
ATOM     28  C   UNL     1     111.524 127.154 136.286  0.00  0.00    +0.000 C 
ATOM     29  C   UNL     1     111.923 127.873 136.204  0.00  0.00    +0.000 C 
ATOM     30  C   UNL     1     111.068 127.011 136.958  0.00  0.00    +0.000 C 
ATOM     31  C   UNL     1     111.864 128.447 136.794  0.00  0.00    +0.000 C 
ATOM     32  C   UNL     1     111.009 127.585 137.548  0.00  0.00    +0.000 C 
BRANCH  32  35
ATOM     33  O   UNL     1     109.739 127.577 138.202  0.00  0.00    +0.000 OA
ATOM     34  O   UNL     1     110.910 127.162 138.908  0.00  0.00    +0.000 OA
ATOM     35  C   UNL     1     110.553 127.442 138.219  0.00  0.00    +0.000 C 
ENDBRANCH  32  35
ENDBRANCH  23  31
ENDBRANCH   4  23
TORSDOF 5
ENDMDL
MODEL 6
REMARK VINA RESULT:      -8.9      2.821      4.389
REMARK  Name = 44258510
REMARK  5 active torsions:
REMARK  status: ('A' for Active; 'I' for Inactive)
REMARK    1  A    between atoms: O_2  and  C_17
REMARK    2  A    between atoms: O_2  and  C_20
REMARK    3  A    between atoms: O_9  and  C_21
REMARK    4  A    between atoms: C_18  and  C_19
REMARK    5  A    between atoms: C_27  and  C_29
REMARK                            x       y       z     vdW  Elec       q    Type
REMARK                         _______ _______ _______ _____ _____    ______ ____
ROOT
ATOM      1  O   UNL     1     112.695 128.809 135.647  0.00  0.00    +0.000 OA
ATOM      2  O   UNL     1     112.147 126.125 136.585  0.00  0.00    +0.000 OA
ATOM      3  O   UNL     1     113.519 126.564 136.483  0.00  0.00    +0.000 OA
ATOM      4  C   UNL     1     110.795 127.721 135.960  0.00  0.00    +0.000 A 
ATOM      5  C   UNL     1     111.067 126.991 136.232  0.00  0.00    +0.000 A 
ATOM      6  C   UNL     1     111.335 128.316 135.769  0.00  0.00    +0.000 A 
ATOM      7  C   UNL     1     112.144 128.181 135.850  0.00  0.00    +0.000 A 
ATOM      8  C   UNL     1     112.415 127.451 136.122  0.00  0.00    +0.000 A 
ATOM      9  C   UNL     1     111.877 126.856 136.313  0.00  0.00    +0.000 A 
ATOM     10  C   UNL     1     113.256 127.298 136.210  0.00  0.00    +0.000 A 
ATOM     11  C   UNL     1     113.540 128.674 135.730  0.00  0.00    +0.000 A 
ATOM     12  C   UNL     1     113.822 127.913 136.013  0.00  0.00    +0.000 A 
ENDROOT
BRANCH  11  15
ATOM     13  O   UNL     1     114.930 131.071 136.429  0.00  0.00    +0.000 OA
ATOM     14  O   UNL     1     115.685 131.060 134.963  0.00  0.00    +0.000 OA
ATOM     15  C   UNL     1     114.076 129.270 135.538  0.00  0.00    +0.000 A 
ATOM     16  C   UNL     1     114.235 129.872 136.079  0.00  0.00    +0.000 A 
ATOM     17  C   UNL     1     114.454 129.265 134.804  0.00  0.00    +0.000 A 
ATOM     18  C   UNL     1     114.771 130.469 135.888  0.00  0.00    +0.000 A 
ATOM     19  C   UNL     1     114.991 129.862 134.612  0.00  0.00    +0.000 A 
ATOM     20  C   UNL     1     115.149 130.464 135.155  0.00  0.00    +0.000 A 
ENDBRANCH  11  15
BRANCH   5  21
ATOM     21  O   UNL     1     110.528 126.396 136.424  0.00  0.00    +0.000 OA
ATOM     22  C   UNL     1     110.460 125.731 135.940  0.00  0.00    +0.000 C 
ENDBRANCH   5  21
BRANCH   4  23
ATOM     23  O   UNL     1     109.986 127.857 135.880  0.00  0.00    +0.000 OA
BRANCH  23  31
ATOM     24  O   UNL     1     109.808 128.721 137.003  0.00  0.00    +0.000 OA
ATOM     25  O   UNL     1     108.289 130.146 135.666  0.00  0.00    +0.000 OA
ATOM     26  O   UNL     1     108.973 128.806 134.988  0.00  0.00    +0.000 OA
ATOM     27  O   UNL     1     108.617 130.536 137.234  0.00  0.00    +0.000 OA
ATOM     28  C   UNL     1     108.795 129.671 136.112  0.00  0.00    +0.000 C 
ATOM     29  C   UNL     1     109.138 129.001 135.773  0.00  0.00    +0.000 C 
ATOM     30  C   UNL     1     108.960 129.866 136.896  0.00  0.00    +0.000 C 
ATOM     31  C   UNL     1     109.644 128.526 136.218  0.00  0.00    +0.000 C 
ATOM     32  C   UNL     1     109.466 129.391 137.342  0.00  0.00    +0.000 C 
BRANCH  32  35
ATOM     33  O   UNL     1     110.219 130.136 138.300  0.00  0.00    +0.000 OA
ATOM     34  O   UNL     1     109.205 129.230 138.737  0.00  0.00    +0.000 OA
ATOM     35  C   UNL     1     109.630 129.586 138.126  0.00  0.00    +0.000 C 
ENDBRANCH  32  35
ENDBRANCH  23  31
ENDBRANCH   4  23
TORSDOF 5
ENDMDL
MODEL 7
REMARK VINA RESULT:      -8.9      2.263      3.851
REMARK  Name = 44258510
REMARK  5 active torsions:
REMARK  status: ('A' for Active; 'I' for Inactive)
REMARK    1  A    between atoms: O_2  and  C_17
REMARK    2  A    between atoms: O_2  and  C_20
REMARK    3  A    between atoms: O_9  and  C_21
REMARK    4  A    between atoms: C_18  and  C_19
REMARK    5  A    between atoms: C_27  and  C_29
REMARK                            x       y       z     vdW  Elec       q    Type
REMARK                         _______ _______ _______ _____ _____    ______ ____
ROOT
ATOM      1  O   UNL     1     112.227 128.407 135.685  0.00  0.00    +0.000 OA
ATOM      2  O   UNL     1     109.481 129.082 136.309  0.00  0.00    +0.000 OA
ATOM      3  O   UNL     1     110.445 130.145 136.152  0.00  0.00    +0.000 OA
ATOM      4  C   UNL     1     110.440 127.144 136.010  0.00  0.00    +0.000 A 
ATOM      5  C   UNL     1     109.863 127.713 136.162  0.00  0.00    +0.000 A 
ATOM      6  C   UNL     1     111.217 127.377 135.854  0.00  0.00    +0.000 A 
ATOM      7  C   UNL     1     111.415 128.178 135.849  0.00  0.00    +0.000 A 
ATOM      8  C   UNL     1     110.836 128.746 136.001  0.00  0.00    +0.000 A 
ATOM      9  C   UNL     1     110.060 128.514 136.157  0.00  0.00    +0.000 A 
ATOM     10  C   UNL     1     111.029 129.583 135.999  0.00  0.00    +0.000 A 
ATOM     11  C   UNL     1     112.438 129.239 135.679  0.00  0.00    +0.000 A 
ATOM     12  C   UNL     1     111.836 129.832 135.837  0.00  0.00    +0.000 A 
ENDROOT
BRANCH  11  15
ATOM     13  O   UNL     1     114.907 130.378 136.560  0.00  0.00    +0.000 OA
ATOM     14  O   UNL     1     115.545 130.158 135.054  0.00  0.00    +0.000 OA
ATOM     15  C   UNL     1     113.215 129.469 135.523  0.00  0.00    +0.000 A 
ATOM     16  C   UNL     1     113.673 129.808 136.119  0.00  0.00    +0.000 A 
ATOM     17  C   UNL     1     113.534 129.359 134.770  0.00  0.00    +0.000 A 
ATOM     18  C   UNL     1     114.450 130.038 135.964  0.00  0.00    +0.000 A 
ATOM     19  C   UNL     1     114.311 129.589 134.613  0.00  0.00    +0.000 A 
ATOM     20  C   UNL     1     114.768 129.928 135.211  0.00  0.00    +0.000 A 
ENDBRANCH  11  15
BRANCH   5  21
ATOM     21  O   UNL     1     109.086 127.480 136.318  0.00  0.00    +0.000 OA
ATOM     22  C   UNL     1     108.499 127.599 135.751  0.00  0.00    +0.000 C 
ENDBRANCH   5  21
BRANCH   4  23
ATOM     23  O   UNL     1     110.242 126.343 136.015  0.00  0.00    +0.000 OA
BRANCH  23  31
ATOM     24  O   UNL     1     110.793 125.965 137.278  0.00  0.00    +0.000 OA
ATOM     25  O   UNL     1     111.745 123.923 136.252  0.00  0.00    +0.000 OA
ATOM     26  O   UNL     1     110.877 124.982 135.331  0.00  0.00    +0.000 OA
ATOM     27  O   UNL     1     111.977 124.226 137.857  0.00  0.00    +0.000 OA
ATOM     28  C   UNL     1     111.427 124.604 136.594  0.00  0.00    +0.000 C 
ATOM     29  C   UNL     1     110.993 125.134 136.133  0.00  0.00    +0.000 C 
ATOM     30  C   UNL     1     111.544 124.756 137.397  0.00  0.00    +0.000 C 
ATOM     31  C   UNL     1     110.676 125.814 136.475  0.00  0.00    +0.000 C 
ATOM     32  C   UNL     1     111.226 125.436 137.739  0.00  0.00    +0.000 C 
BRANCH  32  35
ATOM     33  O   UNL     1     112.030 125.968 138.794  0.00  0.00    +0.000 OA
ATOM     34  O   UNL     1     110.773 125.357 139.091  0.00  0.00    +0.000 OA
ATOM     35  C   UNL     1     111.343 125.587 138.541  0.00  0.00    +0.000 C 
ENDBRANCH  32  35
ENDBRANCH  23  31
ENDBRANCH   4  23
TORSDOF 5
ENDMDL
MODEL 8
REMARK VINA RESULT:      -8.8      3.169      5.092
REMARK  Name = 44258510
REMARK  5 active torsions:
REMARK  status: ('A' for Active; 'I' for Inactive)
REMARK    1  A    between atoms: O_2  and  C_17
REMARK    2  A    between atoms: O_2  and  C_20
REMARK    3  A    between atoms: O_9  and  C_21
REMARK    4  A    between atoms: C_18  and  C_19
REMARK    5  A    between atoms: C_27  and  C_29
REMARK                            x       y       z     vdW  Elec       q    Type
REMARK                         _______ _______ _______ _____ _____    ______ ____
ROOT
ATOM      1  O   UNL     1     113.060 127.603 137.441  0.00  0.00    +0.000 OA
ATOM      2  O   UNL     1     113.751 130.115 136.179  0.00  0.00    +0.000 OA
ATOM      3  O   UNL     1     114.138 128.880 135.538  0.00  0.00    +0.000 OA
ATOM      4  C   UNL     1     112.686 129.699 138.038  0.00  0.00    +0.000 A 
ATOM      5  C   UNL     1     113.038 130.112 137.417  0.00  0.00    +0.000 A 
ATOM      6  C   UNL     1     112.696 128.874 138.042  0.00  0.00    +0.000 A 
ATOM      7  C   UNL     1     113.057 128.462 137.425  0.00  0.00    +0.000 A 
ATOM      8  C   UNL     1     113.409 128.876 136.804  0.00  0.00    +0.000 A 
ATOM      9  C   UNL     1     113.399 129.701 136.800  0.00  0.00    +0.000 A 
ATOM     10  C   UNL     1     113.788 128.459 136.156  0.00  0.00    +0.000 A 
ATOM     11  C   UNL     1     113.435 127.169 136.801  0.00  0.00    +0.000 A 
ATOM     12  C   UNL     1     113.801 127.600 136.154  0.00  0.00    +0.000 A 
ENDROOT
BRANCH  11  15
ATOM     13  O   UNL     1     114.726 124.712 137.482  0.00  0.00    +0.000 OA
ATOM     14  O   UNL     1     113.467 123.870 136.827  0.00  0.00    +0.000 OA
ATOM     15  C   UNL     1     113.443 126.344 136.807  0.00  0.00    +0.000 A 
ATOM     16  C   UNL     1     114.080 125.940 137.141  0.00  0.00    +0.000 A 
ATOM     17  C   UNL     1     112.813 125.923 136.480  0.00  0.00    +0.000 A 
ATOM     18  C   UNL     1     114.088 125.116 137.148  0.00  0.00    +0.000 A 
ATOM     19  C   UNL     1     112.821 125.098 136.487  0.00  0.00    +0.000 A 
ATOM     20  C   UNL     1     113.459 124.695 136.821  0.00  0.00    +0.000 A 
ENDBRANCH  11  15
BRANCH   5  21
ATOM     21  O   UNL     1     113.029 130.938 137.413  0.00  0.00    +0.000 OA
ATOM     22  C   UNL     1     112.510 131.341 136.914  0.00  0.00    +0.000 C 
ENDBRANCH   5  21
BRANCH   4  23
ATOM     23  O   UNL     1     112.325 130.111 138.655  0.00  0.00    +0.000 OA
BRANCH  23  31
ATOM     24  O   UNL     1     113.305 129.918 139.677  0.00  0.00    +0.000 OA
ATOM     25  O   UNL     1     111.509 129.421 141.306  0.00  0.00    +0.000 OA
ATOM     26  O   UNL     1     111.128 129.779 139.741  0.00  0.00    +0.000 OA
ATOM     27  O   UNL     1     113.087 129.394 141.784  0.00  0.00    +0.000 OA
ATOM     28  C   UNL     1     112.108 129.587 140.763  0.00  0.00    +0.000 C 
ATOM     29  C   UNL     1     111.917 129.766 139.980  0.00  0.00    +0.000 C 
ATOM     30  C   UNL     1     112.897 129.573 141.002  0.00  0.00    +0.000 C 
ATOM     31  C   UNL     1     112.516 129.932 139.437  0.00  0.00    +0.000 C 
ATOM     32  C   UNL     1     113.496 129.739 140.459  0.00  0.00    +0.000 C 
BRANCH  32  35
ATOM     33  O   UNL     1     114.699 129.013 140.717  0.00  0.00    +0.000 OA
ATOM     34  O   UNL     1     114.660 130.426 140.920  0.00  0.00    +0.000 OA
ATOM     35  C   UNL     1     114.285 129.726 140.699  0.00  0.00    +0.000 C 
ENDBRANCH  32  35
ENDBRANCH  23  31
ENDBRANCH   4  23
TORSDOF 5
ENDMDL
MODEL 9
REMARK VINA RESULT:      -8.7     10.037     11.520
REMARK  Name = 44258510
REMARK  5 active torsions:
REMARK  status: ('A' for Active; 'I' for Inactive)
REMARK    1  A    between atoms: O_2  and  C_17
REMARK    2  A    between atoms: O_2  and  C_20
REMARK    3  A    between atoms: O_9  and  C_21
REMARK    4  A    between atoms: C_18  and  C_19
REMARK    5  A    between atoms: C_27  and  C_29
REMARK                            x       y       z     vdW  Elec       q    Type
REMARK                         _______ _______ _______ _____ _____    ______ ____
ROOT
ATOM      1  O   UNL     1     105.579 127.147 146.856  0.00  0.00    +0.000 OA
ATOM      2  O   UNL     1     107.767 125.393 147.574  0.00  0.00    +0.000 OA
ATOM      3  O   UNL     1     108.064 126.676 146.983  0.00  0.00    +0.000 OA
ATOM      4  C   UNL     1     105.608 125.132 147.766  0.00  0.00    +0.000 A 
ATOM      5  C   UNL     1     106.418 124.982 147.806  0.00  0.00    +0.000 A 
ATOM      6  C   UNL     1     105.336 125.846 147.453  0.00  0.00    +0.000 A 
ATOM      7  C   UNL     1     105.874 126.408 147.180  0.00  0.00    +0.000 A 
ATOM      8  C   UNL     1     106.685 126.257 147.220  0.00  0.00    +0.000 A 
ATOM      9  C   UNL     1     106.956 125.544 147.533  0.00  0.00    +0.000 A 
ATOM     10  C   UNL     1     107.255 126.834 146.939  0.00  0.00    +0.000 A 
ATOM     11  C   UNL     1     106.135 127.736 146.570  0.00  0.00    +0.000 A 
ATOM     12  C   UNL     1     106.978 127.580 146.611  0.00  0.00    +0.000 A 
ENDROOT
BRANCH  11  15
ATOM     13  O   UNL     1     105.041 129.223 144.387  0.00  0.00    +0.000 OA
ATOM     14  O   UNL     1     105.036 130.585 145.318  0.00  0.00    +0.000 OA
ATOM     15  C   UNL     1     105.860 128.449 146.257  0.00  0.00    +0.000 A 
ATOM     16  C   UNL     1     105.588 128.480 145.479  0.00  0.00    +0.000 A 
ATOM     17  C   UNL     1     105.857 129.130 146.722  0.00  0.00    +0.000 A 
ATOM     18  C   UNL     1     105.313 129.191 145.165  0.00  0.00    +0.000 A 
ATOM     19  C   UNL     1     105.583 129.842 146.410  0.00  0.00    +0.000 A 
ATOM     20  C   UNL     1     105.311 129.873 145.631  0.00  0.00    +0.000 A 
ENDBRANCH  11  15
BRANCH   5  21
ATOM     21  O   UNL     1     106.690 124.268 148.120  0.00  0.00    +0.000 OA
ATOM     22  C   UNL     1     107.059 124.256 148.857  0.00  0.00    +0.000 C 
ENDBRANCH   5  21
BRANCH   4  23
ATOM     23  O   UNL     1     105.070 124.569 148.039  0.00  0.00    +0.000 OA
BRANCH  23  31
ATOM     24  O   UNL     1     104.587 124.059 146.795  0.00  0.00    +0.000 OA
ATOM     25  O   UNL     1     102.267 124.170 147.650  0.00  0.00    +0.000 OA
ATOM     26  O   UNL     1     103.523 124.643 148.610  0.00  0.00    +0.000 OA
ATOM     27  O   UNL     1     102.557 123.623 146.121  0.00  0.00    +0.000 OA
ATOM     28  C   UNL     1     103.040 124.133 147.365  0.00  0.00    +0.000 C 
ATOM     29  C   UNL     1     103.669 124.370 147.845  0.00  0.00    +0.000 C 
ATOM     30  C   UNL     1     103.186 123.860 146.601  0.00  0.00    +0.000 C 
ATOM     31  C   UNL     1     104.442 124.333 147.560  0.00  0.00    +0.000 C 
ATOM     32  C   UNL     1     103.959 123.823 146.315  0.00  0.00    +0.000 C 
BRANCH  32  35
ATOM     33  O   UNL     1     104.179 124.086 144.928  0.00  0.00    +0.000 OA
ATOM     34  O   UNL     1     104.174 122.740 145.409  0.00  0.00    +0.000 OA
ATOM     35  C   UNL     1     104.104 123.550 145.551  0.00  0.00    +0.000 C 
ENDBRANCH  32  35
ENDBRANCH  23  31
ENDBRANCH   4  23
TORSDOF 5
ENDMDL
MODEL 10
REMARK VINA RESULT:      -8.7      3.142      5.135
REMARK  Name = 44258510
REMARK  5 active torsions:
REMARK  status: ('A' for Active; 'I' for Inactive)
REMARK    1  A    between atoms: O_2  and  C_17
REMARK    2  A    between atoms: O_2  and  C_20
REMARK    3  A    between atoms: O_9  and  C_21
REMARK    4  A    between atoms: C_18  and  C_19
REMARK    5  A    between atoms: C_27  and  C_29
REMARK                            x       y       z     vdW  Elec       q    Type
REMARK                         _______ _______ _______ _____ _____    ______ ____
ROOT
ATOM      1  O   UNL     1     111.398 128.702 136.328  0.00  0.00    +0.000 OA
ATOM      2  O   UNL     1     113.878 130.173 136.063  0.00  0.00    +0.000 OA
ATOM      3  O   UNL     1     113.622 129.067 135.171  0.00  0.00    +0.000 OA
ATOM      4  C   UNL     1     112.208 130.431 137.445  0.00  0.00    +0.000 A 
ATOM      5  C   UNL     1     112.931 130.547 137.066  0.00  0.00    +0.000 A 
ATOM      6  C   UNL     1     111.706 129.822 137.199  0.00  0.00    +0.000 A 
ATOM      7  C   UNL     1     111.929 129.331 136.574  0.00  0.00    +0.000 A 
ATOM      8  C   UNL     1     112.653 129.448 136.196  0.00  0.00    +0.000 A 
ATOM      9  C   UNL     1     113.154 130.056 136.442  0.00  0.00    +0.000 A 
ATOM     10  C   UNL     1     112.896 128.944 135.545  0.00  0.00    +0.000 A 
ATOM     11  C   UNL     1     111.625 128.188 135.678  0.00  0.00    +0.000 A 
ATOM     12  C   UNL     1     112.379 128.309 135.283  0.00  0.00    +0.000 A 
ENDROOT
BRANCH  11  15
ATOM     13  O   UNL     1     110.763 125.468 135.850  0.00  0.00    +0.000 OA
ATOM     14  O   UNL     1     109.613 125.760 134.703  0.00  0.00    +0.000 OA
ATOM     15  C   UNL     1     111.122 127.581 135.434  0.00  0.00    +0.000 A 
ATOM     16  C   UNL     1     111.194 126.828 135.764  0.00  0.00    +0.000 A 
ATOM     17  C   UNL     1     110.547 127.727 134.861  0.00  0.00    +0.000 A 
ATOM     18  C   UNL     1     110.691 126.221 135.521  0.00  0.00    +0.000 A 
ATOM     19  C   UNL     1     110.044 127.120 134.617  0.00  0.00    +0.000 A 
ATOM     20  C   UNL     1     110.117 126.367 134.947  0.00  0.00    +0.000 A 
ENDBRANCH  11  15
BRANCH   5  21
ATOM     21  O   UNL     1     113.433 131.155 137.312  0.00  0.00    +0.000 OA
ATOM     22  C   UNL     1     114.127 130.976 137.719  0.00  0.00    +0.000 C 
ENDBRANCH   5  21
BRANCH   4  23
ATOM     23  O   UNL     1     111.985 130.922 138.069  0.00  0.00    +0.000 OA
BRANCH  23  31
ATOM     24  O   UNL     1     111.106 131.806 137.371  0.00  0.00    +0.000 OA
ATOM     25  O   UNL     1     109.487 131.670 139.238  0.00  0.00    +0.000 OA
ATOM     26  O   UNL     1     110.906 130.831 139.314  0.00  0.00    +0.000 OA
ATOM     27  O   UNL     1     109.148 132.599 137.918  0.00  0.00    +0.000 OA
ATOM     28  C   UNL     1     110.027 131.716 138.616  0.00  0.00    +0.000 C 
ATOM     29  C   UNL     1     110.737 131.296 138.653  0.00  0.00    +0.000 C 
ATOM     30  C   UNL     1     109.858 132.180 137.955  0.00  0.00    +0.000 C 
ATOM     31  C   UNL     1     111.276 131.341 138.031  0.00  0.00    +0.000 C 
ATOM     32  C   UNL     1     110.397 132.225 137.333  0.00  0.00    +0.000 C 
BRANCH  32  35
ATOM     33  O   UNL     1     110.538 133.452 136.614  0.00  0.00    +0.000 OA
ATOM     34  O   UNL     1     109.747 132.392 136.072  0.00  0.00    +0.000 OA
ATOM     35  C   UNL     1     110.228 132.689 136.673  0.00  0.00    +0.000 C 
ENDBRANCH  32  35
ENDBRANCH  23  31
ENDBRANCH   4  23
TORSDOF 5
ENDMDL
