MODEL 1
REMARK VINA RESULT:     -10.8      0.000      0.000
REMARK  Name = 44259058
REMARK  8 active torsions:
REMARK  status: ('A' for Active; 'I' for Inactive)
REMARK    1  A    between atoms: O_1  and  C_15
REMARK    2  A    between atoms: O_1  and  C_18
REMARK    3  A    between atoms: O_4  and  C_20
REMARK    4  A    between atoms: O_4  and  C_27
REMARK    5  A    between atoms: O_14  and  C_43
REMARK    6  A    between atoms: C_28  and  C_32
REMARK    7  A    between atoms: C_33  and  C_36
REMARK    8  A    between atoms: C_36  and  C_42
REMARK                            x       y       z     vdW  Elec       q    Type
REMARK                         _______ _______ _______ _____ _____    ______ ____
ROOT
ATOM      1  O   UNL     1     112.205 127.293 136.852  0.00  0.00    +0.000 OA
ATOM      2  O   UNL     1     109.739 127.483 136.938  0.00  0.00    +0.000 OA
ATOM      3  O   UNL     1     109.590 126.101 136.555  0.00  0.00    +0.000 OA
ATOM      4  O   UNL     1     111.982 124.495 136.077  0.00  0.00    +0.000 OA
ATOM      5  C   UNL     1     111.032 128.074 137.085  0.00  0.00    +0.000 A 
ATOM      6  C   UNL     1     111.853 128.011 137.057  0.00  0.00    +0.000 A 
ATOM      7  C   UNL     1     110.561 127.420 136.909  0.00  0.00    +0.000 A 
ATOM      8  C   UNL     1     110.912 126.702 136.705  0.00  0.00    +0.000 A 
ATOM      9  C   UNL     1     111.735 126.639 136.677  0.00  0.00    +0.000 A 
ATOM     10  C   UNL     1     112.112 125.896 136.465  0.00  0.00    +0.000 A 
ATOM     11  C   UNL     1     110.412 126.028 136.524  0.00  0.00    +0.000 A 
ATOM     12  C   UNL     1     111.627 125.211 136.281  0.00  0.00    +0.000 A 
ATOM     13  C   UNL     1     110.772 125.277 136.311  0.00  0.00    +0.000 A 
ENDROOT
BRANCH   6  14
ATOM     14  C   UNL     1     112.325 128.665 137.232  0.00  0.00    +0.000 A 
ATOM     15  C   UNL     1     112.623 129.134 136.622  0.00  0.00    +0.000 A 
ATOM     16  C   UNL     1     112.498 128.851 138.017  0.00  0.00    +0.000 A 
ATOM     17  C   UNL     1     113.094 129.788 136.797  0.00  0.00    +0.000 A 
ATOM     18  C   UNL     1     112.969 129.505 138.193  0.00  0.00    +0.000 A 
ATOM     19  C   UNL     1     113.267 129.974 137.583  0.00  0.00    +0.000 A 
BRANCH  19  20
ATOM     20  O   UNL     1     113.738 130.628 137.757  0.00  0.00    +0.000 OA
ATOM     21  C   UNL     1     114.143 130.664 138.475  0.00  0.00    +0.000 C 
ENDBRANCH  19  20
ENDBRANCH   6  14
BRANCH   5  22
ATOM     22  O   UNL     1     110.680 128.792 137.289  0.00  0.00    +0.000 OA
BRANCH  22  29
ATOM     23  O   UNL     1     110.256 129.120 135.965  0.00  0.00    +0.000 OA
ATOM     24  O   UNL     1     108.254 130.248 136.885  0.00  0.00    +0.000 OA
ATOM     25  O   UNL     1     108.497 130.199 135.254  0.00  0.00    +0.000 OA
ATOM     26  C   UNL     1     109.467 129.520 137.087  0.00  0.00    +0.000 C 
ATOM     27  C   UNL     1     108.921 129.872 136.578  0.00  0.00    +0.000 C 
ATOM     28  C   UNL     1     109.043 129.847 135.763  0.00  0.00    +0.000 C 
ATOM     29  C   UNL     1     110.134 129.144 136.780  0.00  0.00    +0.000 C 
ATOM     30  C   UNL     1     109.710 129.471 135.457  0.00  0.00    +0.000 C 
ATOM     31  C   UNL     1     109.831 129.447 134.640  0.00  0.00    +0.000 C 
BRANCH  26  32
ATOM     32  O   UNL     1     109.346 129.544 137.903  0.00  0.00    +0.000 OA
BRANCH  32  37
ATOM     33  O   UNL     1     109.879 130.870 137.949  0.00  0.00    +0.000 OA
ATOM     34  O   UNL     1     108.899 129.669 139.487  0.00  0.00    +0.000 OA
ATOM     35  O   UNL     1     109.208 131.056 140.325  0.00  0.00    +0.000 OA
ATOM     36  O   UNL     1     109.964 132.319 139.579  0.00  0.00    +0.000 OA
ATOM     37  C   UNL     1     109.501 130.238 138.322  0.00  0.00    +0.000 C 
ATOM     38  C   UNL     1     109.277 130.301 139.114  0.00  0.00    +0.000 C 
ATOM     39  C   UNL     1     109.432 130.994 139.533  0.00  0.00    +0.000 C 
ATOM     40  C   UNL     1     109.810 131.625 139.160  0.00  0.00    +0.000 C 
ATOM     41  C   UNL     1     110.033 131.564 138.368  0.00  0.00    +0.000 C 
ATOM     42  C   UNL     1     110.411 132.195 137.996  0.00  0.00    +0.000 C 
ENDBRANCH  32  37
ENDBRANCH  26  32
ENDBRANCH  22  29
ENDBRANCH   5  22
BRANCH  10  43
ATOM     43  C   UNL     1     112.935 125.842 136.439  0.00  0.00    +0.000 C 
BRANCH  43  44
ATOM     44  C   UNL     1     113.337 125.392 137.002  0.00  0.00    +0.000 C 
ATOM     45  C   UNL     1     114.161 125.352 136.987  0.00  0.00    +0.000 C 
ATOM     46  C   UNL     1     114.563 124.902 137.549  0.00  0.00    +0.000 C 
ATOM     47  C   UNL     1     114.583 125.763 136.409  0.00  0.00    +0.000 C 
ENDBRANCH  43  44
ENDBRANCH  10  43
TORSDOF 8
ENDMDL
MODEL 2
REMARK VINA RESULT:     -10.5      1.030      2.071
REMARK  Name = 44259058
REMARK  8 active torsions:
REMARK  status: ('A' for Active; 'I' for Inactive)
REMARK    1  A    between atoms: O_1  and  C_15
REMARK    2  A    between atoms: O_1  and  C_18
REMARK    3  A    between atoms: O_4  and  C_20
REMARK    4  A    between atoms: O_4  and  C_27
REMARK    5  A    between atoms: O_14  and  C_43
REMARK    6  A    between atoms: C_28  and  C_32
REMARK    7  A    between atoms: C_33  and  C_36
REMARK    8  A    between atoms: C_36  and  C_42
REMARK                            x       y       z     vdW  Elec       q    Type
REMARK                         _______ _______ _______ _____ _____    ______ ____
ROOT
ATOM      1  O   UNL     1     112.397 127.195 136.452  0.00  0.00    +0.000 OA
ATOM      2  O   UNL     1     109.950 127.443 136.717  0.00  0.00    +0.000 OA
ATOM      3  O   UNL     1     109.769 126.014 136.658  0.00  0.00    +0.000 OA
ATOM      4  O   UNL     1     112.109 124.300 136.324  0.00  0.00    +0.000 OA
ATOM      5  C   UNL     1     111.249 128.029 136.616  0.00  0.00    +0.000 A 
ATOM      6  C   UNL     1     112.065 127.946 136.527  0.00  0.00    +0.000 A 
ATOM      7  C   UNL     1     110.765 127.361 136.629  0.00  0.00    +0.000 A 
ATOM      8  C   UNL     1     111.098 126.609 136.554  0.00  0.00    +0.000 A 
ATOM      9  C   UNL     1     111.914 126.526 136.465  0.00  0.00    +0.000 A 
ATOM     10  C   UNL     1     112.273 125.750 136.386  0.00  0.00    +0.000 A 
ATOM     11  C   UNL     1     110.584 125.921 136.569  0.00  0.00    +0.000 A 
ATOM     12  C   UNL     1     111.774 125.050 136.399  0.00  0.00    +0.000 A 
ATOM     13  C   UNL     1     110.925 125.135 136.491  0.00  0.00    +0.000 A 
ENDROOT
BRANCH   6  14
ATOM     14  C   UNL     1     112.549 128.614 136.514  0.00  0.00    +0.000 A 
ATOM     15  C   UNL     1     112.642 129.042 135.815  0.00  0.00    +0.000 A 
ATOM     16  C   UNL     1     112.939 128.855 137.199  0.00  0.00    +0.000 A 
ATOM     17  C   UNL     1     113.126 129.710 135.800  0.00  0.00    +0.000 A 
ATOM     18  C   UNL     1     113.423 129.523 137.186  0.00  0.00    +0.000 A 
ATOM     19  C   UNL     1     113.516 129.951 136.486  0.00  0.00    +0.000 A 
BRANCH  19  20
ATOM     20  O   UNL     1     114.000 130.619 136.472  0.00  0.00    +0.000 OA
ATOM     21  C   UNL     1     114.781 130.556 136.213  0.00  0.00    +0.000 C 
ENDBRANCH  19  20
ENDBRANCH   6  14
BRANCH   5  22
ATOM     22  O   UNL     1     110.916 128.780 136.691  0.00  0.00    +0.000 OA
BRANCH  22  29
ATOM     23  O   UNL     1     110.680 128.695 138.098  0.00  0.00    +0.000 OA
ATOM     24  O   UNL     1     108.626 130.049 137.835  0.00  0.00    +0.000 OA
ATOM     25  O   UNL     1     109.074 129.512 139.329  0.00  0.00    +0.000 OA
ATOM     26  C   UNL     1     109.771 129.415 137.263  0.00  0.00    +0.000 C 
ATOM     27  C   UNL     1     109.310 129.598 137.922  0.00  0.00    +0.000 C 
ATOM     28  C   UNL     1     109.534 129.330 138.669  0.00  0.00    +0.000 C 
ATOM     29  C   UNL     1     110.455 128.963 137.351  0.00  0.00    +0.000 C 
ATOM     30  C   UNL     1     110.219 128.878 138.757  0.00  0.00    +0.000 C 
ATOM     31  C   UNL     1     110.444 128.609 139.504  0.00  0.00    +0.000 C 
BRANCH  26  32
ATOM     32  O   UNL     1     109.547 129.683 136.516  0.00  0.00    +0.000 OA
BRANCH  32  37
ATOM     33  O   UNL     1     110.116 130.969 136.773  0.00  0.00    +0.000 OA
ATOM     34  O   UNL     1     108.709 130.309 135.239  0.00  0.00    +0.000 OA
ATOM     35  O   UNL     1     108.859 131.908 134.859  0.00  0.00    +0.000 OA
ATOM     36  O   UNL     1     109.846 132.880 135.754  0.00  0.00    +0.000 OA
ATOM     37  C   UNL     1     109.622 130.482 136.325  0.00  0.00    +0.000 C 
ATOM     38  C   UNL     1     109.203 130.796 135.687  0.00  0.00    +0.000 C 
ATOM     39  C   UNL     1     109.278 131.595 135.497  0.00  0.00    +0.000 C 
ATOM     40  C   UNL     1     109.771 132.081 135.944  0.00  0.00    +0.000 C 
ATOM     41  C   UNL     1     110.191 131.768 136.583  0.00  0.00    +0.000 C 
ATOM     42  C   UNL     1     110.684 132.254 137.030  0.00  0.00    +0.000 C 
ENDBRANCH  32  37
ENDBRANCH  26  32
ENDBRANCH  22  29
ENDBRANCH   5  22
BRANCH  10  43
ATOM     43  C   UNL     1     113.089 125.676 136.298  0.00  0.00    +0.000 C 
BRANCH  43  44
ATOM     44  C   UNL     1     113.536 125.307 136.885  0.00  0.00    +0.000 C 
ATOM     45  C   UNL     1     114.357 125.265 136.814  0.00  0.00    +0.000 C 
ATOM     46  C   UNL     1     114.804 124.896 137.401  0.00  0.00    +0.000 C 
ATOM     47  C   UNL     1     114.731 125.593 136.156  0.00  0.00    +0.000 C 
ENDBRANCH  43  44
ENDBRANCH  10  43
TORSDOF 8
ENDMDL
MODEL 3
REMARK VINA RESULT:     -10.4      0.994      1.147
REMARK  Name = 44259058
REMARK  8 active torsions:
REMARK  status: ('A' for Active; 'I' for Inactive)
REMARK    1  A    between atoms: O_1  and  C_15
REMARK    2  A    between atoms: O_1  and  C_18
REMARK    3  A    between atoms: O_4  and  C_20
REMARK    4  A    between atoms: O_4  and  C_27
REMARK    5  A    between atoms: O_14  and  C_43
REMARK    6  A    between atoms: C_28  and  C_32
REMARK    7  A    between atoms: C_33  and  C_36
REMARK    8  A    between atoms: C_36  and  C_42
REMARK                            x       y       z     vdW  Elec       q    Type
REMARK                         _______ _______ _______ _____ _____    ______ ____
ROOT
ATOM      1  O   UNL     1     111.967 127.353 137.670  0.00  0.00    +0.000 OA
ATOM      2  O   UNL     1     109.574 127.858 138.049  0.00  0.00    +0.000 OA
ATOM      3  O   UNL     1     109.304 126.478 138.369  0.00  0.00    +0.000 OA
ATOM      4  O   UNL     1     111.496 124.550 138.305  0.00  0.00    +0.000 OA
ATOM      5  C   UNL     1     110.891 128.292 137.703  0.00  0.00    +0.000 A 
ATOM      6  C   UNL     1     111.688 128.124 137.577  0.00  0.00    +0.000 A 
ATOM      7  C   UNL     1     110.371 127.690 137.923  0.00  0.00    +0.000 A 
ATOM      8  C   UNL     1     110.650 126.919 138.016  0.00  0.00    +0.000 A 
ATOM      9  C   UNL     1     111.448 126.750 137.890  0.00  0.00    +0.000 A 
ATOM     10  C   UNL     1     111.750 125.951 137.984  0.00  0.00    +0.000 A 
ATOM     11  C   UNL     1     110.100 126.300 138.245  0.00  0.00    +0.000 A 
ATOM     12  C   UNL     1     111.214 125.320 138.212  0.00  0.00    +0.000 A 
ATOM     13  C   UNL     1     110.384 125.495 138.344  0.00  0.00    +0.000 A 
ENDROOT
BRANCH   6  14
ATOM     14  C   UNL     1     112.208 128.726 137.357  0.00  0.00    +0.000 A 
ATOM     15  C   UNL     1     112.397 128.837 136.562  0.00  0.00    +0.000 A 
ATOM     16  C   UNL     1     112.539 129.215 137.932  0.00  0.00    +0.000 A 
ATOM     17  C   UNL     1     112.916 129.439 136.341  0.00  0.00    +0.000 A 
ATOM     18  C   UNL     1     113.059 129.817 137.712  0.00  0.00    +0.000 A 
ATOM     19  C   UNL     1     113.248 129.929 136.917  0.00  0.00    +0.000 A 
BRANCH  19  20
ATOM     20  O   UNL     1     113.767 130.531 136.696  0.00  0.00    +0.000 OA
ATOM     21  C   UNL     1     113.805 131.226 137.140  0.00  0.00    +0.000 C 
ENDBRANCH  19  20
ENDBRANCH   6  14
BRANCH   5  22
ATOM     22  O   UNL     1     110.613 129.063 137.610  0.00  0.00    +0.000 OA
BRANCH  22  29
ATOM     23  O   UNL     1     109.969 128.835 136.354  0.00  0.00    +0.000 OA
ATOM     24  O   UNL     1     108.196 130.448 136.970  0.00  0.00    +0.000 OA
ATOM     25  O   UNL     1     108.144 129.682 135.510  0.00  0.00    +0.000 OA
ATOM     26  C   UNL     1     109.404 129.755 137.290  0.00  0.00    +0.000 C 
ATOM     27  C   UNL     1     108.787 129.910 136.765  0.00  0.00    +0.000 C 
ATOM     28  C   UNL     1     108.761 129.528 136.035  0.00  0.00    +0.000 C 
ATOM     29  C   UNL     1     109.995 129.218 137.084  0.00  0.00    +0.000 C 
ATOM     30  C   UNL     1     109.352 128.990 135.830  0.00  0.00    +0.000 C 
ATOM     31  C   UNL     1     109.326 128.607 135.099  0.00  0.00    +0.000 C 
BRANCH  26  32
ATOM     32  O   UNL     1     109.431 130.138 138.020  0.00  0.00    +0.000 OA
BRANCH  32  37
ATOM     33  O   UNL     1     109.931 131.316 137.384  0.00  0.00    +0.000 OA
ATOM     34  O   UNL     1     109.493 130.901 139.482  0.00  0.00    +0.000 OA
ATOM     35  O   UNL     1     110.024 132.460 139.577  0.00  0.00    +0.000 OA
ATOM     36  O   UNL     1     110.493 133.256 138.209  0.00  0.00    +0.000 OA
ATOM     37  C   UNL     1     109.696 130.918 138.068  0.00  0.00    +0.000 C 
ATOM     38  C   UNL     1     109.728 131.300 138.798  0.00  0.00    +0.000 C 
ATOM     39  C   UNL     1     109.993 132.079 138.845  0.00  0.00    +0.000 C 
ATOM     40  C   UNL     1     110.227 132.477 138.162  0.00  0.00    +0.000 C 
ATOM     41  C   UNL     1     110.196 132.096 137.431  0.00  0.00    +0.000 C 
ATOM     42  C   UNL     1     110.430 132.493 136.748  0.00  0.00    +0.000 C 
ENDBRANCH  32  37
ENDBRANCH  26  32
ENDBRANCH  22  29
ENDBRANCH   5  22
BRANCH  10  43
ATOM     43  C   UNL     1     112.549 125.792 137.856  0.00  0.00    +0.000 C 
BRANCH  43  44
ATOM     44  C   UNL     1     112.780 125.323 137.217  0.00  0.00    +0.000 C 
ATOM     45  C   UNL     1     113.580 125.180 137.077  0.00  0.00    +0.000 C 
ATOM     46  C   UNL     1     113.810 124.712 136.439  0.00  0.00    +0.000 C 
ATOM     47  C   UNL     1     114.151 125.506 137.577  0.00  0.00    +0.000 C 
ENDBRANCH  43  44
ENDBRANCH  10  43
TORSDOF 8
ENDMDL
MODEL 4
REMARK VINA RESULT:     -10.0      2.042      2.871
REMARK  Name = 44259058
REMARK  8 active torsions:
REMARK  status: ('A' for Active; 'I' for Inactive)
REMARK    1  A    between atoms: O_1  and  C_15
REMARK    2  A    between atoms: O_1  and  C_18
REMARK    3  A    between atoms: O_4  and  C_20
REMARK    4  A    between atoms: O_4  and  C_27
REMARK    5  A    between atoms: O_14  and  C_43
REMARK    6  A    between atoms: C_28  and  C_32
REMARK    7  A    between atoms: C_33  and  C_36
REMARK    8  A    between atoms: C_36  and  C_42
REMARK                            x       y       z     vdW  Elec       q    Type
REMARK                         _______ _______ _______ _____ _____    ______ ____
ROOT
ATOM      1  O   UNL     1     112.487 126.391 138.304  0.00  0.00    +0.000 OA
ATOM      2  O   UNL     1     110.108 127.040 138.110  0.00  0.00    +0.000 OA
ATOM      3  O   UNL     1     109.889 126.045 137.090  0.00  0.00    +0.000 OA
ATOM      4  O   UNL     1     112.121 124.359 136.249  0.00  0.00    +0.000 OA
ATOM      5  C   UNL     1     111.392 127.213 138.711  0.00  0.00    +0.000 A 
ATOM      6  C   UNL     1     112.185 126.997 138.776  0.00  0.00    +0.000 A 
ATOM      7  C   UNL     1     110.900 126.824 138.174  0.00  0.00    +0.000 A 
ATOM      8  C   UNL     1     111.203 126.219 137.702  0.00  0.00    +0.000 A 
ATOM      9  C   UNL     1     111.997 126.002 137.767  0.00  0.00    +0.000 A 
ATOM     10  C   UNL     1     112.323 125.373 137.281  0.00  0.00    +0.000 A 
ATOM     11  C   UNL     1     110.681 125.822 137.148  0.00  0.00    +0.000 A 
ATOM     12  C   UNL     1     111.816 124.964 136.720  0.00  0.00    +0.000 A 
ATOM     13  C   UNL     1     110.990 125.190 136.653  0.00  0.00    +0.000 A 
ENDROOT
BRANCH   6  14
ATOM     14  C   UNL     1     112.677 127.385 139.312  0.00  0.00    +0.000 A 
ATOM     15  C   UNL     1     113.017 128.109 139.110  0.00  0.00    +0.000 A 
ATOM     16  C   UNL     1     112.829 127.051 140.050  0.00  0.00    +0.000 A 
ATOM     17  C   UNL     1     113.509 128.499 139.645  0.00  0.00    +0.000 A 
ATOM     18  C   UNL     1     113.321 127.439 140.587  0.00  0.00    +0.000 A 
ATOM     19  C   UNL     1     113.661 128.163 140.384  0.00  0.00    +0.000 A 
BRANCH  19  20
ATOM     20  O   UNL     1     114.153 128.553 140.920  0.00  0.00    +0.000 OA
ATOM     21  C   UNL     1     114.289 129.363 140.840  0.00  0.00    +0.000 C 
ENDBRANCH  19  20
ENDBRANCH   6  14
BRANCH   5  22
ATOM     22  O   UNL     1     111.090 127.818 139.183  0.00  0.00    +0.000 OA
BRANCH  22  29
ATOM     23  O   UNL     1     110.364 126.958 140.063  0.00  0.00    +0.000 OA
ATOM     24  O   UNL     1     108.619 128.694 140.320  0.00  0.00    +0.000 OA
ATOM     25  O   UNL     1     108.474 127.255 141.115  0.00  0.00    +0.000 OA
ATOM     26  C   UNL     1     109.854 128.256 139.752  0.00  0.00    +0.000 C 
ATOM     27  C   UNL     1     109.201 128.116 140.234  0.00  0.00    +0.000 C 
ATOM     28  C   UNL     1     109.128 127.397 140.631  0.00  0.00    +0.000 C 
ATOM     29  C   UNL     1     110.436 127.678 139.666  0.00  0.00    +0.000 C 
ATOM     30  C   UNL     1     109.710 126.818 140.546  0.00  0.00    +0.000 C 
ATOM     31  C   UNL     1     109.638 126.098 140.943  0.00  0.00    +0.000 C 
BRANCH  26  32
ATOM     32  O   UNL     1     109.927 128.976 139.354  0.00  0.00    +0.000 OA
BRANCH  32  37
ATOM     33  O   UNL     1     110.395 129.595 140.554  0.00  0.00    +0.000 OA
ATOM     34  O   UNL     1     109.905 130.445 138.604  0.00  0.00    +0.000 OA
ATOM     35  O   UNL     1     110.362 131.799 139.428  0.00  0.00    +0.000 OA
ATOM     36  O   UNL     1     110.841 131.684 141.003  0.00  0.00    +0.000 OA
ATOM     37  C   UNL     1     110.156 129.653 139.766  0.00  0.00    +0.000 C 
ATOM     38  C   UNL     1     110.145 130.388 139.392  0.00  0.00    +0.000 C 
ATOM     39  C   UNL     1     110.373 131.065 139.804  0.00  0.00    +0.000 C 
ATOM     40  C   UNL     1     110.613 131.007 140.591  0.00  0.00    +0.000 C 
ATOM     41  C   UNL     1     110.624 130.273 140.967  0.00  0.00    +0.000 C 
ATOM     42  C   UNL     1     110.863 130.215 141.753  0.00  0.00    +0.000 C 
ENDBRANCH  32  37
ENDBRANCH  26  32
ENDBRANCH  22  29
ENDBRANCH   5  22
BRANCH  10  43
ATOM     43  C   UNL     1     113.117 125.163 137.352  0.00  0.00    +0.000 C 
BRANCH  43  44
ATOM     44  C   UNL     1     113.645 125.331 136.741  0.00  0.00    +0.000 C 
ATOM     45  C   UNL     1     114.445 125.149 136.824  0.00  0.00    +0.000 C 
ATOM     46  C   UNL     1     114.973 125.317 136.213  0.00  0.00    +0.000 C 
ATOM     47  C   UNL     1     114.718 124.798 137.520  0.00  0.00    +0.000 C 
ENDBRANCH  43  44
ENDBRANCH  10  43
TORSDOF 8
ENDMDL
MODEL 5
REMARK VINA RESULT:      -9.9      1.981      2.565
REMARK  Name = 44259058
REMARK  8 active torsions:
REMARK  status: ('A' for Active; 'I' for Inactive)
REMARK    1  A    between atoms: O_1  and  C_15
REMARK    2  A    between atoms: O_1  and  C_18
REMARK    3  A    between atoms: O_4  and  C_20
REMARK    4  A    between atoms: O_4  and  C_27
REMARK    5  A    between atoms: O_14  and  C_43
REMARK    6  A    between atoms: C_28  and  C_32
REMARK    7  A    between atoms: C_33  and  C_36
REMARK    8  A    between atoms: C_36  and  C_42
REMARK                            x       y       z     vdW  Elec       q    Type
REMARK                         _______ _______ _______ _____ _____    ______ ____
ROOT
ATOM      1  O   UNL     1     112.364 126.102 138.094  0.00  0.00    +0.000 OA
ATOM      2  O   UNL     1     110.009 126.780 137.750  0.00  0.00    +0.000 OA
ATOM      3  O   UNL     1     109.886 125.888 136.624  0.00  0.00    +0.000 OA
ATOM      4  O   UNL     1     112.191 124.280 135.829  0.00  0.00    +0.000 OA
ATOM      5  C   UNL     1     111.234 126.887 138.478  0.00  0.00    +0.000 A 
ATOM      6  C   UNL     1     112.019 126.661 138.593  0.00  0.00    +0.000 A 
ATOM      7  C   UNL     1     110.794 126.554 137.865  0.00  0.00    +0.000 A 
ATOM      8  C   UNL     1     111.139 125.995 137.366  0.00  0.00    +0.000 A 
ATOM      9  C   UNL     1     111.925 125.769 137.480  0.00  0.00    +0.000 A 
ATOM     10  C   UNL     1     112.296 125.188 136.967  0.00  0.00    +0.000 A 
ATOM     11  C   UNL     1     110.671 125.656 136.731  0.00  0.00    +0.000 A 
ATOM     12  C   UNL     1     111.843 124.838 136.326  0.00  0.00    +0.000 A 
ATOM     13  C   UNL     1     111.025 125.073 136.207  0.00  0.00    +0.000 A 
ENDROOT
BRANCH   6  14
ATOM     14  C   UNL     1     112.459 126.994 139.206  0.00  0.00    +0.000 A 
ATOM     15  C   UNL     1     112.411 126.677 139.966  0.00  0.00    +0.000 A 
ATOM     16  C   UNL     1     112.947 127.642 139.060  0.00  0.00    +0.000 A 
ATOM     17  C   UNL     1     112.851 127.008 140.580  0.00  0.00    +0.000 A 
ATOM     18  C   UNL     1     113.388 127.975 139.673  0.00  0.00    +0.000 A 
ATOM     19  C   UNL     1     113.340 127.658 140.434  0.00  0.00    +0.000 A 
BRANCH  19  20
ATOM     20  O   UNL     1     113.779 127.989 141.048  0.00  0.00    +0.000 OA
ATOM     21  C   UNL     1     114.099 128.746 140.964  0.00  0.00    +0.000 C 
ENDBRANCH  19  20
ENDBRANCH   6  14
BRANCH   5  22
ATOM     22  O   UNL     1     110.889 127.445 138.977  0.00  0.00    +0.000 OA
BRANCH  22  29
ATOM     23  O   UNL     1     110.945 128.527 138.045  0.00  0.00    +0.000 OA
ATOM     24  O   UNL     1     108.820 129.417 138.950  0.00  0.00    +0.000 OA
ATOM     25  O   UNL     1     109.584 130.202 137.717  0.00  0.00    +0.000 OA
ATOM     26  C   UNL     1     109.854 128.432 138.964  0.00  0.00    +0.000 C 
ATOM     27  C   UNL     1     109.528 129.120 138.649  0.00  0.00    +0.000 C 
ATOM     28  C   UNL     1     109.910 129.512 138.032  0.00  0.00    +0.000 C 
ATOM     29  C   UNL     1     110.562 128.135 138.662  0.00  0.00    +0.000 C 
ATOM     30  C   UNL     1     110.618 129.216 137.731  0.00  0.00    +0.000 C 
ATOM     31  C   UNL     1     111.001 129.609 137.113  0.00  0.00    +0.000 C 
BRANCH  26  32
ATOM     32  O   UNL     1     109.472 128.038 139.581  0.00  0.00    +0.000 OA
BRANCH  32  37
ATOM     33  O   UNL     1     110.029 128.966 140.515  0.00  0.00    +0.000 OA
ATOM     34  O   UNL     1     108.690 127.268 140.812  0.00  0.00    +0.000 OA
ATOM     35  O   UNL     1     108.856 127.810 142.362  0.00  0.00    +0.000 OA
ATOM     36  O   UNL     1     109.803 129.123 142.680  0.00  0.00    +0.000 OA
ATOM     37  C   UNL     1     109.555 128.309 140.356  0.00  0.00    +0.000 C 
ATOM     38  C   UNL     1     109.164 127.925 140.972  0.00  0.00    +0.000 C 
ATOM     39  C   UNL     1     109.247 128.196 141.746  0.00  0.00    +0.000 C 
ATOM     40  C   UNL     1     109.721 128.852 141.905  0.00  0.00    +0.000 C 
ATOM     41  C   UNL     1     110.112 129.238 141.290  0.00  0.00    +0.000 C 
ATOM     42  C   UNL     1     110.585 129.894 141.448  0.00  0.00    +0.000 C 
ENDBRANCH  32  37
ENDBRANCH  26  32
ENDBRANCH  22  29
ENDBRANCH   5  22
BRANCH  10  43
ATOM     43  C   UNL     1     113.082 124.969 137.089  0.00  0.00    +0.000 C 
BRANCH  43  44
ATOM     44  C   UNL     1     113.664 125.203 136.553  0.00  0.00    +0.000 C 
ATOM     45  C   UNL     1     114.457 125.038 136.707  0.00  0.00    +0.000 C 
ATOM     46  C   UNL     1     115.039 125.272 136.171  0.00  0.00    +0.000 C 
ATOM     47  C   UNL     1     114.669 124.637 137.397  0.00  0.00    +0.000 C 
ENDBRANCH  43  44
ENDBRANCH  10  43
TORSDOF 8
ENDMDL
MODEL 6
REMARK VINA RESULT:      -9.9      2.063      2.869
REMARK  Name = 44259058
REMARK  8 active torsions:
REMARK  status: ('A' for Active; 'I' for Inactive)
REMARK    1  A    between atoms: O_1  and  C_15
REMARK    2  A    between atoms: O_1  and  C_18
REMARK    3  A    between atoms: O_4  and  C_20
REMARK    4  A    between atoms: O_4  and  C_27
REMARK    5  A    between atoms: O_14  and  C_43
REMARK    6  A    between atoms: C_28  and  C_32
REMARK    7  A    between atoms: C_33  and  C_36
REMARK    8  A    between atoms: C_36  and  C_42
REMARK                            x       y       z     vdW  Elec       q    Type
REMARK                         _______ _______ _______ _____ _____    ______ ____
ROOT
ATOM      1  O   UNL     1     112.064 126.489 137.684  0.00  0.00    +0.000 OA
ATOM      2  O   UNL     1     110.637 128.490 137.392  0.00  0.00    +0.000 OA
ATOM      3  O   UNL     1     110.123 127.978 136.146  0.00  0.00    +0.000 OA
ATOM      4  O   UNL     1     111.070 125.391 135.176  0.00  0.00    +0.000 OA
ATOM      5  C   UNL     1     111.597 127.754 138.154  0.00  0.00    +0.000 A 
ATOM      6  C   UNL     1     112.073 127.088 138.251  0.00  0.00    +0.000 A 
ATOM      7  C   UNL     1     111.113 127.823 137.490  0.00  0.00    +0.000 A 
ATOM      8  C   UNL     1     111.104 127.224 136.922  0.00  0.00    +0.000 A 
ATOM      9  C   UNL     1     111.580 126.557 137.019  0.00  0.00    +0.000 A 
ATOM     10  C   UNL     1     111.579 125.926 136.435  0.00  0.00    +0.000 A 
ATOM     11  C   UNL     1     110.595 127.307 136.235  0.00  0.00    +0.000 A 
ATOM     12  C   UNL     1     111.077 125.992 135.742  0.00  0.00    +0.000 A 
ATOM     13  C   UNL     1     110.582 126.686 135.640  0.00  0.00    +0.000 A 
ENDROOT
BRANCH   6  14
ATOM     14  C   UNL     1     112.558 127.019 138.915  0.00  0.00    +0.000 A 
ATOM     15  C   UNL     1     112.244 126.748 139.628  0.00  0.00    +0.000 A 
ATOM     16  C   UNL     1     113.355 127.222 138.867  0.00  0.00    +0.000 A 
ATOM     17  C   UNL     1     112.727 126.679 140.293  0.00  0.00    +0.000 A 
ATOM     18  C   UNL     1     113.840 127.153 139.531  0.00  0.00    +0.000 A 
ATOM     19  C   UNL     1     113.526 126.881 140.244  0.00  0.00    +0.000 A 
BRANCH  19  20
ATOM     20  O   UNL     1     114.010 126.812 140.909  0.00  0.00    +0.000 OA
ATOM     21  C   UNL     1     114.712 127.244 140.954  0.00  0.00    +0.000 C 
ENDBRANCH  19  20
ENDBRANCH   6  14
BRANCH   5  22
ATOM     22  O   UNL     1     111.606 128.353 138.721  0.00  0.00    +0.000 OA
BRANCH  22  29
ATOM     23  O   UNL     1     112.381 129.263 137.937  0.00  0.00    +0.000 OA
ATOM     24  O   UNL     1     111.193 131.170 138.976  0.00  0.00    +0.000 OA
ATOM     25  O   UNL     1     112.364 131.444 137.846  0.00  0.00    +0.000 OA
ATOM     26  C   UNL     1     111.400 129.762 138.849  0.00  0.00    +0.000 C 
ATOM     27  C   UNL     1     111.589 130.534 138.630  0.00  0.00    +0.000 C 
ATOM     28  C   UNL     1     112.174 130.671 138.065  0.00  0.00    +0.000 C 
ATOM     29  C   UNL     1     111.796 129.127 138.502  0.00  0.00    +0.000 C 
ATOM     30  C   UNL     1     112.570 130.036 137.719  0.00  0.00    +0.000 C 
ATOM     31  C   UNL     1     113.156 130.173 137.153  0.00  0.00    +0.000 C 
BRANCH  26  32
ATOM     32  O   UNL     1     110.814 129.625 139.414  0.00  0.00    +0.000 OA
BRANCH  32  37
ATOM     33  O   UNL     1     111.745 129.937 140.453  0.00  0.00    +0.000 OA
ATOM     34  O   UNL     1     109.631 129.401 140.541  0.00  0.00    +0.000 OA
ATOM     35  O   UNL     1     109.969 129.603 142.144  0.00  0.00    +0.000 OA
ATOM     36  O   UNL     1     111.491 130.027 142.618  0.00  0.00    +0.000 OA
ATOM     37  C   UNL     1     110.984 129.725 140.215  0.00  0.00    +0.000 C 
ATOM     38  C   UNL     1     110.392 129.614 140.779  0.00  0.00    +0.000 C 
ATOM     39  C   UNL     1     110.561 129.714 141.580  0.00  0.00    +0.000 C 
ATOM     40  C   UNL     1     111.322 129.926 141.817  0.00  0.00    +0.000 C 
ATOM     41  C   UNL     1     111.914 130.038 141.254  0.00  0.00    +0.000 C 
ATOM     42  C   UNL     1     112.675 130.250 141.491  0.00  0.00    +0.000 C 
ENDBRANCH  32  37
ENDBRANCH  26  32
ENDBRANCH  22  29
ENDBRANCH   5  22
BRANCH  10  43
ATOM     43  C   UNL     1     112.058 125.263 136.541  0.00  0.00    +0.000 C 
BRANCH  43  44
ATOM     44  C   UNL     1     111.721 124.539 136.746  0.00  0.00    +0.000 C 
ATOM     45  C   UNL     1     112.202 123.883 136.884  0.00  0.00    +0.000 C 
ATOM     46  C   UNL     1     111.865 123.159 137.089  0.00  0.00    +0.000 C 
ATOM     47  C   UNL     1     113.022 123.952 136.816  0.00  0.00    +0.000 C 
ENDBRANCH  43  44
ENDBRANCH  10  43
TORSDOF 8
ENDMDL
MODEL 7
REMARK VINA RESULT:      -9.7      1.641      5.449
REMARK  Name = 44259058
REMARK  8 active torsions:
REMARK  status: ('A' for Active; 'I' for Inactive)
REMARK    1  A    between atoms: O_1  and  C_15
REMARK    2  A    between atoms: O_1  and  C_18
REMARK    3  A    between atoms: O_4  and  C_20
REMARK    4  A    between atoms: O_4  and  C_27
REMARK    5  A    between atoms: O_14  and  C_43
REMARK    6  A    between atoms: C_28  and  C_32
REMARK    7  A    between atoms: C_33  and  C_36
REMARK    8  A    between atoms: C_36  and  C_42
REMARK                            x       y       z     vdW  Elec       q    Type
REMARK                         _______ _______ _______ _____ _____    ______ ____
ROOT
ATOM      1  O   UNL     1     111.034 130.191 137.733  0.00  0.00    +0.000 OA
ATOM      2  O   UNL     1     110.104 128.305 139.038  0.00  0.00    +0.000 OA
ATOM      3  O   UNL     1     109.050 129.143 139.554  0.00  0.00    +0.000 OA
ATOM      4  O   UNL     1     108.934 131.944 138.734  0.00  0.00    +0.000 OA
ATOM      5  C   UNL     1     111.086 128.822 138.137  0.00  0.00    +0.000 A 
ATOM      6  C   UNL     1     111.396 129.451 137.703  0.00  0.00    +0.000 A 
ATOM      7  C   UNL     1     110.414 128.933 138.603  0.00  0.00    +0.000 A 
ATOM      8  C   UNL     1     110.052 129.674 138.634  0.00  0.00    +0.000 A 
ATOM      9  C   UNL     1     110.362 130.304 138.199  0.00  0.00    +0.000 A 
ATOM     10  C   UNL     1     109.994 131.079 138.222  0.00  0.00    +0.000 A 
ATOM     11  C   UNL     1     109.353 129.778 139.122  0.00  0.00    +0.000 A 
ATOM     12  C   UNL     1     109.294 131.202 138.705  0.00  0.00    +0.000 A 
ATOM     13  C   UNL     1     108.971 130.547 139.158  0.00  0.00    +0.000 A 
ENDROOT
BRANCH   6  14
ATOM     14  C   UNL     1     112.068 129.339 137.237  0.00  0.00    +0.000 A 
ATOM     15  C   UNL     1     111.996 129.019 136.480  0.00  0.00    +0.000 A 
ATOM     16  C   UNL     1     112.811 129.548 137.527  0.00  0.00    +0.000 A 
ATOM     17  C   UNL     1     112.667 128.908 136.013  0.00  0.00    +0.000 A 
ATOM     18  C   UNL     1     113.483 129.437 137.061  0.00  0.00    +0.000 A 
ATOM     19  C   UNL     1     113.411 129.117 136.304  0.00  0.00    +0.000 A 
BRANCH  19  20
ATOM     20  O   UNL     1     114.082 129.005 135.838  0.00  0.00    +0.000 OA
ATOM     21  C   UNL     1     114.184 129.450 135.149  0.00  0.00    +0.000 C 
ENDBRANCH  19  20
ENDBRANCH   6  14
BRANCH   5  22
ATOM     22  O   UNL     1     111.448 128.082 138.107  0.00  0.00    +0.000 OA
BRANCH  22  29
ATOM     23  O   UNL     1     112.052 128.164 139.399  0.00  0.00    +0.000 OA
ATOM     24  O   UNL     1     111.750 125.725 139.696  0.00  0.00    +0.000 OA
ATOM     25  O   UNL     1     112.455 126.621 140.889  0.00  0.00    +0.000 OA
ATOM     26  C   UNL     1     111.599 126.903 138.902  0.00  0.00    +0.000 C 
ATOM     27  C   UNL     1     111.851 126.538 139.597  0.00  0.00    +0.000 C 
ATOM     28  C   UNL     1     112.203 126.985 140.193  0.00  0.00    +0.000 C 
ATOM     29  C   UNL     1     111.700 127.716 138.803  0.00  0.00    +0.000 C 
ATOM     30  C   UNL     1     112.304 127.798 140.094  0.00  0.00    +0.000 C 
ATOM     31  C   UNL     1     112.656 128.246 140.692  0.00  0.00    +0.000 C 
BRANCH  26  32
ATOM     32  O   UNL     1     111.247 126.456 138.304  0.00  0.00    +0.000 OA
BRANCH  32  37
ATOM     33  O   UNL     1     112.537 126.027 137.863  0.00  0.00    +0.000 OA
ATOM     34  O   UNL     1     110.537 125.473 137.185  0.00  0.00    +0.000 OA
ATOM     35  O   UNL     1     111.472 124.553 136.184  0.00  0.00    +0.000 OA
ATOM     36  O   UNL     1     113.117 124.616 136.303  0.00  0.00    +0.000 OA
ATOM     37  C   UNL     1     111.714 125.996 137.804  0.00  0.00    +0.000 C 
ATOM     38  C   UNL     1     111.360 125.504 137.244  0.00  0.00    +0.000 C 
ATOM     39  C   UNL     1     111.828 125.044 136.744  0.00  0.00    +0.000 C 
ATOM     40  C   UNL     1     112.649 125.076 136.803  0.00  0.00    +0.000 C 
ATOM     41  C   UNL     1     113.005 125.567 137.363  0.00  0.00    +0.000 C 
ATOM     42  C   UNL     1     113.826 125.598 137.422  0.00  0.00    +0.000 C 
ENDBRANCH  32  37
ENDBRANCH  26  32
ENDBRANCH  22  29
ENDBRANCH   5  22
BRANCH  10  43
ATOM     43  C   UNL     1     110.311 131.702 137.784  0.00  0.00    +0.000 C 
BRANCH  43  44
ATOM     44  C   UNL     1     109.905 131.993 137.127  0.00  0.00    +0.000 C 
ATOM     45  C   UNL     1     110.230 132.604 136.678  0.00  0.00    +0.000 C 
ATOM     46  C   UNL     1     109.825 132.894 136.021  0.00  0.00    +0.000 C 
ATOM     47  C   UNL     1     110.961 132.926 136.888  0.00  0.00    +0.000 C 
ENDBRANCH  43  44
ENDBRANCH  10  43
TORSDOF 8
ENDMDL
MODEL 8
REMARK VINA RESULT:      -9.7      1.813      5.873
REMARK  Name = 44259058
REMARK  8 active torsions:
REMARK  status: ('A' for Active; 'I' for Inactive)
REMARK    1  A    between atoms: O_1  and  C_15
REMARK    2  A    between atoms: O_1  and  C_18
REMARK    3  A    between atoms: O_4  and  C_20
REMARK    4  A    between atoms: O_4  and  C_27
REMARK    5  A    between atoms: O_14  and  C_43
REMARK    6  A    between atoms: C_28  and  C_32
REMARK    7  A    between atoms: C_33  and  C_36
REMARK    8  A    between atoms: C_36  and  C_42
REMARK                            x       y       z     vdW  Elec       q    Type
REMARK                         _______ _______ _______ _____ _____    ______ ____
ROOT
ATOM      1  O   UNL     1     110.789 129.463 136.457  0.00  0.00    +0.000 OA
ATOM      2  O   UNL     1     112.636 128.972 138.029  0.00  0.00    +0.000 OA
ATOM      3  O   UNL     1     112.846 130.378 138.267  0.00  0.00    +0.000 OA
ATOM      4  O   UNL     1     111.155 132.320 136.888  0.00  0.00    +0.000 OA
ATOM      5  C   UNL     1     111.618 128.517 137.134  0.00  0.00    +0.000 A 
ATOM      6  C   UNL     1     111.003 128.681 136.610  0.00  0.00    +0.000 A 
ATOM      7  C   UNL     1     112.020 129.135 137.505  0.00  0.00    +0.000 A 
ATOM      8  C   UNL     1     111.806 129.917 137.352  0.00  0.00    +0.000 A 
ATOM      9  C   UNL     1     111.190 130.081 136.828  0.00  0.00    +0.000 A 
ATOM     10  C   UNL     1     110.957 130.891 136.660  0.00  0.00    +0.000 A 
ATOM     11  C   UNL     1     112.231 130.551 137.744  0.00  0.00    +0.000 A 
ATOM     12  C   UNL     1     111.372 131.539 137.043  0.00  0.00    +0.000 A 
ATOM     13  C   UNL     1     112.013 131.369 137.589  0.00  0.00    +0.000 A 
ENDROOT
BRANCH   6  14
ATOM     14  C   UNL     1     110.601 128.063 136.239  0.00  0.00    +0.000 A 
ATOM     15  C   UNL     1     109.892 127.784 136.556  0.00  0.00    +0.000 A 
ATOM     16  C   UNL     1     110.907 127.725 135.553  0.00  0.00    +0.000 A 
ATOM     17  C   UNL     1     109.489 127.167 136.186  0.00  0.00    +0.000 A 
ATOM     18  C   UNL     1     110.505 127.107 135.181  0.00  0.00    +0.000 A 
ATOM     19  C   UNL     1     109.796 126.828 135.498  0.00  0.00    +0.000 A 
BRANCH  19  20
ATOM     20  O   UNL     1     109.393 126.211 135.128  0.00  0.00    +0.000 OA
ATOM     21  C   UNL     1     109.795 125.707 134.612  0.00  0.00    +0.000 C 
ENDBRANCH  19  20
ENDBRANCH   6  14
BRANCH   5  22
ATOM     22  O   UNL     1     111.833 127.736 137.287  0.00  0.00    +0.000 OA
BRANCH  22  29
ATOM     23  O   UNL     1     111.236 127.683 138.585  0.00  0.00    +0.000 OA
ATOM     24  O   UNL     1     113.016 126.137 139.340  0.00  0.00    +0.000 OA
ATOM     25  O   UNL     1     111.826 126.600 140.386  0.00  0.00    +0.000 OA
ATOM     26  C   UNL     1     112.424 126.936 138.314  0.00  0.00    +0.000 C 
ATOM     27  C   UNL     1     112.423 126.652 139.088  0.00  0.00    +0.000 C 
ATOM     28  C   UNL     1     111.828 126.883 139.611  0.00  0.00    +0.000 C 
ATOM     29  C   UNL     1     111.831 127.451 138.062  0.00  0.00    +0.000 C 
ATOM     30  C   UNL     1     111.235 127.399 139.359  0.00  0.00    +0.000 C 
ATOM     31  C   UNL     1     110.640 127.630 139.882  0.00  0.00    +0.000 C 
BRANCH  26  32
ATOM     32  O   UNL     1     113.019 126.705 137.790  0.00  0.00    +0.000 OA
BRANCH  32  37
ATOM     33  O   UNL     1     112.346 125.462 137.574  0.00  0.00    +0.000 OA
ATOM     34  O   UNL     1     114.256 126.204 136.821  0.00  0.00    +0.000 OA
ATOM     35  O   UNL     1     114.202 124.711 136.120  0.00  0.00    +0.000 OA
ATOM     36  O   UNL     1     112.911 123.720 136.388  0.00  0.00    +0.000 OA
ATOM     37  C   UNL     1     112.992 125.959 137.440  0.00  0.00    +0.000 C 
ATOM     38  C   UNL     1     113.610 125.708 136.955  0.00  0.00    +0.000 C 
ATOM     39  C   UNL     1     113.583 124.961 136.604  0.00  0.00    +0.000 C 
ATOM     40  C   UNL     1     112.938 124.466 136.739  0.00  0.00    +0.000 C 
ATOM     41  C   UNL     1     112.319 124.716 137.224  0.00  0.00    +0.000 C 
ATOM     42  C   UNL     1     111.673 124.221 137.358  0.00  0.00    +0.000 C 
ENDBRANCH  32  37
ENDBRANCH  26  32
ENDBRANCH  22  29
ENDBRANCH   5  22
BRANCH  10  43
ATOM     43  C   UNL     1     110.340 131.045 136.135  0.00  0.00    +0.000 C 
BRANCH  43  44
ATOM     44  C   UNL     1     109.621 131.334 136.417  0.00  0.00    +0.000 C 
ATOM     45  C   UNL     1     108.991 131.451 135.897  0.00  0.00    +0.000 C 
ATOM     46  C   UNL     1     108.271 131.739 136.179  0.00  0.00    +0.000 C 
ATOM     47  C   UNL     1     109.080 131.279 135.095  0.00  0.00    +0.000 C 
ENDBRANCH  43  44
ENDBRANCH  10  43
TORSDOF 8
ENDMDL
