MODEL 1
REMARK VINA RESULT:     -10.2      0.000      0.000
REMARK  Name = 44258927
REMARK  5 active torsions:
REMARK  status: ('A' for Active; 'I' for Inactive)
REMARK    1  A    between atoms: O_1  and  C_15
REMARK    2  A    between atoms: O_1  and  C_20
REMARK    3  A    between atoms: O_4  and  C_18
REMARK    4  A    between atoms: O_4  and  C_26
REMARK    5  A    between atoms: C_27  and  C_31
REMARK                            x       y       z     vdW  Elec       q    Type
REMARK                         _______ _______ _______ _____ _____    ______ ____
ROOT
ATOM      1  O   UNL     1     112.058 127.075 137.473  0.00  0.00    +0.000 OA
ENDROOT
BRANCH   1   6
ATOM      2  O   UNL     1     113.346 126.092 138.935  0.00  0.00    +0.000 OA
ATOM      3  O   UNL     1     112.470 128.351 138.434  0.00  0.00    +0.000 OA
ATOM      4  O   UNL     1     113.171 128.906 139.566  0.00  0.00    +0.000 OA
ATOM      5  O   UNL     1     114.789 127.141 141.237  0.00  0.00    +0.000 OA
ATOM      6  C   UNL     1     112.556 126.960 138.120  0.00  0.00    +0.000 A 
ATOM      7  C   UNL     1     112.848 126.207 138.287  0.00  0.00    +0.000 A 
ATOM      8  C   UNL     1     112.762 127.599 138.600  0.00  0.00    +0.000 A 
ATOM      9  C   UNL     1     113.260 127.484 139.248  0.00  0.00    +0.000 A 
ATOM     10  C   UNL     1     113.553 126.730 139.415  0.00  0.00    +0.000 A 
ATOM     11  C   UNL     1     113.468 128.156 139.741  0.00  0.00    +0.000 A 
ATOM     12  C   UNL     1     114.072 126.598 140.086  0.00  0.00    +0.000 A 
ATOM     13  C   UNL     1     113.987 128.043 140.417  0.00  0.00    +0.000 A 
ATOM     14  C   UNL     1     114.290 127.259 140.590  0.00  0.00    +0.000 A 
BRANCH   7  16
ATOM     15  O   UNL     1     112.023 123.652 136.369  0.00  0.00    +0.000 OA
ATOM     16  C   UNL     1     112.642 125.568 137.807  0.00  0.00    +0.000 A 
ATOM     17  C   UNL     1     111.923 125.182 137.922  0.00  0.00    +0.000 A 
ATOM     18  C   UNL     1     113.155 125.316 137.213  0.00  0.00    +0.000 A 
ATOM     19  C   UNL     1     111.716 124.543 137.443  0.00  0.00    +0.000 A 
ATOM     20  C   UNL     1     112.950 124.677 136.733  0.00  0.00    +0.000 A 
ATOM     21  C   UNL     1     112.230 124.291 136.848  0.00  0.00    +0.000 A 
ENDBRANCH   7  16
ENDBRANCH   1   6
BRANCH   1  28
ATOM     22  O   UNL     1     113.049 127.697 136.652  0.00  0.00    +0.000 OA
ATOM     23  O   UNL     1     111.298 129.095 135.600  0.00  0.00    +0.000 OA
ATOM     24  O   UNL     1     112.872 129.252 135.130  0.00  0.00    +0.000 OA
ATOM     25  C   UNL     1     111.678 128.085 136.536  0.00  0.00    +0.000 C 
ATOM     26  C   UNL     1     111.882 128.629 135.951  0.00  0.00    +0.000 C 
ATOM     27  C   UNL     1     112.668 128.707 135.716  0.00  0.00    +0.000 C 
ATOM     28  C   UNL     1     112.262 127.619 136.887  0.00  0.00    +0.000 C 
ATOM     29  C   UNL     1     113.252 128.241 136.067  0.00  0.00    +0.000 C 
ATOM     30  C   UNL     1     114.039 128.320 135.832  0.00  0.00    +0.000 C 
BRANCH  25  31
ATOM     31  O   UNL     1     110.891 128.007 136.771  0.00  0.00    +0.000 OA
BRANCH  31  36
ATOM     32  O   UNL     1     110.625 127.215 135.611  0.00  0.00    +0.000 OA
ATOM     33  O   UNL     1     109.320 127.839 137.247  0.00  0.00    +0.000 OA
ATOM     34  O   UNL     1     108.268 126.964 136.325  0.00  0.00    +0.000 OA
ATOM     35  O   UNL     1     108.787 126.256 134.927  0.00  0.00    +0.000 OA
ATOM     36  C   UNL     1     110.365 127.569 136.310  0.00  0.00    +0.000 C 
ATOM     37  C   UNL     1     109.580 127.485 136.547  0.00  0.00    +0.000 C 
ATOM     38  C   UNL     1     109.054 127.047 136.086  0.00  0.00    +0.000 C 
ATOM     39  C   UNL     1     109.313 126.694 135.388  0.00  0.00    +0.000 C 
ATOM     40  C   UNL     1     110.099 126.778 135.150  0.00  0.00    +0.000 C 
ENDBRANCH  31  36
ENDBRANCH  25  31
ENDBRANCH   1  28
TORSDOF 5
ENDMDL
MODEL 2
REMARK VINA RESULT:     -10.0      1.710      4.588
REMARK  Name = 44258927
REMARK  5 active torsions:
REMARK  status: ('A' for Active; 'I' for Inactive)
REMARK    1  A    between atoms: O_1  and  C_15
REMARK    2  A    between atoms: O_1  and  C_20
REMARK    3  A    between atoms: O_4  and  C_18
REMARK    4  A    between atoms: O_4  and  C_26
REMARK    5  A    between atoms: C_27  and  C_31
REMARK                            x       y       z     vdW  Elec       q    Type
REMARK                         _______ _______ _______ _____ _____    ______ ____
ROOT
ATOM      1  O   UNL     1     111.977 127.690 136.618  0.00  0.00    +0.000 OA
ENDROOT
BRANCH   1   6
ATOM      2  O   UNL     1     111.483 129.795 136.326  0.00  0.00    +0.000 OA
ATOM      3  O   UNL     1     110.496 127.765 137.341  0.00  0.00    +0.000 OA
ATOM      4  O   UNL     1     109.321 128.502 137.740  0.00  0.00    +0.000 OA
ATOM      5  O   UNL     1     109.142 131.345 137.100  0.00  0.00    +0.000 OA
ATOM      6  C   UNL     1     111.566 128.404 136.641  0.00  0.00    +0.000 A 
ATOM      7  C   UNL     1     111.895 129.080 136.303  0.00  0.00    +0.000 A 
ATOM      8  C   UNL     1     110.825 128.441 137.002  0.00  0.00    +0.000 A 
ATOM      9  C   UNL     1     110.413 129.156 137.025  0.00  0.00    +0.000 A 
ATOM     10  C   UNL     1     110.742 129.833 136.687  0.00  0.00    +0.000 A 
ATOM     11  C   UNL     1     109.642 129.184 137.404  0.00  0.00    +0.000 A 
ATOM     12  C   UNL     1     110.323 130.583 136.704  0.00  0.00    +0.000 A 
ATOM     13  C   UNL     1     109.208 129.925 137.431  0.00  0.00    +0.000 A 
ATOM     14  C   UNL     1     109.551 130.629 137.079  0.00  0.00    +0.000 A 
BRANCH   7  16
ATOM     15  O   UNL     1     114.859 128.931 134.860  0.00  0.00    +0.000 OA
ATOM     16  C   UNL     1     112.635 129.043 135.942  0.00  0.00    +0.000 A 
ATOM     17  C   UNL     1     113.320 129.085 136.400  0.00  0.00    +0.000 A 
ATOM     18  C   UNL     1     112.692 128.963 135.123  0.00  0.00    +0.000 A 
ATOM     19  C   UNL     1     114.061 129.048 136.040  0.00  0.00    +0.000 A 
ATOM     20  C   UNL     1     113.433 128.926 134.762  0.00  0.00    +0.000 A 
ATOM     21  C   UNL     1     114.118 128.969 135.220  0.00  0.00    +0.000 A 
ENDBRANCH   7  16
ENDBRANCH   1   6
BRANCH   1  28
ATOM     22  O   UNL     1     111.151 127.095 135.615  0.00  0.00    +0.000 OA
ATOM     23  O   UNL     1     111.519 124.869 136.632  0.00  0.00    +0.000 OA
ATOM     24  O   UNL     1     110.570 125.016 135.290  0.00  0.00    +0.000 OA
ATOM     25  C   UNL     1     111.748 126.279 136.625  0.00  0.00    +0.000 C 
ATOM     26  C   UNL     1     111.396 125.611 136.293  0.00  0.00    +0.000 C 
ATOM     27  C   UNL     1     110.922 125.684 135.623  0.00  0.00    +0.000 C 
ATOM     28  C   UNL     1     111.625 127.021 136.286  0.00  0.00    +0.000 C 
ATOM     29  C   UNL     1     110.799 126.426 135.284  0.00  0.00    +0.000 C 
ATOM     30  C   UNL     1     110.324 126.500 134.613  0.00  0.00    +0.000 C 
BRANCH  25  31
ATOM     31  O   UNL     1     112.223 126.205 137.296  0.00  0.00    +0.000 OA
BRANCH  31  36
ATOM     32  O   UNL     1     113.279 125.677 136.490  0.00  0.00    +0.000 OA
ATOM     33  O   UNL     1     113.189 126.102 138.630  0.00  0.00    +0.000 OA
ATOM     34  O   UNL     1     114.727 125.522 138.491  0.00  0.00    +0.000 OA
ATOM     35  O   UNL     1     115.300 125.046 137.019  0.00  0.00    +0.000 OA
ATOM     36  C   UNL     1     112.992 125.915 137.227  0.00  0.00    +0.000 C 
ATOM     37  C   UNL     1     113.475 125.863 137.893  0.00  0.00    +0.000 C 
ATOM     38  C   UNL     1     114.245 125.573 137.824  0.00  0.00    +0.000 C 
ATOM     39  C   UNL     1     114.531 125.336 137.088  0.00  0.00    +0.000 C 
ATOM     40  C   UNL     1     114.048 125.387 136.420  0.00  0.00    +0.000 C 
ENDBRANCH  31  36
ENDBRANCH  25  31
ENDBRANCH   1  28
TORSDOF 5
ENDMDL
MODEL 3
REMARK VINA RESULT:      -9.9      2.326      4.086
REMARK  Name = 44258927
REMARK  5 active torsions:
REMARK  status: ('A' for Active; 'I' for Inactive)
REMARK    1  A    between atoms: O_1  and  C_15
REMARK    2  A    between atoms: O_1  and  C_20
REMARK    3  A    between atoms: O_4  and  C_18
REMARK    4  A    between atoms: O_4  and  C_26
REMARK    5  A    between atoms: C_27  and  C_31
REMARK                            x       y       z     vdW  Elec       q    Type
REMARK                         _______ _______ _______ _____ _____    ______ ____
ROOT
ATOM      1  O   UNL     1     111.613 126.409 139.012  0.00  0.00    +0.000 OA
ENDROOT
BRANCH   1   6
ATOM      2  O   UNL     1     113.761 126.183 138.695  0.00  0.00    +0.000 OA
ATOM      3  O   UNL     1     111.633 125.325 137.768  0.00  0.00    +0.000 OA
ATOM      4  O   UNL     1     112.345 124.509 136.814  0.00  0.00    +0.000 OA
ATOM      5  O   UNL     1     115.264 124.564 136.798  0.00  0.00    +0.000 OA
ATOM      6  C   UNL     1     112.333 126.153 138.699  0.00  0.00    +0.000 A 
ATOM      7  C   UNL     1     113.041 126.439 139.008  0.00  0.00    +0.000 A 
ATOM      8  C   UNL     1     112.342 125.611 138.077  0.00  0.00    +0.000 A 
ATOM      9  C   UNL     1     113.061 125.355 137.764  0.00  0.00    +0.000 A 
ATOM     10  C   UNL     1     113.771 125.641 138.074  0.00  0.00    +0.000 A 
ATOM     11  C   UNL     1     113.059 124.790 137.117  0.00  0.00    +0.000 A 
ATOM     12  C   UNL     1     114.526 125.382 137.757  0.00  0.00    +0.000 A 
ATOM     13  C   UNL     1     113.805 124.520 136.787  0.00  0.00    +0.000 A 
ATOM     14  C   UNL     1     114.543 124.818 137.109  0.00  0.00    +0.000 A 
BRANCH   7  16
ATOM     15  O   UNL     1     113.004 128.606 141.497  0.00  0.00    +0.000 OA
ATOM     16  C   UNL     1     113.032 126.982 139.630  0.00  0.00    +0.000 A 
ATOM     17  C   UNL     1     112.948 126.716 140.406  0.00  0.00    +0.000 A 
ATOM     18  C   UNL     1     113.107 127.788 139.476  0.00  0.00    +0.000 A 
ATOM     19  C   UNL     1     112.938 127.258 141.029  0.00  0.00    +0.000 A 
ATOM     20  C   UNL     1     113.098 128.330 140.098  0.00  0.00    +0.000 A 
ATOM     21  C   UNL     1     113.013 128.065 140.874  0.00  0.00    +0.000 A 
ENDBRANCH   7  16
ENDBRANCH   1   6
BRANCH   1  28
ATOM     22  O   UNL     1     111.285 127.260 137.911  0.00  0.00    +0.000 OA
ATOM     23  O   UNL     1     108.882 126.778 138.255  0.00  0.00    +0.000 OA
ATOM     24  O   UNL     1     109.355 127.789 137.040  0.00  0.00    +0.000 OA
ATOM     25  C   UNL     1     110.247 126.594 138.633  0.00  0.00    +0.000 C 
ATOM     26  C   UNL     1     109.683 126.938 138.140  0.00  0.00    +0.000 C 
ATOM     27  C   UNL     1     109.919 127.444 137.534  0.00  0.00    +0.000 C 
ATOM     28  C   UNL     1     111.048 126.754 138.518  0.00  0.00    +0.000 C 
ATOM     29  C   UNL     1     110.720 127.605 137.419  0.00  0.00    +0.000 C 
ATOM     30  C   UNL     1     110.957 128.111 136.811  0.00  0.00    +0.000 C 
BRANCH  25  31
ATOM     31  O   UNL     1     110.011 126.087 139.241  0.00  0.00    +0.000 OA
BRANCH  31  36
ATOM     32  O   UNL     1     109.654 127.216 140.042  0.00  0.00    +0.000 OA
ATOM     33  O   UNL     1     109.455 125.075 140.418  0.00  0.00    +0.000 OA
ATOM     34  O   UNL     1     108.819 125.696 141.808  0.00  0.00    +0.000 OA
ATOM     35  O   UNL     1     108.740 127.331 142.020  0.00  0.00    +0.000 OA
ATOM     36  C   UNL     1     109.693 126.398 139.936  0.00  0.00    +0.000 C 
ATOM     37  C   UNL     1     109.415 125.893 140.525  0.00  0.00    +0.000 C 
ATOM     38  C   UNL     1     109.097 126.203 141.220  0.00  0.00    +0.000 C 
ATOM     39  C   UNL     1     109.058 127.020 141.325  0.00  0.00    +0.000 C 
ATOM     40  C   UNL     1     109.336 127.527 140.737  0.00  0.00    +0.000 C 
ENDBRANCH  31  36
ENDBRANCH  25  31
ENDBRANCH   1  28
TORSDOF 5
ENDMDL
MODEL 4
REMARK VINA RESULT:      -9.9      1.911      3.935
REMARK  Name = 44258927
REMARK  5 active torsions:
REMARK  status: ('A' for Active; 'I' for Inactive)
REMARK    1  A    between atoms: O_1  and  C_15
REMARK    2  A    between atoms: O_1  and  C_20
REMARK    3  A    between atoms: O_4  and  C_18
REMARK    4  A    between atoms: O_4  and  C_26
REMARK    5  A    between atoms: C_27  and  C_31
REMARK                            x       y       z     vdW  Elec       q    Type
REMARK                         _______ _______ _______ _____ _____    ______ ____
ROOT
ATOM      1  O   UNL     1     112.314 128.466 136.723  0.00  0.00    +0.000 OA
ENDROOT
BRANCH   1   6
ATOM      2  O   UNL     1     111.695 126.503 135.998  0.00  0.00    +0.000 OA
ATOM      3  O   UNL     1     113.452 127.500 137.426  0.00  0.00    +0.000 OA
ATOM      4  O   UNL     1     114.029 126.201 137.672  0.00  0.00    +0.000 OA
ATOM      5  O   UNL     1     112.805 123.849 136.449  0.00  0.00    +0.000 OA
ATOM      6  C   UNL     1     112.297 127.650 136.598  0.00  0.00    +0.000 A 
ATOM      7  C   UNL     1     111.712 127.318 136.122  0.00  0.00    +0.000 A 
ATOM      8  C   UNL     1     112.866 127.168 136.950  0.00  0.00    +0.000 A 
ATOM      9  C   UNL     1     112.849 126.353 136.826  0.00  0.00    +0.000 A 
ATOM     10  C   UNL     1     112.263 126.020 136.349  0.00  0.00    +0.000 A 
ATOM     11  C   UNL     1     113.447 125.859 137.197  0.00  0.00    +0.000 A 
ATOM     12  C   UNL     1     112.235 125.172 136.212  0.00  0.00    +0.000 A 
ATOM     13  C   UNL     1     113.435 125.010 137.072  0.00  0.00    +0.000 A 
ATOM     14  C   UNL     1     112.825 124.664 136.576  0.00  0.00    +0.000 A 
BRANCH   7  16
ATOM     15  O   UNL     1     109.433 129.248 134.716  0.00  0.00    +0.000 OA
ATOM     16  C   UNL     1     111.142 127.801 135.770  0.00  0.00    +0.000 A 
ATOM     17  C   UNL     1     110.481 128.040 136.201  0.00  0.00    +0.000 A 
ATOM     18  C   UNL     1     111.234 128.044 134.988  0.00  0.00    +0.000 A 
ATOM     19  C   UNL     1     109.911 128.522 135.850  0.00  0.00    +0.000 A 
ATOM     20  C   UNL     1     110.665 128.527 134.636  0.00  0.00    +0.000 A 
ATOM     21  C   UNL     1     110.003 128.766 135.067  0.00  0.00    +0.000 A 
ENDBRANCH   7  16
ENDBRANCH   1   6
BRANCH   1  28
ATOM     22  O   UNL     1     113.421 128.709 135.853  0.00  0.00    +0.000 OA
ATOM     23  O   UNL     1     114.151 130.576 137.305  0.00  0.00    +0.000 OA
ATOM     24  O   UNL     1     115.016 130.197 135.952  0.00  0.00    +0.000 OA
ATOM     25  C   UNL     1     113.233 129.521 137.014  0.00  0.00    +0.000 C 
ATOM     26  C   UNL     1     113.908 129.954 136.821  0.00  0.00    +0.000 C 
ATOM     27  C   UNL     1     114.340 129.764 136.145  0.00  0.00    +0.000 C 
ATOM     28  C   UNL     1     112.990 128.899 136.530  0.00  0.00    +0.000 C 
ATOM     29  C   UNL     1     114.097 129.142 135.661  0.00  0.00    +0.000 C 
ATOM     30  C   UNL     1     114.529 128.953 134.984  0.00  0.00    +0.000 C 
BRANCH  25  31
ATOM     31  O   UNL     1     112.801 129.710 137.691  0.00  0.00    +0.000 OA
BRANCH  31  36
ATOM     32  O   UNL     1     112.213 130.818 137.005  0.00  0.00    +0.000 OA
ATOM     33  O   UNL     1     111.976 130.120 139.060  0.00  0.00    +0.000 OA
ATOM     34  O   UNL     1     110.976 131.433 139.059  0.00  0.00    +0.000 OA
ATOM     35  O   UNL     1     110.801 132.335 137.688  0.00  0.00    +0.000 OA
ATOM     36  C   UNL     1     112.301 130.366 137.690  0.00  0.00    +0.000 C 
ATOM     37  C   UNL     1     111.888 130.572 138.374  0.00  0.00    +0.000 C 
ATOM     38  C   UNL     1     111.388 131.228 138.374  0.00  0.00    +0.000 C 
ATOM     39  C   UNL     1     111.301 131.679 137.689  0.00  0.00    +0.000 C 
ATOM     40  C   UNL     1     111.713 131.474 137.004  0.00  0.00    +0.000 C 
ENDBRANCH  31  36
ENDBRANCH  25  31
ENDBRANCH   1  28
TORSDOF 5
ENDMDL
MODEL 5
REMARK VINA RESULT:      -9.9      2.001      4.049
REMARK  Name = 44258927
REMARK  5 active torsions:
REMARK  status: ('A' for Active; 'I' for Inactive)
REMARK    1  A    between atoms: O_1  and  C_15
REMARK    2  A    between atoms: O_1  and  C_20
REMARK    3  A    between atoms: O_4  and  C_18
REMARK    4  A    between atoms: O_4  and  C_26
REMARK    5  A    between atoms: C_27  and  C_31
REMARK                            x       y       z     vdW  Elec       q    Type
REMARK                         _______ _______ _______ _____ _____    ______ ____
ROOT
ATOM      1  O   UNL     1     111.549 128.193 136.866  0.00  0.00    +0.000 OA
ENDROOT
BRANCH   1   6
ATOM      2  O   UNL     1     113.106 126.760 136.333  0.00  0.00    +0.000 OA
ATOM      3  O   UNL     1     110.845 126.778 137.339  0.00  0.00    +0.000 OA
ATOM      4  O   UNL     1     110.870 125.343 137.490  0.00  0.00    +0.000 OA
ATOM      5  O   UNL     1     113.226 123.863 136.606  0.00  0.00    +0.000 OA
ATOM      6  C   UNL     1     111.951 127.480 136.767  0.00  0.00    +0.000 A 
ATOM      7  C   UNL     1     112.704 127.474 136.432  0.00  0.00    +0.000 A 
ATOM      8  C   UNL     1     111.598 126.772 137.004  0.00  0.00    +0.000 A 
ATOM      9  C   UNL     1     112.000 126.058 136.905  0.00  0.00    +0.000 A 
ATOM     10  C   UNL     1     112.755 126.052 136.570  0.00  0.00    +0.000 A 
ATOM     11  C   UNL     1     111.624 125.328 137.156  0.00  0.00    +0.000 A 
ATOM     12  C   UNL     1     113.183 125.316 136.462  0.00  0.00    +0.000 A 
ATOM     13  C   UNL     1     112.037 124.581 137.056  0.00  0.00    +0.000 A 
ATOM     14  C   UNL     1     112.822 124.575 136.706  0.00  0.00    +0.000 A 
BRANCH   7  16
ATOM     15  O   UNL     1     114.114 130.304 135.486  0.00  0.00    +0.000 OA
ATOM     16  C   UNL     1     113.056 128.181 136.195  0.00  0.00    +0.000 A 
ATOM     17  C   UNL     1     113.455 128.648 136.746  0.00  0.00    +0.000 A 
ATOM     18  C   UNL     1     113.010 128.422 135.407  0.00  0.00    +0.000 A 
ATOM     19  C   UNL     1     113.808 129.355 136.510  0.00  0.00    +0.000 A 
ATOM     20  C   UNL     1     113.363 129.130 135.170  0.00  0.00    +0.000 A 
ATOM     21  C   UNL     1     113.761 129.596 135.722  0.00  0.00    +0.000 A 
ENDBRANCH   7  16
ENDBRANCH   1   6
BRANCH   1  28
ATOM     22  O   UNL     1     110.631 127.975 135.792  0.00  0.00    +0.000 OA
ATOM     23  O   UNL     1     108.894 129.239 137.020  0.00  0.00    +0.000 OA
ATOM     24  O   UNL     1     108.555 128.599 135.537  0.00  0.00    +0.000 OA
ATOM     25  C   UNL     1     110.221 128.716 136.943  0.00  0.00    +0.000 C 
ATOM     26  C   UNL     1     109.473 128.817 136.611  0.00  0.00    +0.000 C 
ATOM     27  C   UNL     1     109.304 128.498 135.870  0.00  0.00    +0.000 C 
ATOM     28  C   UNL     1     110.800 128.295 136.533  0.00  0.00    +0.000 C 
ATOM     29  C   UNL     1     109.883 128.077 135.461  0.00  0.00    +0.000 C 
ATOM     30  C   UNL     1     109.714 127.756 134.719  0.00  0.00    +0.000 C 
BRANCH  25  31
ATOM     31  O   UNL     1     110.390 129.036 137.684  0.00  0.00    +0.000 OA
BRANCH  31  36
ATOM     32  O   UNL     1     110.528 130.330 137.093  0.00  0.00    +0.000 OA
ATOM     33  O   UNL     1     110.782 129.667 139.158  0.00  0.00    +0.000 OA
ATOM     34  O   UNL     1     111.115 131.276 139.305  0.00  0.00    +0.000 OA
ATOM     35  O   UNL     1     111.057 132.255 137.977  0.00  0.00    +0.000 OA
ATOM     36  C   UNL     1     110.557 129.841 137.758  0.00  0.00    +0.000 C 
ATOM     37  C   UNL     1     110.753 130.157 138.494  0.00  0.00    +0.000 C 
ATOM     38  C   UNL     1     110.920 130.961 138.567  0.00  0.00    +0.000 C 
ATOM     39  C   UNL     1     110.891 131.450 137.904  0.00  0.00    +0.000 C 
ATOM     40  C   UNL     1     110.695 131.135 137.167  0.00  0.00    +0.000 C 
ENDBRANCH  31  36
ENDBRANCH  25  31
ENDBRANCH   1  28
TORSDOF 5
ENDMDL
MODEL 6
REMARK VINA RESULT:      -9.9      1.213      4.345
REMARK  Name = 44258927
REMARK  5 active torsions:
REMARK  status: ('A' for Active; 'I' for Inactive)
REMARK    1  A    between atoms: O_1  and  C_15
REMARK    2  A    between atoms: O_1  and  C_20
REMARK    3  A    between atoms: O_4  and  C_18
REMARK    4  A    between atoms: O_4  and  C_26
REMARK    5  A    between atoms: C_27  and  C_31
REMARK                            x       y       z     vdW  Elec       q    Type
REMARK                         _______ _______ _______ _____ _____    ______ ____
ROOT
ATOM      1  O   UNL     1     112.430 126.965 137.769  0.00  0.00    +0.000 OA
ENDROOT
BRANCH   1   6
ATOM      2  O   UNL     1     111.763 125.652 136.159  0.00  0.00    +0.000 OA
ATOM      3  O   UNL     1     110.942 127.600 137.444  0.00  0.00    +0.000 OA
ATOM      4  O   UNL     1     109.707 127.608 136.698  0.00  0.00    +0.000 OA
ATOM      5  O   UNL     1     109.296 125.606 134.613  0.00  0.00    +0.000 OA
ATOM      6  C   UNL     1     111.960 126.633 137.178  0.00  0.00    +0.000 A 
ATOM      7  C   UNL     1     112.233 125.984 136.750  0.00  0.00    +0.000 A 
ATOM      8  C   UNL     1     111.216 126.951 137.016  0.00  0.00    +0.000 A 
ATOM      9  C   UNL     1     110.746 126.619 136.425  0.00  0.00    +0.000 A 
ATOM     10  C   UNL     1     111.020 125.969 135.996  0.00  0.00    +0.000 A 
ATOM     11  C   UNL     1     109.973 126.958 136.265  0.00  0.00    +0.000 A 
ATOM     12  C   UNL     1     110.539 125.614 135.378  0.00  0.00    +0.000 A 
ATOM     13  C   UNL     1     109.478 126.617 135.651  0.00  0.00    +0.000 A 
ATOM     14  C   UNL     1     109.764 125.941 135.205  0.00  0.00    +0.000 A 
BRANCH   7  16
ATOM     15  O   UNL     1     115.210 124.713 137.396  0.00  0.00    +0.000 OA
ATOM     16  C   UNL     1     112.977 125.666 136.912  0.00  0.00    +0.000 A 
ATOM     17  C   UNL     1     113.629 125.889 136.458  0.00  0.00    +0.000 A 
ATOM     18  C   UNL     1     113.070 125.125 137.528  0.00  0.00    +0.000 A 
ATOM     19  C   UNL     1     114.373 125.572 136.619  0.00  0.00    +0.000 A 
ATOM     20  C   UNL     1     113.814 124.807 137.690  0.00  0.00    +0.000 A 
ATOM     21  C   UNL     1     114.466 125.030 137.235  0.00  0.00    +0.000 A 
ENDBRANCH   7  16
ENDBRANCH   1   6
BRANCH   1  28
ATOM     22  O   UNL     1     112.844 128.103 137.011  0.00  0.00    +0.000 OA
ATOM     23  O   UNL     1     112.836 129.478 139.069  0.00  0.00    +0.000 OA
ATOM     24  O   UNL     1     113.253 130.158 137.625  0.00  0.00    +0.000 OA
ATOM     25  C   UNL     1     112.633 128.222 138.419  0.00  0.00    +0.000 C 
ATOM     26  C   UNL     1     112.839 129.019 138.383  0.00  0.00    +0.000 C 
ATOM     27  C   UNL     1     113.047 129.359 137.661  0.00  0.00    +0.000 C 
ATOM     28  C   UNL     1     112.636 127.764 137.733  0.00  0.00    +0.000 C 
ATOM     29  C   UNL     1     113.049 128.901 136.975  0.00  0.00    +0.000 C 
ATOM     30  C   UNL     1     113.258 129.241 136.252  0.00  0.00    +0.000 C 
BRANCH  25  31
ATOM     31  O   UNL     1     112.425 127.881 139.142  0.00  0.00    +0.000 OA
BRANCH  31  36
ATOM     32  O   UNL     1     113.808 127.753 139.480  0.00  0.00    +0.000 OA
ATOM     33  O   UNL     1     112.007 127.296 140.626  0.00  0.00    +0.000 OA
ATOM     34  O   UNL     1     113.180 126.874 141.708  0.00  0.00    +0.000 OA
ATOM     35  O   UNL     1     114.771 127.039 141.304  0.00  0.00    +0.000 OA
ATOM     36  C   UNL     1     113.012 127.671 139.682  0.00  0.00    +0.000 C 
ATOM     37  C   UNL     1     112.803 127.378 140.425  0.00  0.00    +0.000 C 
ATOM     38  C   UNL     1     113.390 127.167 140.965  0.00  0.00    +0.000 C 
ATOM     39  C   UNL     1     114.185 127.249 140.763  0.00  0.00    +0.000 C 
ATOM     40  C   UNL     1     114.395 127.542 140.021  0.00  0.00    +0.000 C 
ENDBRANCH  31  36
ENDBRANCH  25  31
ENDBRANCH   1  28
TORSDOF 5
ENDMDL
MODEL 7
REMARK VINA RESULT:      -9.8      1.729      3.752
REMARK  Name = 44258927
REMARK  5 active torsions:
REMARK  status: ('A' for Active; 'I' for Inactive)
REMARK    1  A    between atoms: O_1  and  C_15
REMARK    2  A    between atoms: O_1  and  C_20
REMARK    3  A    between atoms: O_4  and  C_18
REMARK    4  A    between atoms: O_4  and  C_26
REMARK    5  A    between atoms: C_27  and  C_31
REMARK                            x       y       z     vdW  Elec       q    Type
REMARK                         _______ _______ _______ _____ _____    ______ ____
ROOT
ATOM      1  O   UNL     1     111.206 127.776 136.963  0.00  0.00    +0.000 OA
ENDROOT
BRANCH   1   6
ATOM      2  O   UNL     1     112.851 126.494 136.320  0.00  0.00    +0.000 OA
ATOM      3  O   UNL     1     110.708 126.314 137.544  0.00  0.00    +0.000 OA
ATOM      4  O   UNL     1     110.901 124.897 137.733  0.00  0.00    +0.000 OA
ATOM      5  O   UNL     1     113.308 123.638 136.663  0.00  0.00    +0.000 OA
ATOM      6  C   UNL     1     111.672 127.105 136.846  0.00  0.00    +0.000 A 
ATOM      7  C   UNL     1     112.385 127.165 136.438  0.00  0.00    +0.000 A 
ATOM      8  C   UNL     1     111.422 126.374 137.137  0.00  0.00    +0.000 A 
ATOM      9  C   UNL     1     111.887 125.703 137.019  0.00  0.00    +0.000 A 
ATOM     10  C   UNL     1     112.602 125.763 136.611  0.00  0.00    +0.000 A 
ATOM     11  C   UNL     1     111.617 124.947 137.326  0.00  0.00    +0.000 A 
ATOM     12  C   UNL     1     113.095 125.071 136.482  0.00  0.00    +0.000 A 
ATOM     13  C   UNL     1     112.097 124.245 137.207  0.00  0.00    +0.000 A 
ATOM     14  C   UNL     1     112.841 124.307 136.782  0.00  0.00    +0.000 A 
BRANCH   7  16
ATOM     15  O   UNL     1     113.383 130.087 135.273  0.00  0.00    +0.000 OA
ATOM     16  C   UNL     1     112.635 127.895 136.147  0.00  0.00    +0.000 A 
ATOM     17  C   UNL     1     112.328 128.184 135.438  0.00  0.00    +0.000 A 
ATOM     18  C   UNL     1     113.192 128.338 136.565  0.00  0.00    +0.000 A 
ATOM     19  C   UNL     1     112.577 128.914 135.146  0.00  0.00    +0.000 A 
ATOM     20  C   UNL     1     113.442 129.068 136.274  0.00  0.00    +0.000 A 
ATOM     21  C   UNL     1     113.134 129.356 135.565  0.00  0.00    +0.000 A 
ENDBRANCH   7  16
ENDBRANCH   1   6
BRANCH   1  28
ATOM     22  O   UNL     1     111.549 127.944 138.341  0.00  0.00    +0.000 OA
ATOM     23  O   UNL     1     109.279 128.818 138.799  0.00  0.00    +0.000 OA
ATOM     24  O   UNL     1     110.378 128.695 140.023  0.00  0.00    +0.000 OA
ATOM     25  C   UNL     1     110.242 128.297 137.882  0.00  0.00    +0.000 C 
ATOM     26  C   UNL     1     110.036 128.527 138.646  0.00  0.00    +0.000 C 
ATOM     27  C   UNL     1     110.585 128.465 139.258  0.00  0.00    +0.000 C 
ATOM     28  C   UNL     1     110.999 128.006 137.729  0.00  0.00    +0.000 C 
ATOM     29  C   UNL     1     111.341 128.174 139.105  0.00  0.00    +0.000 C 
ATOM     30  C   UNL     1     111.892 128.112 139.718  0.00  0.00    +0.000 C 
BRANCH  25  31
ATOM     31  O   UNL     1     109.693 128.359 137.269  0.00  0.00    +0.000 OA
BRANCH  31  36
ATOM     32  O   UNL     1     109.952 129.762 137.177  0.00  0.00    +0.000 OA
ATOM     33  O   UNL     1     108.516 128.501 136.122  0.00  0.00    +0.000 OA
ATOM     34  O   UNL     1     108.185 129.974 135.456  0.00  0.00    +0.000 OA
ATOM     35  O   UNL     1     109.033 131.306 135.938  0.00  0.00    +0.000 OA
ATOM     36  C   UNL     1     109.528 129.096 136.936  0.00  0.00    +0.000 C 
ATOM     37  C   UNL     1     108.940 129.167 136.363  0.00  0.00    +0.000 C 
ATOM     38  C   UNL     1     108.774 129.904 136.030  0.00  0.00    +0.000 C 
ATOM     39  C   UNL     1     109.198 130.569 136.271  0.00  0.00    +0.000 C 
ATOM     40  C   UNL     1     109.787 130.499 136.845  0.00  0.00    +0.000 C 
ENDBRANCH  31  36
ENDBRANCH  25  31
ENDBRANCH   1  28
TORSDOF 5
ENDMDL
MODEL 8
REMARK VINA RESULT:      -9.8      1.529      3.721
REMARK  Name = 44258927
REMARK  5 active torsions:
REMARK  status: ('A' for Active; 'I' for Inactive)
REMARK    1  A    between atoms: O_1  and  C_15
REMARK    2  A    between atoms: O_1  and  C_20
REMARK    3  A    between atoms: O_4  and  C_18
REMARK    4  A    between atoms: O_4  and  C_26
REMARK    5  A    between atoms: C_27  and  C_31
REMARK                            x       y       z     vdW  Elec       q    Type
REMARK                         _______ _______ _______ _____ _____    ______ ____
ROOT
ATOM      1  O   UNL     1     112.085 127.462 137.871  0.00  0.00    +0.000 OA
ENDROOT
BRANCH   1   6
ATOM      2  O   UNL     1     112.470 125.322 138.065  0.00  0.00    +0.000 OA
ATOM      3  O   UNL     1     111.421 126.897 136.470  0.00  0.00    +0.000 OA
ATOM      4  O   UNL     1     111.092 125.816 135.574  0.00  0.00    +0.000 OA
ATOM      5  O   UNL     1     111.837 123.089 136.305  0.00  0.00    +0.000 OA
ATOM      6  C   UNL     1     112.103 126.654 137.702  0.00  0.00    +0.000 A 
ATOM      7  C   UNL     1     112.452 126.130 138.233  0.00  0.00    +0.000 A 
ATOM      8  C   UNL     1     111.771 126.373 137.001  0.00  0.00    +0.000 A 
ATOM      9  C   UNL     1     111.788 125.565 136.832  0.00  0.00    +0.000 A 
ATOM     10  C   UNL     1     112.138 125.040 137.364  0.00  0.00    +0.000 A 
ATOM     11  C   UNL     1     111.439 125.283 136.100  0.00  0.00    +0.000 A 
ATOM     12  C   UNL     1     112.162 124.197 137.200  0.00  0.00    +0.000 A 
ATOM     13  C   UNL     1     111.454 124.443 135.918  0.00  0.00    +0.000 A 
ATOM     14  C   UNL     1     111.818 123.897 136.472  0.00  0.00    +0.000 A 
BRANCH   7  16
ATOM     15  O   UNL     1     113.779 127.256 141.037  0.00  0.00    +0.000 OA
ATOM     16  C   UNL     1     112.785 126.411 138.934  0.00  0.00    +0.000 A 
ATOM     17  C   UNL     1     112.305 126.552 139.590  0.00  0.00    +0.000 A 
ATOM     18  C   UNL     1     113.596 126.553 138.979  0.00  0.00    +0.000 A 
ATOM     19  C   UNL     1     112.636 126.833 140.292  0.00  0.00    +0.000 A 
ATOM     20  C   UNL     1     113.928 126.834 139.680  0.00  0.00    +0.000 A 
ATOM     21  C   UNL     1     113.448 126.974 140.336  0.00  0.00    +0.000 A 
ENDBRANCH   7  16
ENDBRANCH   1   6
BRANCH   1  28
ATOM     22  O   UNL     1     113.092 127.816 136.920  0.00  0.00    +0.000 OA
ATOM     23  O   UNL     1     111.979 129.996 136.555  0.00  0.00    +0.000 OA
ATOM     24  O   UNL     1     113.357 129.624 135.726  0.00  0.00    +0.000 OA
ATOM     25  C   UNL     1     112.032 128.730 137.213  0.00  0.00    +0.000 C 
ATOM     26  C   UNL     1     112.350 129.270 136.677  0.00  0.00    +0.000 C 
ATOM     27  C   UNL     1     113.038 129.084 136.263  0.00  0.00    +0.000 C 
ATOM     28  C   UNL     1     112.403 128.003 137.334  0.00  0.00    +0.000 C 
ATOM     29  C   UNL     1     113.409 128.357 136.385  0.00  0.00    +0.000 C 
ATOM     30  C   UNL     1     114.098 128.170 135.970  0.00  0.00    +0.000 C 
BRANCH  25  31
ATOM     31  O   UNL     1     111.344 128.915 137.628  0.00  0.00    +0.000 OA
BRANCH  31  36
ATOM     32  O   UNL     1     112.102 129.741 138.514  0.00  0.00    +0.000 OA
ATOM     33  O   UNL     1     109.965 129.296 138.451  0.00  0.00    +0.000 OA
ATOM     34  O   UNL     1     110.034 130.313 139.749  0.00  0.00    +0.000 OA
ATOM     35  O   UNL     1     111.481 130.948 140.224  0.00  0.00    +0.000 OA
ATOM     36  C   UNL     1     111.378 129.423 138.277  0.00  0.00    +0.000 C 
ATOM     37  C   UNL     1     110.689 129.614 138.689  0.00  0.00    +0.000 C 
ATOM     38  C   UNL     1     110.724 130.122 139.338  0.00  0.00    +0.000 C 
ATOM     39  C   UNL     1     111.447 130.440 139.575  0.00  0.00    +0.000 C 
ATOM     40  C   UNL     1     112.136 130.250 139.163  0.00  0.00    +0.000 C 
ENDBRANCH  31  36
ENDBRANCH  25  31
ENDBRANCH   1  28
TORSDOF 5
ENDMDL
MODEL 9
REMARK VINA RESULT:      -9.7      1.937      3.540
REMARK  Name = 44258927
REMARK  5 active torsions:
REMARK  status: ('A' for Active; 'I' for Inactive)
REMARK    1  A    between atoms: O_1  and  C_15
REMARK    2  A    between atoms: O_1  and  C_20
REMARK    3  A    between atoms: O_4  and  C_18
REMARK    4  A    between atoms: O_4  and  C_26
REMARK    5  A    between atoms: C_27  and  C_31
REMARK                            x       y       z     vdW  Elec       q    Type
REMARK                         _______ _______ _______ _____ _____    ______ ____
ROOT
ATOM      1  O   UNL     1     111.665 127.885 137.487  0.00  0.00    +0.000 OA
ENDROOT
BRANCH   1   6
ATOM      2  O   UNL     1     113.159 127.861 135.897  0.00  0.00    +0.000 OA
ATOM      3  O   UNL     1     112.300 129.401 137.634  0.00  0.00    +0.000 OA
ATOM      4  O   UNL     1     113.220 130.431 137.217  0.00  0.00    +0.000 OA
ATOM      5  O   UNL     1     115.044 129.893 135.001  0.00  0.00    +0.000 OA
ATOM      6  C   UNL     1     112.269 128.129 136.981  0.00  0.00    +0.000 A 
ATOM      7  C   UNL     1     112.555 127.617 136.403  0.00  0.00    +0.000 A 
ATOM      8  C   UNL     1     112.586 128.888 137.055  0.00  0.00    +0.000 A 
ATOM      9  C   UNL     1     113.190 129.133 136.549  0.00  0.00    +0.000 A 
ATOM     10  C   UNL     1     113.477 128.619 135.970  0.00  0.00    +0.000 A 
ATOM     11  C   UNL     1     113.513 129.924 136.635  0.00  0.00    +0.000 A 
ATOM     12  C   UNL     1     114.106 128.862 135.437  0.00  0.00    +0.000 A 
ATOM     13  C   UNL     1     114.142 130.185 136.111  0.00  0.00    +0.000 A 
ATOM     14  C   UNL     1     114.440 129.651 135.509  0.00  0.00    +0.000 A 
BRANCH   7  16
ATOM     15  O   UNL     1     111.289 124.583 136.110  0.00  0.00    +0.000 OA
ATOM     16  C   UNL     1     112.238 126.858 136.329  0.00  0.00    +0.000 A 
ATOM     17  C   UNL     1     112.514 126.248 136.811  0.00  0.00    +0.000 A 
ATOM     18  C   UNL     1     111.647 126.710 135.774  0.00  0.00    +0.000 A 
ATOM     19  C   UNL     1     112.198 125.490 136.739  0.00  0.00    +0.000 A 
ATOM     20  C   UNL     1     111.330 125.952 135.701  0.00  0.00    +0.000 A 
ATOM     21  C   UNL     1     111.605 125.342 136.183  0.00  0.00    +0.000 A 
ENDBRANCH   7  16
ENDBRANCH   1   6
BRANCH   1  28
ATOM     22  O   UNL     1     110.637 128.637 136.839  0.00  0.00    +0.000 OA
ATOM     23  O   UNL     1     109.491 128.943 139.011  0.00  0.00    +0.000 OA
ATOM     24  O   UNL     1     108.846 129.593 137.639  0.00  0.00    +0.000 OA
ATOM     25  C   UNL     1     110.578 128.414 138.250  0.00  0.00    +0.000 C 
ATOM     26  C   UNL     1     109.873 128.841 138.287  0.00  0.00    +0.000 C 
ATOM     27  C   UNL     1     109.551 129.166 137.602  0.00  0.00    +0.000 C 
ATOM     28  C   UNL     1     110.960 128.312 137.525  0.00  0.00    +0.000 C 
ATOM     29  C   UNL     1     109.933 129.064 136.878  0.00  0.00    +0.000 C 
ATOM     30  C   UNL     1     109.610 129.389 136.191  0.00  0.00    +0.000 C 
BRANCH  25  31
ATOM     31  O   UNL     1     110.901 128.088 138.935  0.00  0.00    +0.000 OA
BRANCH  31  36
ATOM     32  O   UNL     1     109.952 127.021 138.875  0.00  0.00    +0.000 OA
ATOM     33  O   UNL     1     111.539 127.443 140.313  0.00  0.00    +0.000 OA
ATOM     34  O   UNL     1     110.910 126.053 140.942  0.00  0.00    +0.000 OA
ATOM     35  O   UNL     1     109.642 125.309 140.192  0.00  0.00    +0.000 OA
ATOM     36  C   UNL     1     110.586 127.394 139.250  0.00  0.00    +0.000 C 
ATOM     37  C   UNL     1     110.905 127.070 139.938  0.00  0.00    +0.000 C 
ATOM     38  C   UNL     1     110.590 126.376 140.253  0.00  0.00    +0.000 C 
ATOM     39  C   UNL     1     109.957 126.004 139.878  0.00  0.00    +0.000 C 
ATOM     40  C   UNL     1     109.637 126.326 139.189  0.00  0.00    +0.000 C 
ENDBRANCH  31  36
ENDBRANCH  25  31
ENDBRANCH   1  28
TORSDOF 5
ENDMDL
MODEL 10
REMARK VINA RESULT:      -9.7      1.034      2.807
REMARK  Name = 44258927
REMARK  5 active torsions:
REMARK  status: ('A' for Active; 'I' for Inactive)
REMARK    1  A    between atoms: O_1  and  C_15
REMARK    2  A    between atoms: O_1  and  C_20
REMARK    3  A    between atoms: O_4  and  C_18
REMARK    4  A    between atoms: O_4  and  C_26
REMARK    5  A    between atoms: C_27  and  C_31
REMARK                            x       y       z     vdW  Elec       q    Type
REMARK                         _______ _______ _______ _____ _____    ______ ____
ROOT
ATOM      1  O   UNL     1     112.187 127.233 137.588  0.00  0.00    +0.000 OA
ENDROOT
BRANCH   1   6
ATOM      2  O   UNL     1     113.323 128.946 138.319  0.00  0.00    +0.000 OA
ATOM      3  O   UNL     1     112.357 126.838 139.182  0.00  0.00    +0.000 OA
ATOM      4  O   UNL     1     112.842 127.125 140.510  0.00  0.00    +0.000 OA
ATOM      5  O   UNL     1     114.333 129.592 140.974  0.00  0.00    +0.000 OA
ATOM      6  C   UNL     1     112.594 127.738 138.098  0.00  0.00    +0.000 A 
ATOM      7  C   UNL     1     112.916 128.441 137.810  0.00  0.00    +0.000 A 
ATOM      8  C   UNL     1     112.679 127.540 138.894  0.00  0.00    +0.000 A 
ATOM      9  C   UNL     1     113.086 128.046 139.403  0.00  0.00    +0.000 A 
ATOM     10  C   UNL     1     113.408 128.750 139.116  0.00  0.00    +0.000 A 
ATOM     11  C   UNL     1     113.168 127.830 140.231  0.00  0.00    +0.000 A 
ATOM     12  C   UNL     1     113.834 129.284 139.636  0.00  0.00    +0.000 A 
ATOM     13  C   UNL     1     113.590 128.352 140.766  0.00  0.00    +0.000 A 
ATOM     14  C   UNL     1     113.926 129.084 140.467  0.00  0.00    +0.000 A 
BRANCH   7  16
ATOM     15  O   UNL     1     112.576 129.233 134.625  0.00  0.00    +0.000 OA
ATOM     16  C   UNL     1     112.832 128.639 137.014  0.00  0.00    +0.000 A 
ATOM     17  C   UNL     1     112.138 128.998 136.750  0.00  0.00    +0.000 A 
ATOM     18  C   UNL     1     113.440 128.477 136.481  0.00  0.00    +0.000 A 
ATOM     19  C   UNL     1     112.052 129.197 135.954  0.00  0.00    +0.000 A 
ATOM     20  C   UNL     1     113.356 128.675 135.685  0.00  0.00    +0.000 A 
ATOM     21  C   UNL     1     112.662 129.035 135.421  0.00  0.00    +0.000 A 
ENDBRANCH   7  16
ENDBRANCH   1   6
BRANCH   1  28
ATOM     22  O   UNL     1     113.236 126.267 137.491  0.00  0.00    +0.000 OA
ATOM     23  O   UNL     1     111.555 124.464 137.270  0.00  0.00    +0.000 OA
ATOM     24  O   UNL     1     113.164 124.099 137.246  0.00  0.00    +0.000 OA
ATOM     25  C   UNL     1     111.871 125.848 137.429  0.00  0.00    +0.000 C 
ATOM     26  C   UNL     1     112.115 125.065 137.343  0.00  0.00    +0.000 C 
ATOM     27  C   UNL     1     112.919 124.882 137.332  0.00  0.00    +0.000 C 
ATOM     28  C   UNL     1     112.431 126.448 137.503  0.00  0.00    +0.000 C 
ATOM     29  C   UNL     1     113.479 125.483 137.406  0.00  0.00    +0.000 C 
ATOM     30  C   UNL     1     114.284 125.301 137.394  0.00  0.00    +0.000 C 
BRANCH  25  31
ATOM     31  O   UNL     1     111.066 126.031 137.441  0.00  0.00    +0.000 OA
BRANCH  31  36
ATOM     32  O   UNL     1     110.999 125.843 136.025  0.00  0.00    +0.000 OA
ATOM     33  O   UNL     1     109.512 126.585 137.442  0.00  0.00    +0.000 OA
ATOM     34  O   UNL     1     108.667 126.675 136.028  0.00  0.00    +0.000 OA
ATOM     35  O   UNL     1     109.376 126.210 134.612  0.00  0.00    +0.000 OA
ATOM     36  C   UNL     1     110.644 126.076 136.733  0.00  0.00    +0.000 C 
ATOM     37  C   UNL     1     109.867 126.353 136.733  0.00  0.00    +0.000 C 
ATOM     38  C   UNL     1     109.444 126.398 136.026  0.00  0.00    +0.000 C 
ATOM     39  C   UNL     1     109.799 126.166 135.319  0.00  0.00    +0.000 C 
ATOM     40  C   UNL     1     110.576 125.888 135.318  0.00  0.00    +0.000 C 
ENDBRANCH  31  36
ENDBRANCH  25  31
ENDBRANCH   1  28
TORSDOF 5
ENDMDL
