MODEL 1
REMARK VINA RESULT:     -10.8      0.000      0.000
REMARK  Name = 131752324
REMARK  10 active torsions:
REMARK  status: ('A' for Active; 'I' for Inactive)
REMARK    1  A    between atoms: O_1  and  C_24
REMARK    2  A    between atoms: O_1  and  C_26
REMARK    3  A    between atoms: O_5  and  C_29
REMARK    4  A    between atoms: O_5  and  C_41
REMARK    5  A    between atoms: O_12  and  C_40
REMARK    6  A    between atoms: O_12  and  C_48
REMARK    7  A    between atoms: C_32  and  C_34
REMARK    8  A    between atoms: C_33  and  C_36
REMARK    9  A    between atoms: C_39  and  C_42
REMARK   10  A    between atoms: C_49  and  C_51
REMARK                            x       y       z     vdW  Elec       q    Type
REMARK                         _______ _______ _______ _____ _____    ______ ____
ROOT
ATOM      1  O   UNL     1     103.285 130.190 141.953  0.00  0.00    +0.000 OA
ATOM      2  O   UNL     1     103.689 127.905 140.232  0.00  0.00    +0.000 OA
ATOM      3  O   UNL     1     102.767 128.955 139.872  0.00  0.00    +0.000 OA
ATOM      4  C   UNL     1     104.616 128.413 142.206  0.00  0.00    +0.000 A 
ATOM      5  C   UNL     1     104.225 129.162 142.364  0.00  0.00    +0.000 A 
ATOM      6  C   UNL     1     104.437 127.985 141.484  0.00  0.00    +0.000 A 
ATOM      7  C   UNL     1     103.658 129.471 141.796  0.00  0.00    +0.000 A 
ATOM      8  C   UNL     1     103.867 128.310 140.928  0.00  0.00    +0.000 A 
ATOM      9  C   UNL     1     103.485 129.059 141.102  0.00  0.00    +0.000 A 
ATOM     10  C   UNL     1     102.739 130.497 141.416  0.00  0.00    +0.000 A 
ATOM     11  C   UNL     1     102.939 129.367 140.565  0.00  0.00    +0.000 A 
ATOM     12  C   UNL     1     102.566 130.085 140.722  0.00  0.00    +0.000 A 
ENDROOT
BRANCH  10  14
ATOM     13  C   UNL     1     101.619 132.654 141.886  0.00  0.00    +0.000 A 
ATOM     14  C   UNL     1     102.366 131.216 141.573  0.00  0.00    +0.000 A 
ATOM     15  C   UNL     1     102.314 132.638 141.442  0.00  0.00    +0.000 A 
ATOM     16  C   UNL     1     101.297 131.951 142.173  0.00  0.00    +0.000 A 
ATOM     17  C   UNL     1     102.688 131.919 141.286  0.00  0.00    +0.000 A 
ATOM     18  C   UNL     1     101.671 131.232 142.017  0.00  0.00    +0.000 A 
BRANCH  13  19
ATOM     19  O   UNL     1     101.246 133.373 142.043  0.00  0.00    +0.000 OA
BRANCH  19  28
ATOM     20  O   UNL     1     101.813 133.593 143.335  0.00  0.00    +0.000 OA
ATOM     21  O   UNL     1     101.983 136.014 142.846  0.00  0.00    +0.000 OA
ATOM     22  O   UNL     1     102.493 135.428 144.301  0.00  0.00    +0.000 OA
ATOM     23  O   UNL     1     101.359 134.985 141.717  0.00  0.00    +0.000 OA
ATOM     24  C   UNL     1     101.926 135.207 143.009  0.00  0.00    +0.000 C 
ATOM     25  C   UNL     1     102.181 134.914 143.737  0.00  0.00    +0.000 C 
ATOM     26  C   UNL     1     101.614 134.693 142.445  0.00  0.00    +0.000 C 
ATOM     27  C   UNL     1     102.125 134.107 143.900  0.00  0.00    +0.000 C 
ATOM     28  C   UNL     1     101.558 133.885 142.607  0.00  0.00    +0.000 C 
BRANCH  27  31
ATOM     29  O   UNL     1     103.172 133.607 144.734  0.00  0.00    +0.000 OA
ATOM     30  O   UNL     1     101.845 133.730 145.250  0.00  0.00    +0.000 OA
ATOM     31  C   UNL     1     102.380 133.815 144.628  0.00  0.00    +0.000 C 
ENDBRANCH  27  31
ENDBRANCH  19  28
ENDBRANCH  13  19
ENDBRANCH  10  14
BRANCH   4  32
ATOM     32  O   UNL     1     105.162 128.109 142.744  0.00  0.00    +0.000 OA
BRANCH  32  39
ATOM     33  O   UNL     1     106.304 128.780 142.209  0.00  0.00    +0.000 OA
ATOM     34  O   UNL     1     107.711 126.816 142.745  0.00  0.00    +0.000 OA
ATOM     35  O   UNL     1     108.383 128.142 142.030  0.00  0.00    +0.000 OA
ATOM     36  C   UNL     1     106.436 127.462 142.745  0.00  0.00    +0.000 C 
ATOM     37  C   UNL     1     107.242 127.471 142.566  0.00  0.00    +0.000 C 
ATOM     38  C   UNL     1     107.578 128.133 142.209  0.00  0.00    +0.000 C 
ATOM     39  C   UNL     1     105.967 128.116 142.566  0.00  0.00    +0.000 C 
ATOM     40  C   UNL     1     107.109 128.788 142.030  0.00  0.00    +0.000 C 
BRANCH  40  43
ATOM     41  O   UNL     1     107.499 129.493 140.850  0.00  0.00    +0.000 OA
ATOM     42  O   UNL     1     107.726 130.073 142.137  0.00  0.00    +0.000 OA
ATOM     43  C   UNL     1     107.445 129.451 141.673  0.00  0.00    +0.000 C 
ENDBRANCH  40  43
BRANCH  36  44
ATOM     44  O   UNL     1     106.100 126.799 143.102  0.00  0.00    +0.000 OA
BRANCH  44  49
ATOM     45  O   UNL     1     106.427 127.315 144.394  0.00  0.00    +0.000 OA
ATOM     46  O   UNL     1     105.672 125.359 143.785  0.00  0.00    +0.000 OA
ATOM     47  O   UNL     1     105.786 125.156 145.419  0.00  0.00    +0.000 OA
ATOM     48  O   UNL     1     106.328 126.392 146.369  0.00  0.00    +0.000 OA
ATOM     49  C   UNL     1     106.157 126.697 143.919  0.00  0.00    +0.000 C 
ATOM     50  C   UNL     1     105.943 125.977 144.261  0.00  0.00    +0.000 C 
ATOM     51  C   UNL     1     106.000 125.875 145.078  0.00  0.00    +0.000 C 
ATOM     52  C   UNL     1     106.271 126.494 145.552  0.00  0.00    +0.000 C 
ATOM     53  C   UNL     1     106.484 127.213 145.211  0.00  0.00    +0.000 C 
BRANCH  53  56
ATOM     54  O   UNL     1     106.227 128.404 145.956  0.00  0.00    +0.000 OA
ATOM     55  O   UNL     1     107.553 127.877 145.888  0.00  0.00    +0.000 OA
ATOM     56  C   UNL     1     106.755 127.831 145.685  0.00  0.00    +0.000 C 
ENDBRANCH  53  56
ENDBRANCH  44  49
ENDBRANCH  36  44
ENDBRANCH  32  39
ENDBRANCH   4  32
TORSDOF 10
ENDMDL
MODEL 2
REMARK VINA RESULT:     -10.6      6.408      9.479
REMARK  Name = 131752324
REMARK  10 active torsions:
REMARK  status: ('A' for Active; 'I' for Inactive)
REMARK    1  A    between atoms: O_1  and  C_24
REMARK    2  A    between atoms: O_1  and  C_26
REMARK    3  A    between atoms: O_5  and  C_29
REMARK    4  A    between atoms: O_5  and  C_41
REMARK    5  A    between atoms: O_12  and  C_40
REMARK    6  A    between atoms: O_12  and  C_48
REMARK    7  A    between atoms: C_32  and  C_34
REMARK    8  A    between atoms: C_33  and  C_36
REMARK    9  A    between atoms: C_39  and  C_42
REMARK   10  A    between atoms: C_49  and  C_51
REMARK                            x       y       z     vdW  Elec       q    Type
REMARK                         _______ _______ _______ _____ _____    ______ ____
ROOT
ATOM      1  O   UNL     1     109.020 126.143 139.805  0.00  0.00    +0.000 OA
ATOM      2  O   UNL     1     111.798 126.778 140.283  0.00  0.00    +0.000 OA
ATOM      3  O   UNL     1     110.986 126.172 141.310  0.00  0.00    +0.000 OA
ATOM      4  C   UNL     1     110.539 127.072 138.455  0.00  0.00    +0.000 A 
ATOM      5  C   UNL     1     109.792 126.753 138.737  0.00  0.00    +0.000 A 
ATOM      6  C   UNL     1     111.221 127.082 138.976  0.00  0.00    +0.000 A 
ATOM      7  C   UNL     1     109.739 126.448 139.540  0.00  0.00    +0.000 A 
ATOM      8  C   UNL     1     111.148 126.772 139.776  0.00  0.00    +0.000 A 
ATOM      9  C   UNL     1     110.394 126.457 140.041  0.00  0.00    +0.000 A 
ATOM     10  C   UNL     1     108.956 125.848 140.573  0.00  0.00    +0.000 A 
ATOM     11  C   UNL     1     110.330 126.162 140.809  0.00  0.00    +0.000 A 
ATOM     12  C   UNL     1     109.611 125.857 141.075  0.00  0.00    +0.000 A 
ENDROOT
BRANCH  10  14
ATOM     13  C   UNL     1     106.800 124.933 141.373  0.00  0.00    +0.000 A 
ATOM     14  C   UNL     1     108.237 125.543 140.840  0.00  0.00    +0.000 A 
ATOM     15  C   UNL     1     107.368 124.429 141.052  0.00  0.00    +0.000 A 
ATOM     16  C   UNL     1     106.950 125.743 141.427  0.00  0.00    +0.000 A 
ATOM     17  C   UNL     1     108.087 124.734 140.786  0.00  0.00    +0.000 A 
ATOM     18  C   UNL     1     107.669 126.047 141.160  0.00  0.00    +0.000 A 
BRANCH  13  19
ATOM     19  O   UNL     1     106.081 124.628 141.639  0.00  0.00    +0.000 OA
BRANCH  19  28
ATOM     20  O   UNL     1     105.357 124.841 140.426  0.00  0.00    +0.000 OA
ATOM     21  O   UNL     1     104.093 122.748 140.816  0.00  0.00    +0.000 OA
ATOM     22  O   UNL     1     103.790 123.657 139.473  0.00  0.00    +0.000 OA
ATOM     23  O   UNL     1     105.239 123.234 141.899  0.00  0.00    +0.000 OA
ATOM     24  C   UNL     1     104.514 123.445 140.686  0.00  0.00    +0.000 C 
ATOM     25  C   UNL     1     104.363 123.900 140.015  0.00  0.00    +0.000 C 
ATOM     26  C   UNL     1     105.087 123.688 141.227  0.00  0.00    +0.000 C 
ATOM     27  C   UNL     1     104.784 124.598 139.885  0.00  0.00    +0.000 C 
ATOM     28  C   UNL     1     105.509 124.386 141.098  0.00  0.00    +0.000 C 
BRANCH  27  31
ATOM     29  O   UNL     1     104.108 125.689 139.255  0.00  0.00    +0.000 OA
ATOM     30  O   UNL     1     105.003 124.870 138.499  0.00  0.00    +0.000 OA
ATOM     31  C   UNL     1     104.632 125.052 139.213  0.00  0.00    +0.000 C 
ENDBRANCH  27  31
ENDBRANCH  19  28
ENDBRANCH  13  19
ENDBRANCH  10  14
BRANCH   4  32
ATOM     32  O   UNL     1     110.599 127.366 137.687  0.00  0.00    +0.000 OA
BRANCH  32  39
ATOM     33  O   UNL     1     111.157 126.235 137.015  0.00  0.00    +0.000 OA
ATOM     34  O   UNL     1     109.522 126.519 135.179  0.00  0.00    +0.000 OA
ATOM     35  O   UNL     1     110.624 125.293 135.120  0.00  0.00    +0.000 OA
ATOM     36  C   UNL     1     110.060 126.943 136.433  0.00  0.00    +0.000 C 
ATOM     37  C   UNL     1     110.067 126.424 135.791  0.00  0.00    +0.000 C 
ATOM     38  C   UNL     1     110.617 125.811 135.761  0.00  0.00    +0.000 C 
ATOM     39  C   UNL     1     110.605 126.848 137.045  0.00  0.00    +0.000 C 
ATOM     40  C   UNL     1     111.162 125.717 136.373  0.00  0.00    +0.000 C 
BRANCH  40  43
ATOM     41  O   UNL     1     111.468 124.323 136.452  0.00  0.00    +0.000 OA
ATOM     42  O   UNL     1     112.510 125.270 136.208  0.00  0.00    +0.000 OA
ATOM     43  C   UNL     1     111.713 125.104 136.344  0.00  0.00    +0.000 C 
ENDBRANCH  40  43
BRANCH  36  44
ATOM     44  O   UNL     1     109.509 127.556 136.462  0.00  0.00    +0.000 OA
BRANCH  44  49
ATOM     45  O   UNL     1     110.436 128.483 135.893  0.00  0.00    +0.000 OA
ATOM     46  O   UNL     1     108.259 128.541 136.028  0.00  0.00    +0.000 OA
ATOM     47  O   UNL     1     108.561 129.960 135.242  0.00  0.00    +0.000 OA
ATOM     48  O   UNL     1     110.114 130.394 134.891  0.00  0.00    +0.000 OA
ATOM     49  C   UNL     1     109.661 128.265 136.069  0.00  0.00    +0.000 C 
ATOM     50  C   UNL     1     109.035 128.758 135.852  0.00  0.00    +0.000 C 
ATOM     51  C   UNL     1     109.186 129.468 135.459  0.00  0.00    +0.000 C 
ATOM     52  C   UNL     1     109.963 129.684 135.284  0.00  0.00    +0.000 C 
ATOM     53  C   UNL     1     110.588 129.192 135.501  0.00  0.00    +0.000 C 
BRANCH  53  56
ATOM     54  O   UNL     1     111.707 129.172 134.613  0.00  0.00    +0.000 OA
ATOM     55  O   UNL     1     111.798 129.861 135.861  0.00  0.00    +0.000 OA
ATOM     56  C   UNL     1     111.364 129.409 135.325  0.00  0.00    +0.000 C 
ENDBRANCH  53  56
ENDBRANCH  44  49
ENDBRANCH  36  44
ENDBRANCH  32  39
ENDBRANCH   4  32
TORSDOF 10
ENDMDL
MODEL 3
REMARK VINA RESULT:     -10.6      1.779      3.892
REMARK  Name = 131752324
REMARK  10 active torsions:
REMARK  status: ('A' for Active; 'I' for Inactive)
REMARK    1  A    between atoms: O_1  and  C_24
REMARK    2  A    between atoms: O_1  and  C_26
REMARK    3  A    between atoms: O_5  and  C_29
REMARK    4  A    between atoms: O_5  and  C_41
REMARK    5  A    between atoms: O_12  and  C_40
REMARK    6  A    between atoms: O_12  and  C_48
REMARK    7  A    between atoms: C_32  and  C_34
REMARK    8  A    between atoms: C_33  and  C_36
REMARK    9  A    between atoms: C_39  and  C_42
REMARK   10  A    between atoms: C_49  and  C_51
REMARK                            x       y       z     vdW  Elec       q    Type
REMARK                         _______ _______ _______ _____ _____    ______ ____
ROOT
ATOM      1  O   UNL     1     104.651 128.055 143.013  0.00  0.00    +0.000 OA
ATOM      2  O   UNL     1     107.231 126.859 142.504  0.00  0.00    +0.000 OA
ATOM      3  O   UNL     1     106.744 127.948 141.695  0.00  0.00    +0.000 OA
ATOM      4  C   UNL     1     105.694 126.378 144.060  0.00  0.00    +0.000 A 
ATOM      5  C   UNL     1     105.094 126.960 143.858  0.00  0.00    +0.000 A 
ATOM      6  C   UNL     1     106.419 126.341 143.603  0.00  0.00    +0.000 A 
ATOM      7  C   UNL     1     105.230 127.498 143.201  0.00  0.00    +0.000 A 
ATOM      8  C   UNL     1     106.537 126.887 142.949  0.00  0.00    +0.000 A 
ATOM      9  C   UNL     1     105.927 127.462 142.762  0.00  0.00    +0.000 A 
ATOM     10  C   UNL     1     104.770 128.576 142.385  0.00  0.00    +0.000 A 
ATOM     11  C   UNL     1     106.046 127.984 142.134  0.00  0.00    +0.000 A 
ATOM     12  C   UNL     1     105.468 128.541 141.945  0.00  0.00    +0.000 A 
ENDROOT
BRANCH  10  14
ATOM     13  C   UNL     1     103.035 130.247 141.818  0.00  0.00    +0.000 A 
ATOM     14  C   UNL     1     104.192 129.133 142.196  0.00  0.00    +0.000 A 
ATOM     15  C   UNL     1     103.212 129.641 141.288  0.00  0.00    +0.000 A 
ATOM     16  C   UNL     1     103.436 130.297 142.537  0.00  0.00    +0.000 A 
ATOM     17  C   UNL     1     103.791 129.083 141.477  0.00  0.00    +0.000 A 
ATOM     18  C   UNL     1     104.015 129.740 142.726  0.00  0.00    +0.000 A 
BRANCH  13  19
ATOM     19  O   UNL     1     102.456 130.804 141.629  0.00  0.00    +0.000 OA
BRANCH  19  28
ATOM     20  O   UNL     1     103.309 131.668 140.874  0.00  0.00    +0.000 OA
ATOM     21  O   UNL     1     102.063 133.633 141.718  0.00  0.00    +0.000 OA
ATOM     22  O   UNL     1     103.330 133.842 140.682  0.00  0.00    +0.000 OA
ATOM     23  O   UNL     1     101.626 132.114 142.191  0.00  0.00    +0.000 OA
ATOM     24  C   UNL     1     102.478 132.978 141.436  0.00  0.00    +0.000 C 
ATOM     25  C   UNL     1     103.112 133.082 140.919  0.00  0.00    +0.000 C 
ATOM     26  C   UNL     1     102.260 132.219 141.673  0.00  0.00    +0.000 C 
ATOM     27  C   UNL     1     103.527 132.427 140.637  0.00  0.00    +0.000 C 
ATOM     28  C   UNL     1     102.675 131.563 141.392  0.00  0.00    +0.000 C 
BRANCH  27  31
ATOM     29  O   UNL     1     104.924 132.634 140.416  0.00  0.00    +0.000 OA
ATOM     30  O   UNL     1     104.031 132.534 139.304  0.00  0.00    +0.000 OA
ATOM     31  C   UNL     1     104.161 132.532 140.119  0.00  0.00    +0.000 C 
ENDBRANCH  27  31
ENDBRANCH  19  28
ENDBRANCH  13  19
ENDBRANCH  10  14
BRANCH   4  32
ATOM     32  O   UNL     1     105.572 125.858 144.688  0.00  0.00    +0.000 OA
BRANCH  32  39
ATOM     33  O   UNL     1     106.320 126.678 145.588  0.00  0.00    +0.000 OA
ATOM     34  O   UNL     1     106.691 124.724 147.061  0.00  0.00    +0.000 OA
ATOM     35  O   UNL     1     107.315 126.195 147.469  0.00  0.00    +0.000 OA
ATOM     36  C   UNL     1     106.131 125.290 145.875  0.00  0.00    +0.000 C 
ATOM     37  C   UNL     1     106.568 125.375 146.570  0.00  0.00    +0.000 C 
ATOM     38  C   UNL     1     106.879 126.110 146.775  0.00  0.00    +0.000 C 
ATOM     39  C   UNL     1     106.008 125.942 145.384  0.00  0.00    +0.000 C 
ATOM     40  C   UNL     1     106.756 126.762 146.284  0.00  0.00    +0.000 C 
BRANCH  40  43
ATOM     41  O   UNL     1     107.856 127.673 146.316  0.00  0.00    +0.000 OA
ATOM     42  O   UNL     1     106.592 128.058 146.863  0.00  0.00    +0.000 OA
ATOM     43  C   UNL     1     107.067 127.498 146.488  0.00  0.00    +0.000 C 
ENDBRANCH  40  43
BRANCH  36  44
ATOM     44  O   UNL     1     105.820 124.555 145.670  0.00  0.00    +0.000 OA
BRANCH  44  49
ATOM     45  O   UNL     1     104.711 124.756 146.550  0.00  0.00    +0.000 OA
ATOM     46  O   UNL     1     105.037 123.277 144.978  0.00  0.00    +0.000 OA
ATOM     47  O   UNL     1     103.539 122.840 145.512  0.00  0.00    +0.000 OA
ATOM     48  O   UNL     1     102.822 123.680 146.738  0.00  0.00    +0.000 OA
ATOM     49  C   UNL     1     105.070 124.336 145.937  0.00  0.00    +0.000 C 
ATOM     50  C   UNL     1     104.679 123.697 145.591  0.00  0.00    +0.000 C 
ATOM     51  C   UNL     1     103.929 123.478 145.858  0.00  0.00    +0.000 C 
ATOM     52  C   UNL     1     103.572 123.899 146.471  0.00  0.00    +0.000 C 
ATOM     53  C   UNL     1     103.962 124.537 146.817  0.00  0.00    +0.000 C 
BRANCH  53  56
ATOM     54  O   UNL     1     103.685 124.698 148.209  0.00  0.00    +0.000 OA
ATOM     55  O   UNL     1     103.166 125.636 147.265  0.00  0.00    +0.000 OA
ATOM     56  C   UNL     1     103.604 124.957 147.430  0.00  0.00    +0.000 C 
ENDBRANCH  53  56
ENDBRANCH  44  49
ENDBRANCH  36  44
ENDBRANCH  32  39
ENDBRANCH   4  32
TORSDOF 10
ENDMDL
MODEL 4
REMARK VINA RESULT:     -10.4      5.523     10.227
REMARK  Name = 131752324
REMARK  10 active torsions:
REMARK  status: ('A' for Active; 'I' for Inactive)
REMARK    1  A    between atoms: O_1  and  C_24
REMARK    2  A    between atoms: O_1  and  C_26
REMARK    3  A    between atoms: O_5  and  C_29
REMARK    4  A    between atoms: O_5  and  C_41
REMARK    5  A    between atoms: O_12  and  C_40
REMARK    6  A    between atoms: O_12  and  C_48
REMARK    7  A    between atoms: C_32  and  C_34
REMARK    8  A    between atoms: C_33  and  C_36
REMARK    9  A    between atoms: C_39  and  C_42
REMARK   10  A    between atoms: C_49  and  C_51
REMARK                            x       y       z     vdW  Elec       q    Type
REMARK                         _______ _______ _______ _____ _____    ______ ____
ROOT
ATOM      1  O   UNL     1     111.632 129.279 138.121  0.00  0.00    +0.000 OA
ATOM      2  O   UNL     1     111.086 132.115 138.056  0.00  0.00    +0.000 OA
ATOM      3  O   UNL     1     111.955 131.502 137.081  0.00  0.00    +0.000 OA
ATOM      4  C   UNL     1     110.353 130.531 139.458  0.00  0.00    +0.000 A 
ATOM      5  C   UNL     1     110.750 129.845 139.126  0.00  0.00    +0.000 A 
ATOM      6  C   UNL     1     110.465 131.302 139.098  0.00  0.00    +0.000 A 
ATOM      7  C   UNL     1     111.254 129.941 138.436  0.00  0.00    +0.000 A 
ATOM      8  C   UNL     1     110.973 131.378 138.408  0.00  0.00    +0.000 A 
ATOM      9  C   UNL     1     111.362 130.682 138.089  0.00  0.00    +0.000 A 
ATOM     10  C   UNL     1     112.119 129.358 137.459  0.00  0.00    +0.000 A 
ATOM     11  C   UNL     1     111.848 130.761 137.428  0.00  0.00    +0.000 A 
ATOM     12  C   UNL     1     112.227 130.099 137.112  0.00  0.00    +0.000 A 
ENDROOT
BRANCH  10  14
ATOM     13  C   UNL     1     113.255 127.373 136.513  0.00  0.00    +0.000 A 
ATOM     14  C   UNL     1     112.497 128.697 137.144  0.00  0.00    +0.000 A 
ATOM     15  C   UNL     1     113.459 127.647 137.264  0.00  0.00    +0.000 A 
ATOM     16  C   UNL     1     112.672 127.762 136.077  0.00  0.00    +0.000 A 
ATOM     17  C   UNL     1     113.081 128.308 137.580  0.00  0.00    +0.000 A 
ATOM     18  C   UNL     1     112.293 128.423 136.393  0.00  0.00    +0.000 A 
BRANCH  13  19
ATOM     19  O   UNL     1     113.634 126.712 136.198  0.00  0.00    +0.000 OA
BRANCH  19  28
ATOM     20  O   UNL     1     112.597 125.751 136.402  0.00  0.00    +0.000 OA
ATOM     21  O   UNL     1     114.283 124.087 137.122  0.00  0.00    +0.000 OA
ATOM     22  O   UNL     1     112.684 123.680 137.087  0.00  0.00    +0.000 OA
ATOM     23  O   UNL     1     114.757 125.603 136.677  0.00  0.00    +0.000 OA
ATOM     24  C   UNL     1     113.721 124.641 136.882  0.00  0.00    +0.000 C 
ATOM     25  C   UNL     1     112.922 124.438 136.865  0.00  0.00    +0.000 C 
ATOM     26  C   UNL     1     113.958 125.400 136.660  0.00  0.00    +0.000 C 
ATOM     27  C   UNL     1     112.359 124.993 136.625  0.00  0.00    +0.000 C 
ATOM     28  C   UNL     1     113.396 125.955 136.420  0.00  0.00    +0.000 C 
BRANCH  27  31
ATOM     29  O   UNL     1     111.215 124.532 135.903  0.00  0.00    +0.000 OA
ATOM     30  O   UNL     1     111.106 124.841 137.294  0.00  0.00    +0.000 OA
ATOM     31  C   UNL     1     111.560 124.789 136.607  0.00  0.00    +0.000 C 
ENDBRANCH  27  31
ENDBRANCH  19  28
ENDBRANCH  13  19
ENDBRANCH  10  14
BRANCH   4  32
ATOM     32  O   UNL     1     109.867 130.448 140.120  0.00  0.00    +0.000 OA
BRANCH  32  39
ATOM     33  O   UNL     1     110.976 130.527 141.018  0.00  0.00    +0.000 OA
ATOM     34  O   UNL     1     109.448 131.208 142.843  0.00  0.00    +0.000 OA
ATOM     35  O   UNL     1     111.065 131.060 143.133  0.00  0.00    +0.000 OA
ATOM     36  C   UNL     1     109.657 130.828 141.482  0.00  0.00    +0.000 C 
ATOM     37  C   UNL     1     109.958 130.981 142.235  0.00  0.00    +0.000 C 
ATOM     38  C   UNL     1     110.766 130.907 142.380  0.00  0.00    +0.000 C 
ATOM     39  C   UNL     1     110.166 130.601 140.873  0.00  0.00    +0.000 C 
ATOM     40  C   UNL     1     111.275 130.680 141.772  0.00  0.00    +0.000 C 
BRANCH  40  43
ATOM     41  O   UNL     1     112.579 131.261 141.831  0.00  0.00    +0.000 OA
ATOM     42  O   UNL     1     112.397 129.878 142.146  0.00  0.00    +0.000 OA
ATOM     43  C   UNL     1     112.083 130.606 141.916  0.00  0.00    +0.000 C 
ENDBRANCH  40  43
BRANCH  36  44
ATOM     44  O   UNL     1     108.849 130.902 141.337  0.00  0.00    +0.000 OA
BRANCH  44  49
ATOM     45  O   UNL     1     108.653 129.544 141.736  0.00  0.00    +0.000 OA
ATOM     46  O   UNL     1     107.231 131.050 141.048  0.00  0.00    +0.000 OA
ATOM     47  O   UNL     1     106.227 129.766 141.303  0.00  0.00    +0.000 OA
ATOM     48  O   UNL     1     106.840 128.334 141.846  0.00  0.00    +0.000 OA
ATOM     49  C   UNL     1     108.347 130.260 141.464  0.00  0.00    +0.000 C 
ATOM     50  C   UNL     1     107.537 130.334 141.320  0.00  0.00    +0.000 C 
ATOM     51  C   UNL     1     107.035 129.692 141.447  0.00  0.00    +0.000 C 
ATOM     52  C   UNL     1     107.342 128.976 141.719  0.00  0.00    +0.000 C 
ATOM     53  C   UNL     1     108.151 128.902 141.864  0.00  0.00    +0.000 C 
BRANCH  53  56
ATOM     54  O   UNL     1     108.736 127.626 141.597  0.00  0.00    +0.000 OA
ATOM     55  O   UNL     1     108.488 128.030 142.944  0.00  0.00    +0.000 OA
ATOM     56  C   UNL     1     108.458 128.186 142.136  0.00  0.00    +0.000 C 
ENDBRANCH  53  56
ENDBRANCH  44  49
ENDBRANCH  36  44
ENDBRANCH  32  39
ENDBRANCH   4  32
TORSDOF 10
ENDMDL
MODEL 5
REMARK VINA RESULT:     -10.3      1.517      2.506
REMARK  Name = 131752324
REMARK  10 active torsions:
REMARK  status: ('A' for Active; 'I' for Inactive)
REMARK    1  A    between atoms: O_1  and  C_24
REMARK    2  A    between atoms: O_1  and  C_26
REMARK    3  A    between atoms: O_5  and  C_29
REMARK    4  A    between atoms: O_5  and  C_41
REMARK    5  A    between atoms: O_12  and  C_40
REMARK    6  A    between atoms: O_12  and  C_48
REMARK    7  A    between atoms: C_32  and  C_34
REMARK    8  A    between atoms: C_33  and  C_36
REMARK    9  A    between atoms: C_39  and  C_42
REMARK   10  A    between atoms: C_49  and  C_51
REMARK                            x       y       z     vdW  Elec       q    Type
REMARK                         _______ _______ _______ _____ _____    ______ ____
ROOT
ATOM      1  O   UNL     1     103.947 129.386 142.692  0.00  0.00    +0.000 OA
ATOM      2  O   UNL     1     105.287 127.112 141.516  0.00  0.00    +0.000 OA
ATOM      3  O   UNL     1     104.382 127.925 140.741  0.00  0.00    +0.000 OA
ATOM      4  C   UNL     1     105.388 127.937 143.596  0.00  0.00    +0.000 A 
ATOM      5  C   UNL     1     104.848 128.601 143.517  0.00  0.00    +0.000 A 
ATOM      6  C   UNL     1     105.540 127.431 142.919  0.00  0.00    +0.000 A 
ATOM      7  C   UNL     1     104.465 128.748 142.761  0.00  0.00    +0.000 A 
ATOM      8  C   UNL     1     105.148 127.594 142.171  0.00  0.00    +0.000 A 
ATOM      9  C   UNL     1     104.610 128.261 142.111  0.00  0.00    +0.000 A 
ATOM     10  C   UNL     1     103.574 129.537 141.972  0.00  0.00    +0.000 A 
ATOM     11  C   UNL     1     104.237 128.412 141.391  0.00  0.00    +0.000 A 
ATOM     12  C   UNL     1     103.719 129.050 141.321  0.00  0.00    +0.000 A 
ENDROOT
BRANCH  10  14
ATOM     13  C   UNL     1     102.019 131.451 141.761  0.00  0.00    +0.000 A 
ATOM     14  C   UNL     1     103.055 130.175 141.901  0.00  0.00    +0.000 A 
ATOM     15  C   UNL     1     102.373 131.285 142.487  0.00  0.00    +0.000 A 
ATOM     16  C   UNL     1     102.183 130.979 141.105  0.00  0.00    +0.000 A 
ATOM     17  C   UNL     1     102.891 130.647 142.558  0.00  0.00    +0.000 A 
ATOM     18  C   UNL     1     102.701 130.341 141.175  0.00  0.00    +0.000 A 
BRANCH  13  19
ATOM     19  O   UNL     1     101.500 132.089 141.691  0.00  0.00    +0.000 OA
BRANCH  19  28
ATOM     20  O   UNL     1     102.480 133.001 141.191  0.00  0.00    +0.000 OA
ATOM     21  O   UNL     1     101.311 134.871 142.316  0.00  0.00    +0.000 OA
ATOM     22  O   UNL     1     102.679 135.160 141.442  0.00  0.00    +0.000 OA
ATOM     23  O   UNL     1     100.721 133.335 142.440  0.00  0.00    +0.000 OA
ATOM     24  C   UNL     1     101.701 134.248 141.941  0.00  0.00    +0.000 C 
ATOM     25  C   UNL     1     102.385 134.392 141.504  0.00  0.00    +0.000 C 
ATOM     26  C   UNL     1     101.406 133.480 142.003  0.00  0.00    +0.000 C 
ATOM     27  C   UNL     1     102.775 133.769 141.129  0.00  0.00    +0.000 C 
ATOM     28  C   UNL     1     101.795 132.856 141.628  0.00  0.00    +0.000 C 
BRANCH  27  31
ATOM     29  O   UNL     1     103.409 134.055 139.880  0.00  0.00    +0.000 OA
ATOM     30  O   UNL     1     104.195 133.919 141.066  0.00  0.00    +0.000 OA
ATOM     31  C   UNL     1     103.459 133.914 140.692  0.00  0.00    +0.000 C 
ENDBRANCH  27  31
ENDBRANCH  19  28
ENDBRANCH  13  19
ENDBRANCH  10  14
BRANCH   4  32
ATOM     32  O   UNL     1     105.760 127.789 144.317  0.00  0.00    +0.000 OA
BRANCH  32  39
ATOM     33  O   UNL     1     107.006 128.414 144.003  0.00  0.00    +0.000 OA
ATOM     34  O   UNL     1     107.171 129.252 146.326  0.00  0.00    +0.000 OA
ATOM     35  O   UNL     1     108.361 129.597 145.238  0.00  0.00    +0.000 OA
ATOM     36  C   UNL     1     106.465 128.520 145.322  0.00  0.00    +0.000 C 
ATOM     37  C   UNL     1     107.116 128.973 145.551  0.00  0.00    +0.000 C 
ATOM     38  C   UNL     1     107.711 129.145 145.008  0.00  0.00    +0.000 C 
ATOM     39  C   UNL     1     106.410 128.241 144.548  0.00  0.00    +0.000 C 
ATOM     40  C   UNL     1     107.656 128.866 144.234  0.00  0.00    +0.000 C 
BRANCH  40  43
ATOM     41  O   UNL     1     108.224 129.742 143.257  0.00  0.00    +0.000 OA
ATOM     42  O   UNL     1     108.874 128.509 143.576  0.00  0.00    +0.000 OA
ATOM     43  C   UNL     1     108.251 129.038 143.689  0.00  0.00    +0.000 C 
ENDBRANCH  40  43
BRANCH  36  44
ATOM     44  O   UNL     1     105.870 128.347 145.865  0.00  0.00    +0.000 OA
BRANCH  44  49
ATOM     45  O   UNL     1     106.548 127.158 146.275  0.00  0.00    +0.000 OA
ATOM     46  O   UNL     1     104.918 128.266 147.211  0.00  0.00    +0.000 OA
ATOM     47  O   UNL     1     105.120 127.036 148.292  0.00  0.00    +0.000 OA
ATOM     48  O   UNL     1     106.274 125.887 148.027  0.00  0.00    +0.000 OA
ATOM     49  C   UNL     1     105.971 127.732 146.406  0.00  0.00    +0.000 C 
ATOM     50  C   UNL     1     105.495 127.692 147.079  0.00  0.00    +0.000 C 
ATOM     51  C   UNL     1     105.596 127.077 147.620  0.00  0.00    +0.000 C 
ATOM     52  C   UNL     1     106.173 126.502 147.487  0.00  0.00    +0.000 C 
ATOM     53  C   UNL     1     106.649 126.543 146.815  0.00  0.00    +0.000 C 
BRANCH  53  56
ATOM     54  O   UNL     1     107.966 126.037 147.043  0.00  0.00    +0.000 OA
ATOM     55  O   UNL     1     107.066 125.327 146.190  0.00  0.00    +0.000 OA
ATOM     56  C   UNL     1     107.227 125.968 146.682  0.00  0.00    +0.000 C 
ENDBRANCH  53  56
ENDBRANCH  44  49
ENDBRANCH  36  44
ENDBRANCH  32  39
ENDBRANCH   4  32
TORSDOF 10
ENDMDL
MODEL 6
REMARK VINA RESULT:     -10.3      7.161      9.271
REMARK  Name = 131752324
REMARK  10 active torsions:
REMARK  status: ('A' for Active; 'I' for Inactive)
REMARK    1  A    between atoms: O_1  and  C_24
REMARK    2  A    between atoms: O_1  and  C_26
REMARK    3  A    between atoms: O_5  and  C_29
REMARK    4  A    between atoms: O_5  and  C_41
REMARK    5  A    between atoms: O_12  and  C_40
REMARK    6  A    between atoms: O_12  and  C_48
REMARK    7  A    between atoms: C_32  and  C_34
REMARK    8  A    between atoms: C_33  and  C_36
REMARK    9  A    between atoms: C_39  and  C_42
REMARK   10  A    between atoms: C_49  and  C_51
REMARK                            x       y       z     vdW  Elec       q    Type
REMARK                         _______ _______ _______ _____ _____    ______ ____
ROOT
ATOM      1  O   UNL     1     111.358 131.074 141.869  0.00  0.00    +0.000 OA
ATOM      2  O   UNL     1     111.945 128.355 141.086  0.00  0.00    +0.000 OA
ATOM      3  O   UNL     1     112.230 128.824 142.420  0.00  0.00    +0.000 OA
ATOM      4  C   UNL     1     111.048 130.039 139.913  0.00  0.00    +0.000 A 
ATOM      5  C   UNL     1     111.051 130.654 140.513  0.00  0.00    +0.000 A 
ATOM      6  C   UNL     1     111.350 129.258 140.104  0.00  0.00    +0.000 A 
ATOM      7  C   UNL     1     111.358 130.479 141.298  0.00  0.00    +0.000 A 
ATOM      8  C   UNL     1     111.653 129.102 140.894  0.00  0.00    +0.000 A 
ATOM      9  C   UNL     1     111.648 129.729 141.481  0.00  0.00    +0.000 A 
ATOM     10  C   UNL     1     111.650 130.918 142.625  0.00  0.00    +0.000 A 
ATOM     11  C   UNL     1     111.940 129.574 142.237  0.00  0.00    +0.000 A 
ATOM     12  C   UNL     1     111.941 130.168 142.809  0.00  0.00    +0.000 A 
ENDROOT
BRANCH  10  14
ATOM     13  C   UNL     1     111.653 132.701 144.342  0.00  0.00    +0.000 A 
ATOM     14  C   UNL     1     111.651 131.512 143.197  0.00  0.00    +0.000 A 
ATOM     15  C   UNL     1     112.283 132.636 143.813  0.00  0.00    +0.000 A 
ATOM     16  C   UNL     1     111.022 132.171 144.298  0.00  0.00    +0.000 A 
ATOM     17  C   UNL     1     112.282 132.042 143.241  0.00  0.00    +0.000 A 
ATOM     18  C   UNL     1     111.021 131.577 143.726  0.00  0.00    +0.000 A 
BRANCH  13  19
ATOM     19  O   UNL     1     111.654 133.295 144.915  0.00  0.00    +0.000 OA
BRANCH  19  28
ATOM     20  O   UNL     1     112.447 132.617 145.891  0.00  0.00    +0.000 OA
ATOM     21  O   UNL     1     111.018 133.540 147.689  0.00  0.00    +0.000 OA
ATOM     22  O   UNL     1     112.287 132.555 148.067  0.00  0.00    +0.000 OA
ATOM     23  O   UNL     1     110.702 133.909 146.113  0.00  0.00    +0.000 OA
ATOM     24  C   UNL     1     111.495 133.232 147.090  0.00  0.00    +0.000 C 
ATOM     25  C   UNL     1     112.129 132.740 147.278  0.00  0.00    +0.000 C 
ATOM     26  C   UNL     1     111.337 133.417 146.302  0.00  0.00    +0.000 C 
ATOM     27  C   UNL     1     112.605 132.433 146.679  0.00  0.00    +0.000 C 
ATOM     28  C   UNL     1     111.813 133.110 145.702  0.00  0.00    +0.000 C 
BRANCH  27  31
ATOM     29  O   UNL     1     113.120 131.129 146.960  0.00  0.00    +0.000 OA
ATOM     30  O   UNL     1     113.995 132.259 146.965  0.00  0.00    +0.000 OA
ATOM     31  C   UNL     1     113.240 131.940 146.868  0.00  0.00    +0.000 C 
ENDBRANCH  27  31
ENDBRANCH  19  28
ENDBRANCH  13  19
ENDBRANCH  10  14
BRANCH   4  32
ATOM     32  O   UNL     1     110.756 130.197 139.158  0.00  0.00    +0.000 OA
BRANCH  32  39
ATOM     33  O   UNL     1     112.022 130.291 138.503  0.00  0.00    +0.000 OA
ATOM     34  O   UNL     1     111.148 132.112 137.073  0.00  0.00    +0.000 OA
ATOM     35  O   UNL     1     112.705 131.598 136.895  0.00  0.00    +0.000 OA
ATOM     36  C   UNL     1     110.951 131.155 138.115  0.00  0.00    +0.000 C 
ATOM     37  C   UNL     1     111.439 131.505 137.550  0.00  0.00    +0.000 C 
ATOM     38  C   UNL     1     112.218 131.248 137.460  0.00  0.00    +0.000 C 
ATOM     39  C   UNL     1     111.242 130.548 138.592  0.00  0.00    +0.000 C 
ATOM     40  C   UNL     1     112.509 130.641 137.937  0.00  0.00    +0.000 C 
BRANCH  40  43
ATOM     41  O   UNL     1     113.456 129.744 137.354  0.00  0.00    +0.000 OA
ATOM     42  O   UNL     1     113.897 130.765 138.253  0.00  0.00    +0.000 OA
ATOM     43  C   UNL     1     113.288 130.384 137.848  0.00  0.00    +0.000 C 
ENDBRANCH  40  43
BRANCH  36  44
ATOM     44  O   UNL     1     110.173 131.412 138.205  0.00  0.00    +0.000 OA
BRANCH  44  49
ATOM     45  O   UNL     1     109.689 130.439 137.276  0.00  0.00    +0.000 OA
ATOM     46  O   UNL     1     108.807 132.308 137.976  0.00  0.00    +0.000 OA
ATOM     47  O   UNL     1     107.641 131.784 136.933  0.00  0.00    +0.000 OA
ATOM     48  O   UNL     1     107.841 130.363 136.119  0.00  0.00    +0.000 OA
ATOM     49  C   UNL     1     109.590 131.149 137.683  0.00  0.00    +0.000 C 
ATOM     50  C   UNL     1     108.906 131.598 137.569  0.00  0.00    +0.000 C 
ATOM     51  C   UNL     1     108.323 131.336 137.047  0.00  0.00    +0.000 C 
ATOM     52  C   UNL     1     108.424 130.625 136.640  0.00  0.00    +0.000 C 
ATOM     53  C   UNL     1     109.106 130.177 136.754  0.00  0.00    +0.000 C 
BRANCH  53  56
ATOM     54  O   UNL     1     109.567 129.464 135.605  0.00  0.00    +0.000 OA
ATOM     55  O   UNL     1     108.948 128.759 136.682  0.00  0.00    +0.000 OA
ATOM     56  C   UNL     1     109.207 129.466 136.347  0.00  0.00    +0.000 C 
ENDBRANCH  53  56
ENDBRANCH  44  49
ENDBRANCH  36  44
ENDBRANCH  32  39
ENDBRANCH   4  32
TORSDOF 10
ENDMDL
MODEL 7
REMARK VINA RESULT:     -10.2      2.366      4.493
REMARK  Name = 131752324
REMARK  10 active torsions:
REMARK  status: ('A' for Active; 'I' for Inactive)
REMARK    1  A    between atoms: O_1  and  C_24
REMARK    2  A    between atoms: O_1  and  C_26
REMARK    3  A    between atoms: O_5  and  C_29
REMARK    4  A    between atoms: O_5  and  C_41
REMARK    5  A    between atoms: O_12  and  C_40
REMARK    6  A    between atoms: O_12  and  C_48
REMARK    7  A    between atoms: C_32  and  C_34
REMARK    8  A    between atoms: C_33  and  C_36
REMARK    9  A    between atoms: C_39  and  C_42
REMARK   10  A    between atoms: C_49  and  C_51
REMARK                            x       y       z     vdW  Elec       q    Type
REMARK                         _______ _______ _______ _____ _____    ______ ____
ROOT
ATOM      1  O   UNL     1     105.912 128.764 142.269  0.00  0.00    +0.000 OA
ATOM      2  O   UNL     1     107.041 126.284 143.230  0.00  0.00    +0.000 OA
ATOM      3  O   UNL     1     105.614 126.449 143.095  0.00  0.00    +0.000 OA
ATOM      4  C   UNL     1     108.045 128.181 142.592  0.00  0.00    +0.000 A 
ATOM      5  C   UNL     1     107.355 128.650 142.386  0.00  0.00    +0.000 A 
ATOM      6  C   UNL     1     107.942 127.378 142.879  0.00  0.00    +0.000 A 
ATOM      7  C   UNL     1     106.570 128.309 142.469  0.00  0.00    +0.000 A 
ATOM      8  C   UNL     1     107.149 127.054 142.956  0.00  0.00    +0.000 A 
ATOM      9  C   UNL     1     106.471 127.537 142.744  0.00  0.00    +0.000 A 
ATOM     10  C   UNL     1     105.154 128.447 142.344  0.00  0.00    +0.000 A 
ATOM     11  C   UNL     1     105.713 127.221 142.820  0.00  0.00    +0.000 A 
ATOM     12  C   UNL     1     105.054 127.675 142.620  0.00  0.00    +0.000 A 
ENDROOT
BRANCH  10  14
ATOM     13  C   UNL     1     103.178 129.810 141.744  0.00  0.00    +0.000 A 
ATOM     14  C   UNL     1     104.496 128.901 142.144  0.00  0.00    +0.000 A 
ATOM     15  C   UNL     1     103.498 129.859 142.503  0.00  0.00    +0.000 A 
ATOM     16  C   UNL     1     103.516 129.307 141.185  0.00  0.00    +0.000 A 
ATOM     17  C   UNL     1     104.157 129.405 142.703  0.00  0.00    +0.000 A 
ATOM     18  C   UNL     1     104.175 128.852 141.385  0.00  0.00    +0.000 A 
BRANCH  13  19
ATOM     19  O   UNL     1     102.519 130.265 141.544  0.00  0.00    +0.000 OA
BRANCH  19  28
ATOM     20  O   UNL     1     103.262 131.352 140.991  0.00  0.00    +0.000 OA
ATOM     21  O   UNL     1     101.530 132.935 141.781  0.00  0.00    +0.000 OA
ATOM     22  O   UNL     1     102.850 133.496 140.966  0.00  0.00    +0.000 OA
ATOM     23  O   UNL     1     101.365 131.319 142.071  0.00  0.00    +0.000 OA
ATOM     24  C   UNL     1     102.108 132.408 141.518  0.00  0.00    +0.000 C 
ATOM     25  C   UNL     1     102.767 132.688 141.110  0.00  0.00    +0.000 C 
ATOM     26  C   UNL     1     102.025 131.600 141.663  0.00  0.00    +0.000 C 
ATOM     27  C   UNL     1     103.345 132.160 140.847  0.00  0.00    +0.000 C 
ATOM     28  C   UNL     1     102.602 131.072 141.399  0.00  0.00    +0.000 C 
BRANCH  27  31
ATOM     29  O   UNL     1     104.664 132.709 140.855  0.00  0.00    +0.000 OA
ATOM     30  O   UNL     1     104.005 132.454 139.614  0.00  0.00    +0.000 OA
ATOM     31  C   UNL     1     104.005 132.441 140.439  0.00  0.00    +0.000 C 
ENDBRANCH  27  31
ENDBRANCH  19  28
ENDBRANCH  13  19
ENDBRANCH  10  14
BRANCH   4  32
ATOM     32  O   UNL     1     108.802 128.500 142.516  0.00  0.00    +0.000 OA
BRANCH  32  39
ATOM     33  O   UNL     1     109.014 128.033 141.182  0.00  0.00    +0.000 OA
ATOM     34  O   UNL     1     111.427 127.760 141.662  0.00  0.00    +0.000 OA
ATOM     35  O   UNL     1     110.835 127.383 140.170  0.00  0.00    +0.000 OA
ATOM     36  C   UNL     1     110.115 128.130 142.090  0.00  0.00    +0.000 C 
ATOM     37  C   UNL     1     110.623 127.851 141.502  0.00  0.00    +0.000 C 
ATOM     38  C   UNL     1     110.327 127.663 140.756  0.00  0.00    +0.000 C 
ATOM     39  C   UNL     1     109.311 128.221 141.930  0.00  0.00    +0.000 C 
ATOM     40  C   UNL     1     109.523 127.753 140.596  0.00  0.00    +0.000 C 
BRANCH  40  43
ATOM     41  O   UNL     1     109.175 128.149 139.268  0.00  0.00    +0.000 OA
ATOM     42  O   UNL     1     108.982 126.795 139.685  0.00  0.00    +0.000 OA
ATOM     43  C   UNL     1     109.227 127.565 139.850  0.00  0.00    +0.000 C 
ENDBRANCH  40  43
BRANCH  36  44
ATOM     44  O   UNL     1     110.411 128.319 142.836  0.00  0.00    +0.000 OA
BRANCH  44  49
ATOM     45  O   UNL     1     110.669 129.659 142.411  0.00  0.00    +0.000 OA
ATOM     46  O   UNL     1     111.264 128.594 144.221  0.00  0.00    +0.000 OA
ATOM     47  O   UNL     1     111.948 130.072 144.488  0.00  0.00    +0.000 OA
ATOM     48  O   UNL     1     111.779 131.274 143.370  0.00  0.00    +0.000 OA
ATOM     49  C   UNL     1     110.753 129.057 142.969  0.00  0.00    +0.000 C 
ATOM     50  C   UNL     1     111.180 129.196 143.663  0.00  0.00    +0.000 C 
ATOM     51  C   UNL     1     111.522 129.934 143.796  0.00  0.00    +0.000 C 
ATOM     52  C   UNL     1     111.437 130.535 143.237  0.00  0.00    +0.000 C 
ATOM     53  C   UNL     1     111.011 130.397 142.545  0.00  0.00    +0.000 C 
BRANCH  53  56
ATOM     54  O   UNL     1     110.258 131.483 141.999  0.00  0.00    +0.000 OA
ATOM     55  O   UNL     1     111.507 131.114 141.412  0.00  0.00    +0.000 OA
ATOM     56  C   UNL     1     110.926 130.998 141.985  0.00  0.00    +0.000 C 
ENDBRANCH  53  56
ENDBRANCH  44  49
ENDBRANCH  36  44
ENDBRANCH  32  39
ENDBRANCH   4  32
TORSDOF 10
ENDMDL
MODEL 8
REMARK VINA RESULT:     -10.2      3.366      6.238
REMARK  Name = 131752324
REMARK  10 active torsions:
REMARK  status: ('A' for Active; 'I' for Inactive)
REMARK    1  A    between atoms: O_1  and  C_24
REMARK    2  A    between atoms: O_1  and  C_26
REMARK    3  A    between atoms: O_5  and  C_29
REMARK    4  A    between atoms: O_5  and  C_41
REMARK    5  A    between atoms: O_12  and  C_40
REMARK    6  A    between atoms: O_12  and  C_48
REMARK    7  A    between atoms: C_32  and  C_34
REMARK    8  A    between atoms: C_33  and  C_36
REMARK    9  A    between atoms: C_39  and  C_42
REMARK   10  A    between atoms: C_49  and  C_51
REMARK                            x       y       z     vdW  Elec       q    Type
REMARK                         _______ _______ _______ _____ _____    ______ ____
ROOT
ATOM      1  O   UNL     1     105.107 128.870 146.328  0.00  0.00    +0.000 OA
ATOM      2  O   UNL     1     104.800 128.852 149.201  0.00  0.00    +0.000 OA
ATOM      3  O   UNL     1     105.091 130.073 148.491  0.00  0.00    +0.000 OA
ATOM      4  C   UNL     1     104.661 127.179 147.718  0.00  0.00    +0.000 A 
ATOM      5  C   UNL     1     104.814 127.613 146.992  0.00  0.00    +0.000 A 
ATOM      6  C   UNL     1     104.656 127.596 148.469  0.00  0.00    +0.000 A 
ATOM      7  C   UNL     1     104.960 128.459 147.028  0.00  0.00    +0.000 A 
ATOM      8  C   UNL     1     104.804 128.443 148.484  0.00  0.00    +0.000 A 
ATOM      9  C   UNL     1     104.955 128.860 147.749  0.00  0.00    +0.000 A 
ATOM     10  C   UNL     1     105.248 129.683 146.349  0.00  0.00    +0.000 A 
ATOM     11  C   UNL     1     105.096 129.673 147.770  0.00  0.00    +0.000 A 
ATOM     12  C   UNL     1     105.243 130.085 147.070  0.00  0.00    +0.000 A 
ENDROOT
BRANCH  10  14
ATOM     13  C   UNL     1     105.688 130.918 144.250  0.00  0.00    +0.000 A 
ATOM     14  C   UNL     1     105.395 130.095 145.649  0.00  0.00    +0.000 A 
ATOM     15  C   UNL     1     104.919 130.686 144.439  0.00  0.00    +0.000 A 
ATOM     16  C   UNL     1     106.310 130.738 144.761  0.00  0.00    +0.000 A 
ATOM     17  C   UNL     1     104.772 130.275 145.139  0.00  0.00    +0.000 A 
ATOM     18  C   UNL     1     106.163 130.326 145.460  0.00  0.00    +0.000 A 
BRANCH  13  19
ATOM     19  O   UNL     1     105.834 131.330 143.550  0.00  0.00    +0.000 OA
BRANCH  19  28
ATOM     20  O   UNL     1     105.905 130.192 142.689  0.00  0.00    +0.000 OA
ATOM     21  O   UNL     1     107.718 131.280 141.402  0.00  0.00    +0.000 OA
ATOM     22  O   UNL     1     107.185 129.780 140.970  0.00  0.00    +0.000 OA
ATOM     23  O   UNL     1     107.042 132.055 142.693  0.00  0.00    +0.000 OA
ATOM     24  C   UNL     1     107.114 130.918 141.831  0.00  0.00    +0.000 C 
ATOM     25  C   UNL     1     106.847 130.168 141.615  0.00  0.00    +0.000 C 
ATOM     26  C   UNL     1     106.776 131.305 142.476  0.00  0.00    +0.000 C 
ATOM     27  C   UNL     1     106.243 129.805 142.044  0.00  0.00    +0.000 C 
ATOM     28  C   UNL     1     106.171 130.942 142.906  0.00  0.00    +0.000 C 
BRANCH  27  31
ATOM     29  O   UNL     1     106.361 128.382 142.111  0.00  0.00    +0.000 OA
ATOM     30  O   UNL     1     105.325 128.976 141.326  0.00  0.00    +0.000 OA
ATOM     31  C   UNL     1     105.976 129.055 141.827  0.00  0.00    +0.000 C 
ENDBRANCH  27  31
ENDBRANCH  19  28
ENDBRANCH  13  19
ENDBRANCH  10  14
BRANCH   4  32
ATOM     32  O   UNL     1     104.520 126.366 147.694  0.00  0.00    +0.000 OA
BRANCH  32  39
ATOM     33  O   UNL     1     105.873 125.991 147.427  0.00  0.00    +0.000 OA
ATOM     34  O   UNL     1     105.568 123.935 148.771  0.00  0.00    +0.000 OA
ATOM     35  O   UNL     1     107.021 124.245 148.056  0.00  0.00    +0.000 OA
ATOM     36  C   UNL     1     105.043 125.150 148.233  0.00  0.00    +0.000 C 
ATOM     37  C   UNL     1     105.669 124.620 148.323  0.00  0.00    +0.000 C 
ATOM     38  C   UNL     1     106.396 124.775 147.966  0.00  0.00    +0.000 C 
ATOM     39  C   UNL     1     105.145 125.836 147.785  0.00  0.00    +0.000 C 
ATOM     40  C   UNL     1     106.498 125.461 147.518  0.00  0.00    +0.000 C 
BRANCH  40  43
ATOM     41  O   UNL     1     107.372 125.349 146.393  0.00  0.00    +0.000 OA
ATOM     42  O   UNL     1     107.804 126.038 147.569  0.00  0.00    +0.000 OA
ATOM     43  C   UNL     1     107.225 125.616 147.160  0.00  0.00    +0.000 C 
ENDBRANCH  40  43
BRANCH  36  44
ATOM     44  O   UNL     1     104.317 124.996 148.590  0.00  0.00    +0.000 OA
BRANCH  44  49
ATOM     45  O   UNL     1     103.877 124.299 147.422  0.00  0.00    +0.000 OA
ATOM     46  O   UNL     1     102.988 124.460 149.408  0.00  0.00    +0.000 OA
ATOM     47  O   UNL     1     101.885 123.495 148.649  0.00  0.00    +0.000 OA
ATOM     48  O   UNL     1     102.111 123.067 147.072  0.00  0.00    +0.000 OA
ATOM     49  C   UNL     1     103.765 124.513 148.210  0.00  0.00    +0.000 C 
ATOM     50  C   UNL     1     103.100 124.245 148.620  0.00  0.00    +0.000 C 
ATOM     51  C   UNL     1     102.549 123.763 148.240  0.00  0.00    +0.000 C 
ATOM     52  C   UNL     1     102.662 123.549 147.451  0.00  0.00    +0.000 C 
ATOM     53  C   UNL     1     103.326 123.817 147.042  0.00  0.00    +0.000 C 
BRANCH  53  56
ATOM     54  O   UNL     1     103.115 124.063 145.651  0.00  0.00    +0.000 OA
ATOM     55  O   UNL     1     103.877 122.929 146.067  0.00  0.00    +0.000 OA
ATOM     56  C   UNL     1     103.440 123.603 146.254  0.00  0.00    +0.000 C 
ENDBRANCH  53  56
ENDBRANCH  44  49
ENDBRANCH  36  44
ENDBRANCH  32  39
ENDBRANCH   4  32
TORSDOF 10
ENDMDL
MODEL 9
REMARK VINA RESULT:     -10.2      5.195      7.610
REMARK  Name = 131752324
REMARK  10 active torsions:
REMARK  status: ('A' for Active; 'I' for Inactive)
REMARK    1  A    between atoms: O_1  and  C_24
REMARK    2  A    between atoms: O_1  and  C_26
REMARK    3  A    between atoms: O_5  and  C_29
REMARK    4  A    between atoms: O_5  and  C_41
REMARK    5  A    between atoms: O_12  and  C_40
REMARK    6  A    between atoms: O_12  and  C_48
REMARK    7  A    between atoms: C_32  and  C_34
REMARK    8  A    between atoms: C_33  and  C_36
REMARK    9  A    between atoms: C_39  and  C_42
REMARK   10  A    between atoms: C_49  and  C_51
REMARK                            x       y       z     vdW  Elec       q    Type
REMARK                         _______ _______ _______ _____ _____    ______ ____
ROOT
ATOM      1  O   UNL     1     111.730 131.033 142.969  0.00  0.00    +0.000 OA
ATOM      2  O   UNL     1     113.531 130.258 140.848  0.00  0.00    +0.000 OA
ATOM      3  O   UNL     1     113.897 131.281 141.797  0.00  0.00    +0.000 OA
ATOM      4  C   UNL     1     111.483 129.509 141.354  0.00  0.00    +0.000 A 
ATOM      5  C   UNL     1     111.313 129.998 142.040  0.00  0.00    +0.000 A 
ATOM      6  C   UNL     1     112.234 129.595 140.947  0.00  0.00    +0.000 A 
ATOM      7  C   UNL     1     111.899 130.567 142.310  0.00  0.00    +0.000 A 
ATOM      8  C   UNL     1     112.807 130.169 141.232  0.00  0.00    +0.000 A 
ATOM      9  C   UNL     1     112.621 130.649 141.919  0.00  0.00    +0.000 A 
ATOM     10  C   UNL     1     112.284 131.583 143.237  0.00  0.00    +0.000 A 
ATOM     11  C   UNL     1     113.175 131.198 142.188  0.00  0.00    +0.000 A 
ATOM     12  C   UNL     1     113.007 131.665 142.847  0.00  0.00    +0.000 A 
ENDROOT
BRANCH  10  14
ATOM     13  C   UNL     1     111.781 132.984 145.215  0.00  0.00    +0.000 A 
ATOM     14  C   UNL     1     112.116 132.050 143.897  0.00  0.00    +0.000 A 
ATOM     15  C   UNL     1     111.767 133.316 144.460  0.00  0.00    +0.000 A 
ATOM     16  C   UNL     1     111.963 132.185 145.311  0.00  0.00    +0.000 A 
ATOM     17  C   UNL     1     111.935 132.849 143.801  0.00  0.00    +0.000 A 
ATOM     18  C   UNL     1     112.130 131.718 144.652  0.00  0.00    +0.000 A 
BRANCH  13  19
ATOM     19  O   UNL     1     111.613 133.451 145.874  0.00  0.00    +0.000 OA
BRANCH  19  28
ATOM     20  O   UNL     1     110.195 133.316 145.760  0.00  0.00    +0.000 OA
ATOM     21  O   UNL     1     109.980 133.513 148.218  0.00  0.00    +0.000 OA
ATOM     22  O   UNL     1     108.634 133.313 147.285  0.00  0.00    +0.000 OA
ATOM     23  O   UNL     1     111.470 133.581 147.512  0.00  0.00    +0.000 OA
ATOM     24  C   UNL     1     110.052 133.447 147.399  0.00  0.00    +0.000 C 
ATOM     25  C   UNL     1     109.379 133.348 146.932  0.00  0.00    +0.000 C 
ATOM     26  C   UNL     1     110.796 133.482 147.046  0.00  0.00    +0.000 C 
ATOM     27  C   UNL     1     109.450 133.282 146.113  0.00  0.00    +0.000 C 
ATOM     28  C   UNL     1     110.869 133.416 146.226  0.00  0.00    +0.000 C 
BRANCH  27  31
ATOM     29  O   UNL     1     108.416 133.837 145.297  0.00  0.00    +0.000 OA
ATOM     30  O   UNL     1     108.464 132.428 145.530  0.00  0.00    +0.000 OA
ATOM     31  C   UNL     1     108.777 133.182 145.647  0.00  0.00    +0.000 C 
ENDBRANCH  27  31
ENDBRANCH  19  28
ENDBRANCH  13  19
ENDBRANCH  10  14
BRANCH   4  32
ATOM     32  O   UNL     1     110.927 128.961 141.088  0.00  0.00    +0.000 OA
BRANCH  32  39
ATOM     33  O   UNL     1     110.198 129.944 140.350  0.00  0.00    +0.000 OA
ATOM     34  O   UNL     1     109.325 128.174 138.856  0.00  0.00    +0.000 OA
ATOM     35  O   UNL     1     108.887 129.746 138.616  0.00  0.00    +0.000 OA
ATOM     36  C   UNL     1     110.126 128.567 139.972  0.00  0.00    +0.000 C 
ATOM     37  C   UNL     1     109.616 128.764 139.354  0.00  0.00    +0.000 C 
ATOM     38  C   UNL     1     109.397 129.549 139.233  0.00  0.00    +0.000 C 
ATOM     39  C   UNL     1     110.417 129.157 140.470  0.00  0.00    +0.000 C 
ATOM     40  C   UNL     1     109.688 130.139 139.731  0.00  0.00    +0.000 C 
BRANCH  40  43
ATOM     41  O   UNL     1     109.913 131.404 139.106  0.00  0.00    +0.000 OA
ATOM     42  O   UNL     1     108.808 131.233 139.997  0.00  0.00    +0.000 OA
ATOM     43  C   UNL     1     109.469 130.926 139.612  0.00  0.00    +0.000 C 
ENDBRANCH  40  43
BRANCH  36  44
ATOM     44  O   UNL     1     110.345 127.781 140.092  0.00  0.00    +0.000 OA
BRANCH  44  49
ATOM     45  O   UNL     1     109.228 127.589 140.962  0.00  0.00    +0.000 OA
ATOM     46  O   UNL     1     110.627 126.155 140.097  0.00  0.00    +0.000 OA
ATOM     47  O   UNL     1     109.651 125.151 140.970  0.00  0.00    +0.000 OA
ATOM     48  O   UNL     1     108.393 125.773 141.837  0.00  0.00    +0.000 OA
ATOM     49  C   UNL     1     109.857 127.279 140.528  0.00  0.00    +0.000 C 
ATOM     50  C   UNL     1     109.998 126.466 140.531  0.00  0.00    +0.000 C 
ATOM     51  C   UNL     1     109.510 125.964 140.967  0.00  0.00    +0.000 C 
ATOM     52  C   UNL     1     108.881 126.275 141.401  0.00  0.00    +0.000 C 
ATOM     53  C   UNL     1     108.739 127.087 141.398  0.00  0.00    +0.000 C 
BRANCH  53  56
ATOM     54  O   UNL     1     107.371 127.490 141.478  0.00  0.00    +0.000 OA
ATOM     55  O   UNL     1     108.220 127.619 142.619  0.00  0.00    +0.000 OA
ATOM     56  C   UNL     1     108.110 127.399 141.832  0.00  0.00    +0.000 C 
ENDBRANCH  53  56
ENDBRANCH  44  49
ENDBRANCH  36  44
ENDBRANCH  32  39
ENDBRANCH   4  32
TORSDOF 10
ENDMDL
MODEL 10
REMARK VINA RESULT:     -10.2      7.090      9.361
REMARK  Name = 131752324
REMARK  10 active torsions:
REMARK  status: ('A' for Active; 'I' for Inactive)
REMARK    1  A    between atoms: O_1  and  C_24
REMARK    2  A    between atoms: O_1  and  C_26
REMARK    3  A    between atoms: O_5  and  C_29
REMARK    4  A    between atoms: O_5  and  C_41
REMARK    5  A    between atoms: O_12  and  C_40
REMARK    6  A    between atoms: O_12  and  C_48
REMARK    7  A    between atoms: C_32  and  C_34
REMARK    8  A    between atoms: C_33  and  C_36
REMARK    9  A    between atoms: C_39  and  C_42
REMARK   10  A    between atoms: C_49  and  C_51
REMARK                            x       y       z     vdW  Elec       q    Type
REMARK                         _______ _______ _______ _____ _____    ______ ____
ROOT
ATOM      1  O   UNL     1     110.952 128.281 140.194  0.00  0.00    +0.000 OA
ATOM      2  O   UNL     1     110.646 125.992 138.458  0.00  0.00    +0.000 OA
ATOM      3  O   UNL     1     111.020 125.831 139.842  0.00  0.00    +0.000 OA
ATOM      4  C   UNL     1     110.391 128.176 138.034  0.00  0.00    +0.000 A 
ATOM      5  C   UNL     1     110.573 128.499 138.809  0.00  0.00    +0.000 A 
ATOM      6  C   UNL     1     110.414 127.327 137.911  0.00  0.00    +0.000 A 
ATOM      7  C   UNL     1     110.778 127.965 139.453  0.00  0.00    +0.000 A 
ATOM      8  C   UNL     1     110.621 126.809 138.567  0.00  0.00    +0.000 A 
ATOM      9  C   UNL     1     110.800 127.149 139.335  0.00  0.00    +0.000 A 
ATOM     10  C   UNL     1     111.149 127.779 140.819  0.00  0.00    +0.000 A 
ATOM     11  C   UNL     1     110.997 126.648 139.959  0.00  0.00    +0.000 A 
ATOM     12  C   UNL     1     111.172 126.962 140.702  0.00  0.00    +0.000 A 
ENDROOT
BRANCH  10  14
ATOM     13  C   UNL     1     111.673 128.723 143.046  0.00  0.00    +0.000 A 
ATOM     14  C   UNL     1     111.324 128.094 141.561  0.00  0.00    +0.000 A 
ATOM     15  C   UNL     1     110.891 128.558 142.842  0.00  0.00    +0.000 A 
ATOM     16  C   UNL     1     112.280 128.574 142.508  0.00  0.00    +0.000 A 
ATOM     17  C   UNL     1     110.716 128.243 142.099  0.00  0.00    +0.000 A 
ATOM     18  C   UNL     1     112.106 128.259 141.766  0.00  0.00    +0.000 A 
BRANCH  13  19
ATOM     19  O   UNL     1     111.847 129.038 143.789  0.00  0.00    +0.000 OA
BRANCH  19  28
ATOM     20  O   UNL     1     111.937 130.395 143.353  0.00  0.00    +0.000 OA
ATOM     21  O   UNL     1     111.020 131.152 145.524  0.00  0.00    +0.000 OA
ATOM     22  O   UNL     1     111.415 132.257 144.365  0.00  0.00    +0.000 OA
ATOM     23  O   UNL     1     111.236 129.542 145.235  0.00  0.00    +0.000 OA
ATOM     24  C   UNL     1     111.326 130.900 144.800  0.00  0.00    +0.000 C 
ATOM     25  C   UNL     1     111.524 131.452 144.221  0.00  0.00    +0.000 C 
ATOM     26  C   UNL     1     111.434 130.095 144.656  0.00  0.00    +0.000 C 
ATOM     27  C   UNL     1     111.829 131.200 143.497  0.00  0.00    +0.000 C 
ATOM     28  C   UNL     1     111.740 129.842 143.932  0.00  0.00    +0.000 C 
BRANCH  27  31
ATOM     29  O   UNL     1     111.447 132.040 142.406  0.00  0.00    +0.000 OA
ATOM     30  O   UNL     1     112.804 132.021 142.851  0.00  0.00    +0.000 OA
ATOM     31  C   UNL     1     112.027 131.754 142.918  0.00  0.00    +0.000 C 
ENDBRANCH  27  31
ENDBRANCH  19  28
ENDBRANCH  13  19
ENDBRANCH  10  14
BRANCH   4  32
ATOM     32  O   UNL     1     110.194 128.680 137.411  0.00  0.00    +0.000 OA
BRANCH  32  39
ATOM     33  O   UNL     1     111.562 128.815 137.021  0.00  0.00    +0.000 OA
ATOM     34  O   UNL     1     110.848 129.564 134.773  0.00  0.00    +0.000 OA
ATOM     35  O   UNL     1     112.453 129.449 135.133  0.00  0.00    +0.000 OA
ATOM     36  C   UNL     1     110.520 129.122 136.092  0.00  0.00    +0.000 C 
ATOM     37  C   UNL     1     111.086 129.314 135.523  0.00  0.00    +0.000 C 
ATOM     38  C   UNL     1     111.889 129.257 135.702  0.00  0.00    +0.000 C 
ATOM     39  C   UNL     1     110.758 128.872 136.841  0.00  0.00    +0.000 C 
ATOM     40  C   UNL     1     112.127 129.007 136.452  0.00  0.00    +0.000 C 
BRANCH  40  43
ATOM     41  O   UNL     1     113.340 128.253 136.465  0.00  0.00    +0.000 OA
ATOM     42  O   UNL     1     113.321 129.587 136.980  0.00  0.00    +0.000 OA
ATOM     43  C   UNL     1     112.929 128.950 136.632  0.00  0.00    +0.000 C 
ENDBRANCH  40  43
BRANCH  36  44
ATOM     44  O   UNL     1     109.718 129.180 135.912  0.00  0.00    +0.000 OA
BRANCH  44  49
ATOM     45  O   UNL     1     109.734 130.561 136.278  0.00  0.00    +0.000 OA
ATOM     46  O   UNL     1     108.096 129.275 135.624  0.00  0.00    +0.000 OA
ATOM     47  O   UNL     1     107.301 130.704 135.846  0.00  0.00    +0.000 OA
ATOM     48  O   UNL     1     108.129 132.038 136.356  0.00  0.00    +0.000 OA
ATOM     49  C   UNL     1     109.321 129.894 136.023  0.00  0.00    +0.000 C 
ATOM     50  C   UNL     1     108.509 129.942 135.879  0.00  0.00    +0.000 C 
ATOM     51  C   UNL     1     108.112 130.657 135.990  0.00  0.00    +0.000 C 
ATOM     52  C   UNL     1     108.526 131.323 136.245  0.00  0.00    +0.000 C 
ATOM     53  C   UNL     1     109.336 131.276 136.389  0.00  0.00    +0.000 C 
BRANCH  53  56
ATOM     54  O   UNL     1     110.035 132.486 136.093  0.00  0.00    +0.000 OA
ATOM     55  O   UNL     1     109.880 132.065 137.449  0.00  0.00    +0.000 OA
ATOM     56  C   UNL     1     109.751 131.942 136.644  0.00  0.00    +0.000 C 
ENDBRANCH  53  56
ENDBRANCH  44  49
ENDBRANCH  36  44
ENDBRANCH  32  39
ENDBRANCH   4  32
TORSDOF 10
ENDMDL
