MODEL 1
REMARK VINA RESULT:      -9.2      0.000      0.000
REMARK  Name = 44258396
REMARK  9 active torsions:
REMARK  status: ('A' for Active; 'I' for Inactive)
REMARK    1  A    between atoms: O_1  and  C_16
REMARK    2  A    between atoms: O_1  and  C_21
REMARK    3  A    between atoms: O_4  and  C_19
REMARK    4  A    between atoms: O_4  and  C_27
REMARK    5  A    between atoms: O_11  and  C_31
REMARK    6  A    between atoms: O_13  and  C_40
REMARK    7  A    between atoms: O_14  and  C_41
REMARK    8  A    between atoms: O_15  and  C_42
REMARK    9  A    between atoms: C_35  and  C_36
REMARK                            x       y       z     vdW  Elec       q    Type
REMARK                         _______ _______ _______ _____ _____    ______ ____
ROOT
ATOM      1  O   UNL     1     112.770 127.617 137.613  0.00  0.00    +0.000 OA
ATOM      2  O   UNL     1     112.765 127.750 140.084  0.00  0.00    +0.000 OA
ATOM      3  C   UNL     1     112.819 129.156 139.211  0.00  0.00    +0.000 A 
ATOM      4  C   UNL     1     112.794 128.397 138.810  0.00  0.00    +0.000 A 
ATOM      5  C   UNL     1     112.847 129.880 138.747  0.00  0.00    +0.000 A 
ATOM      6  C   UNL     1     112.795 128.352 137.986  0.00  0.00    +0.000 A 
ATOM      7  C   UNL     1     112.849 129.834 137.889  0.00  0.00    +0.000 A 
ATOM      8  C   UNL     1     112.767 127.706 139.260  0.00  0.00    +0.000 A 
ATOM      9  C   UNL     1     112.823 129.064 137.507  0.00  0.00    +0.000 A 
ATOM     10  C   UNL     1     112.742 126.971 138.887  0.00  0.00    +0.000 A 
ATOM     11  C   UNL     1     112.743 126.926 138.063  0.00  0.00    +0.000 A 
ENDROOT
BRANCH  11  12
ATOM     12  C   UNL     1     112.718 126.191 137.689  0.00  0.00    +0.000 A 
ATOM     13  C   UNL     1     112.018 125.927 137.344  0.00  0.00    +0.000 A 
ATOM     14  C   UNL     1     113.396 125.721 137.659  0.00  0.00    +0.000 A 
ATOM     15  C   UNL     1     113.372 124.986 137.285  0.00  0.00    +0.000 A 
ATOM     16  C   UNL     1     111.993 125.192 136.970  0.00  0.00    +0.000 A 
ATOM     17  C   UNL     1     112.670 124.722 136.941  0.00  0.00    +0.000 A 
BRANCH  15  18
ATOM     18  O   UNL     1     114.049 124.516 137.256  0.00  0.00    +0.000 OA
ATOM     19  C   UNL     1     114.796 124.867 137.280  0.00  0.00    +0.000 C 
ENDBRANCH  15  18
BRANCH  16  20
ATOM     20  O   UNL     1     111.291 124.928 136.625  0.00  0.00    +0.000 OA
ATOM     21  C   UNL     1     110.769 125.468 136.287  0.00  0.00    +0.000 C 
ENDBRANCH  16  20
BRANCH  17  22
ATOM     22  O   UNL     1     112.646 123.987 136.566  0.00  0.00    +0.000 OA
ATOM     23  C   UNL     1     112.369 123.326 136.975  0.00  0.00    +0.000 C 
ENDBRANCH  17  22
ENDBRANCH  11  12
BRANCH   7  24
ATOM     24  O   UNL     1     112.875 130.523 137.436  0.00  0.00    +0.000 OA
ATOM     25  C   UNL     1     112.176 130.908 137.230  0.00  0.00    +0.000 C 
ENDBRANCH   7  24
BRANCH   3  26
ATOM     26  O   UNL     1     112.817 129.191 140.035  0.00  0.00    +0.000 OA
BRANCH  26  33
ATOM     27  O   UNL     1     114.110 129.753 140.272  0.00  0.00    +0.000 OA
ATOM     28  O   UNL     1     113.126 131.328 141.908  0.00  0.00    +0.000 OA
ATOM     29  O   UNL     1     114.746 131.365 141.599  0.00  0.00    +0.000 OA
ATOM     30  C   UNL     1     112.972 130.259 140.971  0.00  0.00    +0.000 C 
ATOM     31  C   UNL     1     113.454 130.803 141.362  0.00  0.00    +0.000 C 
ATOM     32  C   UNL     1     114.264 130.821 141.207  0.00  0.00    +0.000 C 
ATOM     33  C   UNL     1     113.300 129.735 140.426  0.00  0.00    +0.000 C 
ATOM     34  C   UNL     1     114.592 130.296 140.662  0.00  0.00    +0.000 C 
ATOM     35  C   UNL     1     115.402 130.315 140.508  0.00  0.00    +0.000 C 
BRANCH  30  36
ATOM     36  O   UNL     1     112.161 130.241 141.126  0.00  0.00    +0.000 OA
BRANCH  36  41
ATOM     37  O   UNL     1     112.402 129.473 142.307  0.00  0.00    +0.000 OA
ATOM     38  O   UNL     1     110.558 130.325 141.506  0.00  0.00    +0.000 OA
ATOM     39  O   UNL     1     109.996 129.599 142.877  0.00  0.00    +0.000 OA
ATOM     40  O   UNL     1     111.037 128.789 143.868  0.00  0.00    +0.000 OA
ATOM     41  C   UNL     1     111.880 129.878 141.812  0.00  0.00    +0.000 C 
ATOM     42  C   UNL     1     111.079 129.920 142.001  0.00  0.00    +0.000 C 
ATOM     43  C   UNL     1     110.798 129.557 142.687  0.00  0.00    +0.000 C 
ATOM     44  C   UNL     1     111.318 129.152 143.183  0.00  0.00    +0.000 C 
ATOM     45  C   UNL     1     112.121 129.110 142.992  0.00  0.00    +0.000 C 
ENDBRANCH  36  41
ENDBRANCH  30  36
ENDBRANCH  26  33
ENDBRANCH   3  26
TORSDOF 9
ENDMDL
MODEL 2
REMARK VINA RESULT:      -9.0      6.661      9.824
REMARK  Name = 44258396
REMARK  9 active torsions:
REMARK  status: ('A' for Active; 'I' for Inactive)
REMARK    1  A    between atoms: O_1  and  C_16
REMARK    2  A    between atoms: O_1  and  C_21
REMARK    3  A    between atoms: O_4  and  C_19
REMARK    4  A    between atoms: O_4  and  C_27
REMARK    5  A    between atoms: O_11  and  C_31
REMARK    6  A    between atoms: O_13  and  C_40
REMARK    7  A    between atoms: O_14  and  C_41
REMARK    8  A    between atoms: O_15  and  C_42
REMARK    9  A    between atoms: C_35  and  C_36
REMARK                            x       y       z     vdW  Elec       q    Type
REMARK                         _______ _______ _______ _____ _____    ______ ____
ROOT
ATOM      1  O   UNL     1     104.476 128.822 142.731  0.00  0.00    +0.000 OA
ATOM      2  O   UNL     1     104.963 127.236 140.894  0.00  0.00    +0.000 OA
ATOM      3  C   UNL     1     105.592 126.932 142.395  0.00  0.00    +0.000 A 
ATOM      4  C   UNL     1     105.106 127.628 142.261  0.00  0.00    +0.000 A 
ATOM      5  C   UNL     1     105.913 126.785 143.180  0.00  0.00    +0.000 A 
ATOM      6  C   UNL     1     104.944 128.157 142.873  0.00  0.00    +0.000 A 
ATOM      7  C   UNL     1     105.744 127.336 143.817  0.00  0.00    +0.000 A 
ATOM      8  C   UNL     1     104.801 127.764 141.506  0.00  0.00    +0.000 A 
ATOM      9  C   UNL     1     105.256 128.027 143.662  0.00  0.00    +0.000 A 
ATOM     10  C   UNL     1     104.333 128.429 141.364  0.00  0.00    +0.000 A 
ATOM     11  C   UNL     1     104.171 128.958 141.976  0.00  0.00    +0.000 A 
ENDROOT
BRANCH  11  12
ATOM     12  C   UNL     1     103.703 129.623 141.835  0.00  0.00    +0.000 A 
ATOM     13  C   UNL     1     103.017 129.557 141.384  0.00  0.00    +0.000 A 
ATOM     14  C   UNL     1     103.924 130.355 142.145  0.00  0.00    +0.000 A 
ATOM     15  C   UNL     1     103.457 131.020 142.004  0.00  0.00    +0.000 A 
ATOM     16  C   UNL     1     102.549 130.222 141.243  0.00  0.00    +0.000 A 
ATOM     17  C   UNL     1     102.770 130.953 141.553  0.00  0.00    +0.000 A 
BRANCH  15  18
ATOM     18  O   UNL     1     103.678 131.752 142.315  0.00  0.00    +0.000 OA
ATOM     19  C   UNL     1     104.474 131.916 142.459  0.00  0.00    +0.000 C 
ENDBRANCH  15  18
BRANCH  16  20
ATOM     20  O   UNL     1     101.862 130.155 140.791  0.00  0.00    +0.000 OA
ATOM     21  C   UNL     1     101.838 129.637 140.151  0.00  0.00    +0.000 C 
ENDBRANCH  16  20
BRANCH  17  22
ATOM     22  O   UNL     1     102.303 131.619 141.412  0.00  0.00    +0.000 OA
ATOM     23  C   UNL     1     101.697 131.816 141.937  0.00  0.00    +0.000 C 
ENDBRANCH  17  22
ENDBRANCH  11  12
BRANCH   7  24
ATOM     24  O   UNL     1     106.047 127.203 144.573  0.00  0.00    +0.000 OA
ATOM     25  C   UNL     1     105.663 126.685 145.086  0.00  0.00    +0.000 C 
ENDBRANCH   7  24
BRANCH   3  26
ATOM     26  O   UNL     1     105.749 126.409 141.777  0.00  0.00    +0.000 OA
BRANCH  26  33
ATOM     27  O   UNL     1     107.124 126.710 141.534  0.00  0.00    +0.000 OA
ATOM     28  O   UNL     1     107.635 124.291 141.426  0.00  0.00    +0.000 OA
ATOM     29  O   UNL     1     108.840 125.398 141.219  0.00  0.00    +0.000 OA
ATOM     30  C   UNL     1     106.692 125.351 141.602  0.00  0.00    +0.000 C 
ATOM     31  C   UNL     1     107.465 125.097 141.462  0.00  0.00    +0.000 C 
ATOM     32  C   UNL     1     108.067 125.651 141.358  0.00  0.00    +0.000 C 
ATOM     33  C   UNL     1     106.522 126.157 141.638  0.00  0.00    +0.000 C 
ATOM     34  C   UNL     1     107.897 126.458 141.394  0.00  0.00    +0.000 C 
ATOM     35  C   UNL     1     108.500 127.011 141.290  0.00  0.00    +0.000 C 
BRANCH  30  36
ATOM     36  O   UNL     1     106.089 124.796 141.705  0.00  0.00    +0.000 OA
BRANCH  36  41
ATOM     37  O   UNL     1     105.988 124.634 140.290  0.00  0.00    +0.000 OA
ATOM     38  O   UNL     1     105.017 123.561 141.924  0.00  0.00    +0.000 OA
ATOM     39  O   UNL     1     104.379 122.781 140.618  0.00  0.00    +0.000 OA
ATOM     40  O   UNL     1     104.813 123.236 139.092  0.00  0.00    +0.000 OA
ATOM     41  C   UNL     1     105.770 124.406 141.052  0.00  0.00    +0.000 C 
ATOM     42  C   UNL     1     105.234 123.789 141.162  0.00  0.00    +0.000 C 
ATOM     43  C   UNL     1     104.915 123.399 140.508  0.00  0.00    +0.000 C 
ATOM     44  C   UNL     1     105.132 123.626 139.746  0.00  0.00    +0.000 C 
ATOM     45  C   UNL     1     105.669 124.244 139.636  0.00  0.00    +0.000 C 
ENDBRANCH  36  41
ENDBRANCH  30  36
ENDBRANCH  26  33
ENDBRANCH   3  26
TORSDOF 9
ENDMDL
MODEL 3
REMARK VINA RESULT:      -9.0      1.413      2.581
REMARK  Name = 44258396
REMARK  9 active torsions:
REMARK  status: ('A' for Active; 'I' for Inactive)
REMARK    1  A    between atoms: O_1  and  C_16
REMARK    2  A    between atoms: O_1  and  C_21
REMARK    3  A    between atoms: O_4  and  C_19
REMARK    4  A    between atoms: O_4  and  C_27
REMARK    5  A    between atoms: O_11  and  C_31
REMARK    6  A    between atoms: O_13  and  C_40
REMARK    7  A    between atoms: O_14  and  C_41
REMARK    8  A    between atoms: O_15  and  C_42
REMARK    9  A    between atoms: C_35  and  C_36
REMARK                            x       y       z     vdW  Elec       q    Type
REMARK                         _______ _______ _______ _____ _____    ______ ____
ROOT
ATOM      1  O   UNL     1     112.630 127.660 137.056  0.00  0.00    +0.000 OA
ATOM      2  O   UNL     1     111.319 128.111 139.106  0.00  0.00    +0.000 OA
ATOM      3  C   UNL     1     111.997 129.387 138.298  0.00  0.00    +0.000 A 
ATOM      4  C   UNL     1     112.101 128.585 138.007  0.00  0.00    +0.000 A 
ATOM      5  C   UNL     1     112.354 130.042 137.869  0.00  0.00    +0.000 A 
ATOM      6  C   UNL     1     112.537 128.434 137.324  0.00  0.00    +0.000 A 
ATOM      7  C   UNL     1     112.809 129.885 137.158  0.00  0.00    +0.000 A 
ATOM      8  C   UNL     1     111.756 127.961 138.423  0.00  0.00    +0.000 A 
ATOM      9  C   UNL     1     112.901 129.076 136.883  0.00  0.00    +0.000 A 
ATOM     10  C   UNL     1     111.848 127.186 138.155  0.00  0.00    +0.000 A 
ATOM     11  C   UNL     1     112.285 127.035 137.471  0.00  0.00    +0.000 A 
ENDROOT
BRANCH  11  12
ATOM     12  C   UNL     1     112.377 126.261 137.202  0.00  0.00    +0.000 A 
ATOM     13  C   UNL     1     113.052 125.832 137.403  0.00  0.00    +0.000 A 
ATOM     14  C   UNL     1     111.794 125.915 136.732  0.00  0.00    +0.000 A 
ATOM     15  C   UNL     1     111.886 125.141 136.462  0.00  0.00    +0.000 A 
ATOM     16  C   UNL     1     113.145 125.057 137.134  0.00  0.00    +0.000 A 
ATOM     17  C   UNL     1     112.561 124.713 136.664  0.00  0.00    +0.000 A 
BRANCH  15  18
ATOM     18  O   UNL     1     111.302 124.797 135.992  0.00  0.00    +0.000 OA
ATOM     19  C   UNL     1     110.772 125.274 135.577  0.00  0.00    +0.000 C 
ENDBRANCH  15  18
BRANCH  16  20
ATOM     20  O   UNL     1     113.820 124.628 137.335  0.00  0.00    +0.000 OA
ATOM     21  C   UNL     1     114.535 125.019 137.458  0.00  0.00    +0.000 C 
ENDBRANCH  16  20
BRANCH  17  22
ATOM     22  O   UNL     1     112.653 123.938 136.394  0.00  0.00    +0.000 OA
ATOM     23  C   UNL     1     112.334 123.311 136.826  0.00  0.00    +0.000 C 
ENDBRANCH  17  22
ENDBRANCH  11  12
BRANCH   7  24
ATOM     24  O   UNL     1     113.155 130.507 136.740  0.00  0.00    +0.000 OA
ATOM     25  C   UNL     1     113.909 130.771 136.943  0.00  0.00    +0.000 C 
ENDBRANCH   7  24
BRANCH   3  26
ATOM     26  O   UNL     1     111.558 129.528 138.982  0.00  0.00    +0.000 OA
BRANCH  26  33
ATOM     27  O   UNL     1     110.380 130.102 138.412  0.00  0.00    +0.000 OA
ATOM     28  O   UNL     1     110.412 131.878 140.136  0.00  0.00    +0.000 OA
ATOM     29  O   UNL     1     109.223 131.860 138.992  0.00  0.00    +0.000 OA
ATOM     30  C   UNL     1     110.985 130.703 139.558  0.00  0.00    +0.000 C 
ATOM     31  C   UNL     1     110.401 131.286 139.561  0.00  0.00    +0.000 C 
ATOM     32  C   UNL     1     109.807 131.277 138.989  0.00  0.00    +0.000 C 
ATOM     33  C   UNL     1     110.974 130.111 138.984  0.00  0.00    +0.000 C 
ATOM     34  C   UNL     1     109.797 130.685 138.415  0.00  0.00    +0.000 C 
ATOM     35  C   UNL     1     109.202 130.676 137.843  0.00  0.00    +0.000 C 
BRANCH  30  36
ATOM     36  O   UNL     1     111.580 130.712 140.131  0.00  0.00    +0.000 OA
BRANCH  36  41
ATOM     37  O   UNL     1     110.694 130.093 141.065  0.00  0.00    +0.000 OA
ATOM     38  O   UNL     1     112.726 130.851 141.309  0.00  0.00    +0.000 OA
ATOM     39  O   UNL     1     112.414 130.300 142.833  0.00  0.00    +0.000 OA
ATOM     40  O   UNL     1     110.955 129.612 143.178  0.00  0.00    +0.000 OA
ATOM     41  C   UNL     1     111.424 130.437 140.893  0.00  0.00    +0.000 C 
ATOM     42  C   UNL     1     111.997 130.506 141.481  0.00  0.00    +0.000 C 
ATOM     43  C   UNL     1     111.840 130.231 142.243  0.00  0.00    +0.000 C 
ATOM     44  C   UNL     1     111.111 129.887 142.417  0.00  0.00    +0.000 C 
ATOM     45  C   UNL     1     110.537 129.818 141.827  0.00  0.00    +0.000 C 
ENDBRANCH  36  41
ENDBRANCH  30  36
ENDBRANCH  26  33
ENDBRANCH   3  26
TORSDOF 9
ENDMDL
MODEL 4
REMARK VINA RESULT:      -8.9      1.415      2.362
REMARK  Name = 44258396
REMARK  9 active torsions:
REMARK  status: ('A' for Active; 'I' for Inactive)
REMARK    1  A    between atoms: O_1  and  C_16
REMARK    2  A    between atoms: O_1  and  C_21
REMARK    3  A    between atoms: O_4  and  C_19
REMARK    4  A    between atoms: O_4  and  C_27
REMARK    5  A    between atoms: O_11  and  C_31
REMARK    6  A    between atoms: O_13  and  C_40
REMARK    7  A    between atoms: O_14  and  C_41
REMARK    8  A    between atoms: O_15  and  C_42
REMARK    9  A    between atoms: C_35  and  C_36
REMARK                            x       y       z     vdW  Elec       q    Type
REMARK                         _______ _______ _______ _____ _____    ______ ____
ROOT
ATOM      1  O   UNL     1     112.687 127.646 137.018  0.00  0.00    +0.000 OA
ATOM      2  O   UNL     1     111.323 128.170 139.016  0.00  0.00    +0.000 OA
ATOM      3  C   UNL     1     112.047 129.414 138.197  0.00  0.00    +0.000 A 
ATOM      4  C   UNL     1     112.146 128.604 137.930  0.00  0.00    +0.000 A 
ATOM      5  C   UNL     1     112.429 130.052 137.764  0.00  0.00    +0.000 A 
ATOM      6  C   UNL     1     112.600 128.428 137.264  0.00  0.00    +0.000 A 
ATOM      7  C   UNL     1     112.902 129.869 137.071  0.00  0.00    +0.000 A 
ATOM      8  C   UNL     1     111.777 127.996 138.350  0.00  0.00    +0.000 A 
ATOM      9  C   UNL     1     112.988 129.052 136.820  0.00  0.00    +0.000 A 
ATOM     10  C   UNL     1     111.864 127.213 138.104  0.00  0.00    +0.000 A 
ATOM     11  C   UNL     1     112.318 127.038 137.438  0.00  0.00    +0.000 A 
ENDROOT
BRANCH  11  12
ATOM     12  C   UNL     1     112.405 126.255 137.191  0.00  0.00    +0.000 A 
ATOM     13  C   UNL     1     111.823 125.901 136.727  0.00  0.00    +0.000 A 
ATOM     14  C   UNL     1     113.076 125.827 137.409  0.00  0.00    +0.000 A 
ATOM     15  C   UNL     1     113.164 125.044 137.163  0.00  0.00    +0.000 A 
ATOM     16  C   UNL     1     111.910 125.119 136.480  0.00  0.00    +0.000 A 
ATOM     17  C   UNL     1     112.581 124.691 136.698  0.00  0.00    +0.000 A 
BRANCH  15  18
ATOM     18  O   UNL     1     113.834 124.617 137.381  0.00  0.00    +0.000 OA
ATOM     19  C   UNL     1     114.557 125.004 137.479  0.00  0.00    +0.000 C 
ENDBRANCH  15  18
BRANCH  16  20
ATOM     20  O   UNL     1     111.327 124.765 136.016  0.00  0.00    +0.000 OA
ATOM     21  C   UNL     1     110.835 125.231 135.548  0.00  0.00    +0.000 C 
ENDBRANCH  16  20
BRANCH  17  22
ATOM     22  O   UNL     1     112.669 123.908 136.452  0.00  0.00    +0.000 OA
ATOM     23  C   UNL     1     112.320 123.298 136.885  0.00  0.00    +0.000 C 
ENDBRANCH  17  22
ENDBRANCH  11  12
BRANCH   7  24
ATOM     24  O   UNL     1     113.272 130.475 136.649  0.00  0.00    +0.000 OA
ATOM     25  C   UNL     1     114.052 130.678 136.818  0.00  0.00    +0.000 C 
ENDBRANCH   7  24
BRANCH   3  26
ATOM     26  O   UNL     1     111.591 129.580 138.864  0.00  0.00    +0.000 OA
BRANCH  26  33
ATOM     27  O   UNL     1     110.443 130.164 138.245  0.00  0.00    +0.000 OA
ATOM     28  O   UNL     1     110.457 131.977 139.929  0.00  0.00    +0.000 OA
ATOM     29  O   UNL     1     109.304 131.956 138.748  0.00  0.00    +0.000 OA
ATOM     30  C   UNL     1     111.023 130.778 139.396  0.00  0.00    +0.000 C 
ATOM     31  C   UNL     1     110.452 131.373 139.367  0.00  0.00    +0.000 C 
ATOM     32  C   UNL     1     109.876 131.362 138.777  0.00  0.00    +0.000 C 
ATOM     33  C   UNL     1     111.019 130.174 138.835  0.00  0.00    +0.000 C 
ATOM     34  C   UNL     1     109.872 130.757 138.216  0.00  0.00    +0.000 C 
ATOM     35  C   UNL     1     109.295 130.747 137.626  0.00  0.00    +0.000 C 
BRANCH  30  36
ATOM     36  O   UNL     1     111.600 130.789 139.987  0.00  0.00    +0.000 OA
BRANCH  36  41
ATOM     37  O   UNL     1     110.673 130.208 140.906  0.00  0.00    +0.000 OA
ATOM     38  O   UNL     1     112.708 130.943 141.200  0.00  0.00    +0.000 OA
ATOM     39  O   UNL     1     112.335 130.439 142.726  0.00  0.00    +0.000 OA
ATOM     40  O   UNL     1     110.855 129.781 143.039  0.00  0.00    +0.000 OA
ATOM     41  C   UNL     1     111.414 130.537 140.750  0.00  0.00    +0.000 C 
ATOM     42  C   UNL     1     111.967 130.614 141.356  0.00  0.00    +0.000 C 
ATOM     43  C   UNL     1     111.781 130.362 142.119  0.00  0.00    +0.000 C 
ATOM     44  C   UNL     1     111.041 130.033 142.276  0.00  0.00    +0.000 C 
ATOM     45  C   UNL     1     110.487 129.956 141.669  0.00  0.00    +0.000 C 
ENDBRANCH  36  41
ENDBRANCH  30  36
ENDBRANCH  26  33
ENDBRANCH   3  26
TORSDOF 9
ENDMDL
MODEL 5
REMARK VINA RESULT:      -8.9      2.251      4.691
REMARK  Name = 44258396
REMARK  9 active torsions:
REMARK  status: ('A' for Active; 'I' for Inactive)
REMARK    1  A    between atoms: O_1  and  C_16
REMARK    2  A    between atoms: O_1  and  C_21
REMARK    3  A    between atoms: O_4  and  C_19
REMARK    4  A    between atoms: O_4  and  C_27
REMARK    5  A    between atoms: O_11  and  C_31
REMARK    6  A    between atoms: O_13  and  C_40
REMARK    7  A    between atoms: O_14  and  C_41
REMARK    8  A    between atoms: O_15  and  C_42
REMARK    9  A    between atoms: C_35  and  C_36
REMARK                            x       y       z     vdW  Elec       q    Type
REMARK                         _______ _______ _______ _____ _____    ______ ____
ROOT
ATOM      1  O   UNL     1     111.277 129.527 136.573  0.00  0.00    +0.000 OA
ATOM      2  O   UNL     1     111.613 129.999 138.980  0.00  0.00    +0.000 OA
ATOM      3  C   UNL     1     112.729 129.066 138.188  0.00  0.00    +0.000 A 
ATOM      4  C   UNL     1     112.047 129.378 137.768  0.00  0.00    +0.000 A 
ATOM      5  C   UNL     1     113.301 128.583 137.766  0.00  0.00    +0.000 A 
ATOM      6  C   UNL     1     111.935 129.221 136.965  0.00  0.00    +0.000 A 
ATOM      7  C   UNL     1     113.184 128.419 136.931  0.00  0.00    +0.000 A 
ATOM      8  C   UNL     1     111.501 129.842 138.178  0.00  0.00    +0.000 A 
ATOM      9  C   UNL     1     112.496 128.741 136.528  0.00  0.00    +0.000 A 
ATOM     10  C   UNL     1     110.843 130.147 137.786  0.00  0.00    +0.000 A 
ATOM     11  C   UNL     1     110.730 129.990 136.984  0.00  0.00    +0.000 A 
ENDROOT
BRANCH  11  12
ATOM     12  C   UNL     1     110.072 130.296 136.591  0.00  0.00    +0.000 A 
ATOM     13  C   UNL     1     110.015 131.105 136.447  0.00  0.00    +0.000 A 
ATOM     14  C   UNL     1     109.470 129.789 136.340  0.00  0.00    +0.000 A 
ATOM     15  C   UNL     1     108.812 130.094 135.948  0.00  0.00    +0.000 A 
ATOM     16  C   UNL     1     109.357 131.411 136.054  0.00  0.00    +0.000 A 
ATOM     17  C   UNL     1     108.756 130.905 135.805  0.00  0.00    +0.000 A 
BRANCH  15  18
ATOM     18  O   UNL     1     108.211 129.588 135.698  0.00  0.00    +0.000 OA
ATOM     19  C   UNL     1     108.342 128.773 135.668  0.00  0.00    +0.000 C 
ENDBRANCH  15  18
BRANCH  16  20
ATOM     20  O   UNL     1     109.301 132.221 135.912  0.00  0.00    +0.000 OA
ATOM     21  C   UNL     1     109.932 132.717 136.099  0.00  0.00    +0.000 C 
ENDBRANCH  16  20
BRANCH  17  22
ATOM     22  O   UNL     1     108.097 131.209 135.412  0.00  0.00    +0.000 OA
ATOM     23  C   UNL     1     107.461 131.508 135.844  0.00  0.00    +0.000 C 
ENDBRANCH  17  22
ENDBRANCH  11  12
BRANCH   7  24
ATOM     24  O   UNL     1     113.729 127.956 136.518  0.00  0.00    +0.000 OA
ATOM     25  C   UNL     1     113.573 127.158 136.383  0.00  0.00    +0.000 C 
ENDBRANCH   7  24
BRANCH   3  26
ATOM     26  O   UNL     1     112.833 129.229 138.990  0.00  0.00    +0.000 OA
BRANCH  26  33
ATOM     27  O   UNL     1     112.509 127.965 139.575  0.00  0.00    +0.000 OA
ATOM     28  O   UNL     1     114.552 128.088 140.968  0.00  0.00    +0.000 OA
ATOM     29  O   UNL     1     113.548 126.784 141.088  0.00  0.00    +0.000 OA
ATOM     30  C   UNL     1     113.692 128.658 139.979  0.00  0.00    +0.000 C 
ATOM     31  C   UNL     1     113.871 128.047 140.503  0.00  0.00    +0.000 C 
ATOM     32  C   UNL     1     113.369 127.395 140.563  0.00  0.00    +0.000 C 
ATOM     33  C   UNL     1     113.011 128.617 139.514  0.00  0.00    +0.000 C 
ATOM     34  C   UNL     1     112.688 127.355 140.099  0.00  0.00    +0.000 C 
ATOM     35  C   UNL     1     112.186 126.702 140.160  0.00  0.00    +0.000 C 
BRANCH  30  36
ATOM     36  O   UNL     1     114.194 129.310 139.918  0.00  0.00    +0.000 OA
BRANCH  36  41
ATOM     37  O   UNL     1     113.556 129.914 141.045  0.00  0.00    +0.000 OA
ATOM     38  O   UNL     1     115.329 130.508 139.918  0.00  0.00    +0.000 OA
ATOM     39  O   UNL     1     115.258 131.712 141.045  0.00  0.00    +0.000 OA
ATOM     40  O   UNL     1     114.053 131.717 142.172  0.00  0.00    +0.000 OA
ATOM     41  C   UNL     1     114.159 129.912 140.482  0.00  0.00    +0.000 C 
ATOM     42  C   UNL     1     114.726 130.510 140.481  0.00  0.00    +0.000 C 
ATOM     43  C   UNL     1     114.690 131.112 141.045  0.00  0.00    +0.000 C 
ATOM     44  C   UNL     1     114.088 131.115 141.608  0.00  0.00    +0.000 C 
ATOM     45  C   UNL     1     113.520 130.515 141.608  0.00  0.00    +0.000 C 
ENDBRANCH  36  41
ENDBRANCH  30  36
ENDBRANCH  26  33
ENDBRANCH   3  26
TORSDOF 9
ENDMDL
MODEL 6
REMARK VINA RESULT:      -8.9      2.325      4.601
REMARK  Name = 44258396
REMARK  9 active torsions:
REMARK  status: ('A' for Active; 'I' for Inactive)
REMARK    1  A    between atoms: O_1  and  C_16
REMARK    2  A    between atoms: O_1  and  C_21
REMARK    3  A    between atoms: O_4  and  C_19
REMARK    4  A    between atoms: O_4  and  C_27
REMARK    5  A    between atoms: O_11  and  C_31
REMARK    6  A    between atoms: O_13  and  C_40
REMARK    7  A    between atoms: O_14  and  C_41
REMARK    8  A    between atoms: O_15  and  C_42
REMARK    9  A    between atoms: C_35  and  C_36
REMARK                            x       y       z     vdW  Elec       q    Type
REMARK                         _______ _______ _______ _____ _____    ______ ____
ROOT
ATOM      1  O   UNL     1     111.440 130.186 136.540  0.00  0.00    +0.000 OA
ATOM      2  O   UNL     1     111.262 129.785 138.976  0.00  0.00    +0.000 OA
ATOM      3  C   UNL     1     112.524 129.104 138.147  0.00  0.00    +0.000 A 
ATOM      4  C   UNL     1     111.944 129.587 137.735  0.00  0.00    +0.000 A 
ATOM      5  C   UNL     1     113.175 128.757 137.705  0.00  0.00    +0.000 A 
ATOM      6  C   UNL     1     112.003 129.721 136.923  0.00  0.00    +0.000 A 
ATOM      7  C   UNL     1     113.237 128.896 136.860  0.00  0.00    +0.000 A 
ATOM      8  C   UNL     1     111.322 129.918 138.164  0.00  0.00    +0.000 A 
ATOM      9  C   UNL     1     112.646 129.382 136.467  0.00  0.00    +0.000 A 
ATOM     10  C   UNL     1     110.759 130.383 137.781  0.00  0.00    +0.000 A 
ATOM     11  C   UNL     1     110.817 130.518 136.969  0.00  0.00    +0.000 A 
ENDROOT
BRANCH  11  12
ATOM     12  C   UNL     1     110.254 130.983 136.585  0.00  0.00    +0.000 A 
ATOM     13  C   UNL     1     109.585 130.633 136.254  0.00  0.00    +0.000 A 
ATOM     14  C   UNL     1     110.361 131.799 136.532  0.00  0.00    +0.000 A 
ATOM     15  C   UNL     1     109.799 132.265 136.148  0.00  0.00    +0.000 A 
ATOM     16  C   UNL     1     109.022 131.098 135.870  0.00  0.00    +0.000 A 
ATOM     17  C   UNL     1     109.130 131.914 135.818  0.00  0.00    +0.000 A 
BRANCH  15  18
ATOM     18  O   UNL     1     109.906 133.081 136.096  0.00  0.00    +0.000 OA
ATOM     19  C   UNL     1     110.470 133.454 136.569  0.00  0.00    +0.000 C 
ENDBRANCH  15  18
BRANCH  16  20
ATOM     20  O   UNL     1     108.353 130.747 135.539  0.00  0.00    +0.000 OA
ATOM     21  C   UNL     1     108.145 129.978 135.749  0.00  0.00    +0.000 C 
ENDBRANCH  16  20
BRANCH  17  22
ATOM     22  O   UNL     1     108.567 132.380 135.433  0.00  0.00    +0.000 OA
ATOM     23  C   UNL     1     108.588 132.458 134.612  0.00  0.00    +0.000 C 
ENDBRANCH  17  22
ENDBRANCH  11  12
BRANCH   7  24
ATOM     24  O   UNL     1     113.858 128.566 136.428  0.00  0.00    +0.000 OA
ATOM     25  C   UNL     1     113.778 127.815 136.099  0.00  0.00    +0.000 C 
ENDBRANCH   7  24
BRANCH   3  26
ATOM     26  O   UNL     1     112.457 128.976 138.959  0.00  0.00    +0.000 OA
BRANCH  26  33
ATOM     27  O   UNL     1     113.532 129.792 139.429  0.00  0.00    +0.000 OA
ATOM     28  O   UNL     1     114.242 127.977 140.955  0.00  0.00    +0.000 OA
ATOM     29  O   UNL     1     115.080 129.399 140.917  0.00  0.00    +0.000 OA
ATOM     30  C   UNL     1     113.350 128.477 139.957  0.00  0.00    +0.000 C 
ATOM     31  C   UNL     1     114.005 128.582 140.446  0.00  0.00    +0.000 C 
ATOM     32  C   UNL     1     114.424 129.293 140.427  0.00  0.00    +0.000 C 
ATOM     33  C   UNL     1     113.113 129.082 139.448  0.00  0.00    +0.000 C 
ATOM     34  C   UNL     1     114.187 129.898 139.918  0.00  0.00    +0.000 C 
ATOM     35  C   UNL     1     114.606 130.608 139.900  0.00  0.00    +0.000 C 
BRANCH  30  36
ATOM     36  O   UNL     1     112.931 127.766 139.976  0.00  0.00    +0.000 OA
BRANCH  36  41
ATOM     37  O   UNL     1     112.195 128.227 141.111  0.00  0.00    +0.000 OA
ATOM     38  O   UNL     1     112.200 126.292 140.100  0.00  0.00    +0.000 OA
ATOM     39  O   UNL     1     111.098 126.016 141.296  0.00  0.00    +0.000 OA
ATOM     40  O   UNL     1     110.727 127.213 142.369  0.00  0.00    +0.000 OA
ATOM     41  C   UNL     1     112.380 127.628 140.574  0.00  0.00    +0.000 C 
ATOM     42  C   UNL     1     112.015 126.891 140.636  0.00  0.00    +0.000 C 
ATOM     43  C   UNL     1     111.464 126.753 141.234  0.00  0.00    +0.000 C 
ATOM     44  C   UNL     1     111.278 127.351 141.771  0.00  0.00    +0.000 C 
ATOM     45  C   UNL     1     111.644 128.089 141.709  0.00  0.00    +0.000 C 
ENDBRANCH  36  41
ENDBRANCH  30  36
ENDBRANCH  26  33
ENDBRANCH   3  26
TORSDOF 9
ENDMDL
MODEL 7
REMARK VINA RESULT:      -8.8      2.790      4.610
REMARK  Name = 44258396
REMARK  9 active torsions:
REMARK  status: ('A' for Active; 'I' for Inactive)
REMARK    1  A    between atoms: O_1  and  C_16
REMARK    2  A    between atoms: O_1  and  C_21
REMARK    3  A    between atoms: O_4  and  C_19
REMARK    4  A    between atoms: O_4  and  C_27
REMARK    5  A    between atoms: O_11  and  C_31
REMARK    6  A    between atoms: O_13  and  C_40
REMARK    7  A    between atoms: O_14  and  C_41
REMARK    8  A    between atoms: O_15  and  C_42
REMARK    9  A    between atoms: C_35  and  C_36
REMARK                            x       y       z     vdW  Elec       q    Type
REMARK                         _______ _______ _______ _____ _____    ______ ____
ROOT
ATOM      1  O   UNL     1     112.315 128.149 136.555  0.00  0.00    +0.000 OA
ATOM      2  O   UNL     1     110.050 129.050 136.982  0.00  0.00    +0.000 OA
ATOM      3  C   UNL     1     111.313 130.110 136.828  0.00  0.00    +0.000 A 
ATOM      4  C   UNL     1     111.446 129.264 136.760  0.00  0.00    +0.000 A 
ATOM      5  C   UNL     1     111.977 130.651 136.746  0.00  0.00    +0.000 A 
ATOM      6  C   UNL     1     112.201 128.963 136.618  0.00  0.00    +0.000 A 
ATOM      7  C   UNL     1     112.763 130.338 136.598  0.00  0.00    +0.000 A 
ATOM      8  C   UNL     1     110.805 128.750 136.840  0.00  0.00    +0.000 A 
ATOM      9  C   UNL     1     112.875 129.488 136.534  0.00  0.00    +0.000 A 
ATOM     10  C   UNL     1     110.920 127.936 136.777  0.00  0.00    +0.000 A 
ATOM     11  C   UNL     1     111.675 127.635 136.635  0.00  0.00    +0.000 A 
ENDROOT
BRANCH  11  12
ATOM     12  C   UNL     1     111.790 126.820 136.572  0.00  0.00    +0.000 A 
ATOM     13  C   UNL     1     112.345 126.443 137.050  0.00  0.00    +0.000 A 
ATOM     14  C   UNL     1     111.348 126.382 136.029  0.00  0.00    +0.000 A 
ATOM     15  C   UNL     1     111.463 125.568 135.966  0.00  0.00    +0.000 A 
ATOM     16  C   UNL     1     112.461 125.629 136.987  0.00  0.00    +0.000 A 
ATOM     17  C   UNL     1     112.019 125.191 136.445  0.00  0.00    +0.000 A 
BRANCH  15  18
ATOM     18  O   UNL     1     111.021 125.131 135.423  0.00  0.00    +0.000 OA
ATOM     19  C   UNL     1     110.500 125.514 134.911  0.00  0.00    +0.000 C 
ENDBRANCH  15  18
BRANCH  16  20
ATOM     20  O   UNL     1     113.017 125.252 137.466  0.00  0.00    +0.000 OA
ATOM     21  C   UNL     1     113.631 125.686 137.804  0.00  0.00    +0.000 C 
ENDBRANCH  16  20
BRANCH  17  22
ATOM     22  O   UNL     1     112.134 124.376 136.381  0.00  0.00    +0.000 OA
ATOM     23  C   UNL     1     111.736 123.864 136.891  0.00  0.00    +0.000 C 
ENDBRANCH  17  22
ENDBRANCH  11  12
BRANCH   7  24
ATOM     24  O   UNL     1     113.406 130.849 136.518  0.00  0.00    +0.000 OA
ATOM     25  C   UNL     1     113.961 130.911 137.124  0.00  0.00    +0.000 C 
ENDBRANCH   7  24
BRANCH   3  26
ATOM     26  O   UNL     1     110.555 130.402 136.970  0.00  0.00    +0.000 OA
BRANCH  26  33
ATOM     27  O   UNL     1     110.641 130.731 138.358  0.00  0.00    +0.000 OA
ATOM     28  O   UNL     1     109.613 132.935 137.900  0.00  0.00    +0.000 OA
ATOM     29  O   UNL     1     110.043 132.529 139.441  0.00  0.00    +0.000 OA
ATOM     30  C   UNL     1     110.084 131.668 137.436  0.00  0.00    +0.000 C 
ATOM     31  C   UNL     1     109.956 132.200 138.053  0.00  0.00    +0.000 C 
ATOM     32  C   UNL     1     110.171 131.997 138.823  0.00  0.00    +0.000 C 
ATOM     33  C   UNL     1     110.427 130.934 137.588  0.00  0.00    +0.000 C 
ATOM     34  C   UNL     1     110.514 131.262 138.975  0.00  0.00    +0.000 C 
ATOM     35  C   UNL     1     110.728 131.060 139.746  0.00  0.00    +0.000 C 
BRANCH  30  36
ATOM     36  O   UNL     1     109.869 131.871 136.665  0.00  0.00    +0.000 OA
BRANCH  36  41
ATOM     37  O   UNL     1     108.521 131.483 136.937  0.00  0.00    +0.000 OA
ATOM     38  O   UNL     1     109.419 132.383 135.162  0.00  0.00    +0.000 OA
ATOM     39  O   UNL     1     107.846 132.251 134.682  0.00  0.00    +0.000 OA
ATOM     40  O   UNL     1     106.723 131.607 135.704  0.00  0.00    +0.000 OA
ATOM     41  C   UNL     1     109.083 131.805 136.425  0.00  0.00    +0.000 C 
ATOM     42  C   UNL     1     108.858 132.061 135.674  0.00  0.00    +0.000 C 
ATOM     43  C   UNL     1     108.072 131.995 135.434  0.00  0.00    +0.000 C 
ATOM     44  C   UNL     1     107.510 131.673 135.945  0.00  0.00    +0.000 C 
ATOM     45  C   UNL     1     107.735 131.417 136.697  0.00  0.00    +0.000 C 
ENDBRANCH  36  41
ENDBRANCH  30  36
ENDBRANCH  26  33
ENDBRANCH   3  26
TORSDOF 9
ENDMDL
MODEL 8
REMARK VINA RESULT:      -8.8      1.472      1.941
REMARK  Name = 44258396
REMARK  9 active torsions:
REMARK  status: ('A' for Active; 'I' for Inactive)
REMARK    1  A    between atoms: O_1  and  C_16
REMARK    2  A    between atoms: O_1  and  C_21
REMARK    3  A    between atoms: O_4  and  C_19
REMARK    4  A    between atoms: O_4  and  C_27
REMARK    5  A    between atoms: O_11  and  C_31
REMARK    6  A    between atoms: O_13  and  C_40
REMARK    7  A    between atoms: O_14  and  C_41
REMARK    8  A    between atoms: O_15  and  C_42
REMARK    9  A    between atoms: C_35  and  C_36
REMARK                            x       y       z     vdW  Elec       q    Type
REMARK                         _______ _______ _______ _____ _____    ______ ____
ROOT
ATOM      1  O   UNL     1     112.529 127.686 137.378  0.00  0.00    +0.000 OA
ATOM      2  O   UNL     1     111.072 127.988 139.356  0.00  0.00    +0.000 OA
ATOM      3  C   UNL     1     111.840 129.312 138.723  0.00  0.00    +0.000 A 
ATOM      4  C   UNL     1     111.948 128.537 138.368  0.00  0.00    +0.000 A 
ATOM      5  C   UNL     1     112.244 129.992 138.386  0.00  0.00    +0.000 A 
ATOM      6  C   UNL     1     112.433 128.436 137.709  0.00  0.00    +0.000 A 
ATOM      7  C   UNL     1     112.749 129.887 137.699  0.00  0.00    +0.000 A 
ATOM      8  C   UNL     1     111.558 127.888 138.697  0.00  0.00    +0.000 A 
ATOM      9  C   UNL     1     112.845 129.103 137.359  0.00  0.00    +0.000 A 
ATOM     10  C   UNL     1     111.653 127.138 138.365  0.00  0.00    +0.000 A 
ATOM     11  C   UNL     1     112.139 127.037 137.706  0.00  0.00    +0.000 A 
ENDROOT
BRANCH  11  12
ATOM     12  C   UNL     1     112.235 126.288 137.374  0.00  0.00    +0.000 A 
ATOM     13  C   UNL     1     111.659 125.983 136.869  0.00  0.00    +0.000 A 
ATOM     14  C   UNL     1     112.908 125.843 137.548  0.00  0.00    +0.000 A 
ATOM     15  C   UNL     1     113.005 125.094 137.217  0.00  0.00    +0.000 A 
ATOM     16  C   UNL     1     111.755 125.233 136.537  0.00  0.00    +0.000 A 
ATOM     17  C   UNL     1     112.428 124.790 136.711  0.00  0.00    +0.000 A 
BRANCH  15  18
ATOM     18  O   UNL     1     113.678 124.651 137.391  0.00  0.00    +0.000 OA
ATOM     19  C   UNL     1     114.402 125.029 137.513  0.00  0.00    +0.000 C 
ENDBRANCH  15  18
BRANCH  16  20
ATOM     20  O   UNL     1     111.179 124.929 136.032  0.00  0.00    +0.000 OA
ATOM     21  C   UNL     1     110.713 125.439 135.583  0.00  0.00    +0.000 C 
ENDBRANCH  16  20
BRANCH  17  22
ATOM     22  O   UNL     1     112.526 124.040 136.380  0.00  0.00    +0.000 OA
ATOM     23  C   UNL     1     112.229 123.376 136.770  0.00  0.00    +0.000 C 
ENDBRANCH  17  22
ENDBRANCH  11  12
BRANCH   7  24
ATOM     24  O   UNL     1     113.141 130.534 137.369  0.00  0.00    +0.000 OA
ATOM     25  C   UNL     1     113.951 130.630 137.487  0.00  0.00    +0.000 C 
ENDBRANCH   7  24
BRANCH   3  26
ATOM     26  O   UNL     1     111.352 129.403 139.382  0.00  0.00    +0.000 OA
BRANCH  26  33
ATOM     27  O   UNL     1     112.329 129.611 140.404  0.00  0.00    +0.000 OA
ATOM     28  O   UNL     1     111.012 131.516 141.277  0.00  0.00    +0.000 OA
ATOM     29  O   UNL     1     112.428 131.088 142.008  0.00  0.00    +0.000 OA
ATOM     30  C   UNL     1     111.183 130.459 140.330  0.00  0.00    +0.000 C 
ATOM     31  C   UNL     1     111.451 130.881 140.986  0.00  0.00    +0.000 C 
ATOM     32  C   UNL     1     112.159 130.667 141.351  0.00  0.00    +0.000 C 
ATOM     33  C   UNL     1     111.622 129.824 140.039  0.00  0.00    +0.000 C 
ATOM     34  C   UNL     1     112.598 130.031 141.060  0.00  0.00    +0.000 C 
ATOM     35  C   UNL     1     113.306 129.818 141.426  0.00  0.00    +0.000 C 
BRANCH  30  36
ATOM     36  O   UNL     1     110.474 130.673 139.964  0.00  0.00    +0.000 OA
BRANCH  36  41
ATOM     37  O   UNL     1     109.732 129.926 140.929  0.00  0.00    +0.000 OA
ATOM     38  O   UNL     1     109.077 131.363 139.422  0.00  0.00    +0.000 OA
ATOM     39  O   UNL     1     107.635 130.961 140.116  0.00  0.00    +0.000 OA
ATOM     40  O   UNL     1     107.591 129.869 141.353  0.00  0.00    +0.000 OA
ATOM     41  C   UNL     1     109.753 130.472 140.311  0.00  0.00    +0.000 C 
ATOM     42  C   UNL     1     109.055 130.817 140.040  0.00  0.00    +0.000 C 
ATOM     43  C   UNL     1     108.334 130.616 140.387  0.00  0.00    +0.000 C 
ATOM     44  C   UNL     1     108.312 130.070 141.005  0.00  0.00    +0.000 C 
ATOM     45  C   UNL     1     109.011 129.725 141.276  0.00  0.00    +0.000 C 
ENDBRANCH  36  41
ENDBRANCH  30  36
ENDBRANCH  26  33
ENDBRANCH   3  26
TORSDOF 9
ENDMDL
MODEL 9
REMARK VINA RESULT:      -8.8      1.401      6.376
REMARK  Name = 44258396
REMARK  9 active torsions:
REMARK  status: ('A' for Active; 'I' for Inactive)
REMARK    1  A    between atoms: O_1  and  C_16
REMARK    2  A    between atoms: O_1  and  C_21
REMARK    3  A    between atoms: O_4  and  C_19
REMARK    4  A    between atoms: O_4  and  C_27
REMARK    5  A    between atoms: O_11  and  C_31
REMARK    6  A    between atoms: O_13  and  C_40
REMARK    7  A    between atoms: O_14  and  C_41
REMARK    8  A    between atoms: O_15  and  C_42
REMARK    9  A    between atoms: C_35  and  C_36
REMARK                            x       y       z     vdW  Elec       q    Type
REMARK                         _______ _______ _______ _____ _____    ______ ____
ROOT
ATOM      1  O   UNL     1     112.283 129.595 138.286  0.00  0.00    +0.000 OA
ATOM      2  O   UNL     1     111.552 127.232 138.388  0.00  0.00    +0.000 OA
ATOM      3  C   UNL     1     111.851 127.910 136.907  0.00  0.00    +0.000 A 
ATOM      4  C   UNL     1     111.949 128.373 137.624  0.00  0.00    +0.000 A 
ATOM      5  C   UNL     1     112.010 128.273 136.143  0.00  0.00    +0.000 A 
ATOM      6  C   UNL     1     112.193 129.161 137.590  0.00  0.00    +0.000 A 
ATOM      7  C   UNL     1     112.264 129.093 136.108  0.00  0.00    +0.000 A 
ATOM      8  C   UNL     1     111.796 128.020 138.353  0.00  0.00    +0.000 A 
ATOM      9  C   UNL     1     112.356 129.540 136.837  0.00  0.00    +0.000 A 
ATOM     10  C   UNL     1     111.886 128.454 139.049  0.00  0.00    +0.000 A 
ATOM     11  C   UNL     1     112.129 129.241 139.016  0.00  0.00    +0.000 A 
ENDROOT
BRANCH  11  12
ATOM     12  C   UNL     1     112.220 129.676 139.711  0.00  0.00    +0.000 A 
ATOM     13  C   UNL     1     111.584 130.101 140.018  0.00  0.00    +0.000 A 
ATOM     14  C   UNL     1     112.948 129.685 140.100  0.00  0.00    +0.000 A 
ATOM     15  C   UNL     1     113.039 130.119 140.795  0.00  0.00    +0.000 A 
ATOM     16  C   UNL     1     111.675 130.536 140.714  0.00  0.00    +0.000 A 
ATOM     17  C   UNL     1     112.402 130.545 141.102  0.00  0.00    +0.000 A 
BRANCH  15  18
ATOM     18  O   UNL     1     113.767 130.128 141.183  0.00  0.00    +0.000 OA
ATOM     19  C   UNL     1     114.467 130.083 140.748  0.00  0.00    +0.000 C 
ENDBRANCH  15  18
BRANCH  16  20
ATOM     20  O   UNL     1     111.038 130.961 141.020  0.00  0.00    +0.000 OA
ATOM     21  C   UNL     1     110.403 131.162 140.534  0.00  0.00    +0.000 C 
ENDBRANCH  16  20
BRANCH  17  22
ATOM     22  O   UNL     1     112.494 130.979 141.797  0.00  0.00    +0.000 OA
ATOM     23  C   UNL     1     112.313 130.634 142.525  0.00  0.00    +0.000 C 
ENDBRANCH  17  22
ENDBRANCH  11  12
BRANCH   7  24
ATOM     24  O   UNL     1     112.418 129.450 135.380  0.00  0.00    +0.000 OA
ATOM     25  C   UNL     1     113.156 129.358 135.024  0.00  0.00    +0.000 C 
ENDBRANCH   7  24
BRANCH   3  26
ATOM     26  O   UNL     1     111.607 127.123 136.950  0.00  0.00    +0.000 OA
BRANCH  26  33
ATOM     27  O   UNL     1     110.290 127.214 136.403  0.00  0.00    +0.000 OA
ATOM     28  O   UNL     1     110.755 125.260 134.958  0.00  0.00    +0.000 OA
ATOM     29  O   UNL     1     109.283 126.002 134.893  0.00  0.00    +0.000 OA
ATOM     30  C   UNL     1     111.181 126.192 135.954  0.00  0.00    +0.000 C 
ATOM     31  C   UNL     1     110.600 125.911 135.440  0.00  0.00    +0.000 C 
ATOM     32  C   UNL     1     109.864 126.283 135.408  0.00  0.00    +0.000 C 
ATOM     33  C   UNL     1     111.026 126.844 136.436  0.00  0.00    +0.000 C 
ATOM     34  C   UNL     1     109.710 126.935 135.889  0.00  0.00    +0.000 C 
ATOM     35  C   UNL     1     108.973 127.306 135.856  0.00  0.00    +0.000 C 
BRANCH  30  36
ATOM     36  O   UNL     1     111.917 125.820 135.986  0.00  0.00    +0.000 OA
BRANCH  36  41
ATOM     37  O   UNL     1     111.351 124.768 136.770  0.00  0.00    +0.000 OA
ATOM     38  O   UNL     1     113.395 125.091 136.073  0.00  0.00    +0.000 OA
ATOM     39  O   UNL     1     113.568 123.673 136.899  0.00  0.00    +0.000 OA
ATOM     40  O   UNL     1     112.264 122.985 137.640  0.00  0.00    +0.000 OA
ATOM     41  C   UNL     1     112.004 125.112 136.400  0.00  0.00    +0.000 C 
ATOM     42  C   UNL     1     112.742 124.747 136.443  0.00  0.00    +0.000 C 
ATOM     43  C   UNL     1     112.829 124.039 136.856  0.00  0.00    +0.000 C 
ATOM     44  C   UNL     1     112.177 123.694 137.226  0.00  0.00    +0.000 C 
ATOM     45  C   UNL     1     111.438 124.059 137.183  0.00  0.00    +0.000 C 
ENDBRANCH  36  41
ENDBRANCH  30  36
ENDBRANCH  26  33
ENDBRANCH   3  26
TORSDOF 9
ENDMDL
MODEL 10
REMARK VINA RESULT:      -8.8      2.610      4.805
REMARK  Name = 44258396
REMARK  9 active torsions:
REMARK  status: ('A' for Active; 'I' for Inactive)
REMARK    1  A    between atoms: O_1  and  C_16
REMARK    2  A    between atoms: O_1  and  C_21
REMARK    3  A    between atoms: O_4  and  C_19
REMARK    4  A    between atoms: O_4  and  C_27
REMARK    5  A    between atoms: O_11  and  C_31
REMARK    6  A    between atoms: O_13  and  C_40
REMARK    7  A    between atoms: O_14  and  C_41
REMARK    8  A    between atoms: O_15  and  C_42
REMARK    9  A    between atoms: C_35  and  C_36
REMARK                            x       y       z     vdW  Elec       q    Type
REMARK                         _______ _______ _______ _____ _____    ______ ____
ROOT
ATOM      1  O   UNL     1     109.569 128.992 138.484  0.00  0.00    +0.000 OA
ATOM      2  O   UNL     1     111.938 129.695 138.630  0.00  0.00    +0.000 OA
ATOM      3  C   UNL     1     111.369 128.582 139.717  0.00  0.00    +0.000 A 
ATOM      4  C   UNL     1     110.848 128.907 139.115  0.00  0.00    +0.000 A 
ATOM      5  C   UNL     1     111.062 128.005 140.275  0.00  0.00    +0.000 A 
ATOM      6  C   UNL     1     110.059 128.673 139.066  0.00  0.00    +0.000 A 
ATOM      7  C   UNL     1     110.239 127.761 140.224  0.00  0.00    +0.000 A 
ATOM      8  C   UNL     1     111.148 129.460 138.582  0.00  0.00    +0.000 A 
ATOM      9  C   UNL     1     109.735 128.098 139.615  0.00  0.00    +0.000 A 
ATOM     10  C   UNL     1     110.659 129.780 138.000  0.00  0.00    +0.000 A 
ATOM     11  C   UNL     1     109.869 129.546 137.950  0.00  0.00    +0.000 A 
ENDROOT
BRANCH  11  12
ATOM     12  C   UNL     1     109.379 129.865 137.368  0.00  0.00    +0.000 A 
ATOM     13  C   UNL     1     109.272 129.467 136.655  0.00  0.00    +0.000 A 
ATOM     14  C   UNL     1     108.996 130.584 137.501  0.00  0.00    +0.000 A 
ATOM     15  C   UNL     1     108.506 130.903 136.920  0.00  0.00    +0.000 A 
ATOM     16  C   UNL     1     108.782 129.786 136.073  0.00  0.00    +0.000 A 
ATOM     17  C   UNL     1     108.399 130.504 136.206  0.00  0.00    +0.000 A 
BRANCH  15  18
ATOM     18  O   UNL     1     108.123 131.621 137.053  0.00  0.00    +0.000 OA
ATOM     19  C   UNL     1     108.151 131.972 137.800  0.00  0.00    +0.000 C 
ENDBRANCH  15  18
BRANCH  16  20
ATOM     20  O   UNL     1     108.675 129.386 135.359  0.00  0.00    +0.000 OA
ATOM     21  C   UNL     1     108.992 128.633 135.257  0.00  0.00    +0.000 C 
ENDBRANCH  16  20
BRANCH  17  22
ATOM     22  O   UNL     1     107.908 130.824 135.624  0.00  0.00    +0.000 OA
ATOM     23  C   UNL     1     108.209 131.375 135.089  0.00  0.00    +0.000 C 
ENDBRANCH  17  22
ENDBRANCH  11  12
BRANCH   7  24
ATOM     24  O   UNL     1     109.936 127.208 140.756  0.00  0.00    +0.000 OA
ATOM     25  C   UNL     1     109.669 127.451 141.497  0.00  0.00    +0.000 C 
ENDBRANCH   7  24
BRANCH   3  26
ATOM     26  O   UNL     1     112.157 128.822 139.758  0.00  0.00    +0.000 OA
BRANCH  26  33
ATOM     27  O   UNL     1     112.812 127.621 139.345  0.00  0.00    +0.000 OA
ATOM     28  O   UNL     1     114.426 127.861 141.205  0.00  0.00    +0.000 OA
ATOM     29  O   UNL     1     114.543 126.580 140.172  0.00  0.00    +0.000 OA
ATOM     30  C   UNL     1     113.292 128.341 140.481  0.00  0.00    +0.000 C 
ATOM     31  C   UNL     1     113.888 127.781 140.585  0.00  0.00    +0.000 C 
ATOM     32  C   UNL     1     113.946 127.141 140.068  0.00  0.00    +0.000 C 
ATOM     33  C   UNL     1     112.753 128.261 139.861  0.00  0.00    +0.000 C 
ATOM     34  C   UNL     1     113.408 127.061 139.448  0.00  0.00    +0.000 C 
ATOM     35  C   UNL     1     113.467 126.420 138.931  0.00  0.00    +0.000 C 
BRANCH  30  36
ATOM     36  O   UNL     1     113.233 128.982 140.999  0.00  0.00    +0.000 OA
BRANCH  36  41
ATOM     37  O   UNL     1     114.309 129.629 140.317  0.00  0.00    +0.000 OA
ATOM     38  O   UNL     1     113.093 130.278 142.010  0.00  0.00    +0.000 OA
ATOM     39  O   UNL     1     114.098 131.574 141.835  0.00  0.00    +0.000 OA
ATOM     40  O   UNL     1     115.245 131.574 140.648  0.00  0.00    +0.000 OA
ATOM     41  C   UNL     1     113.736 129.630 140.911  0.00  0.00    +0.000 C 
ATOM     42  C   UNL     1     113.666 130.277 141.416  0.00  0.00    +0.000 C 
ATOM     43  C   UNL     1     114.169 130.925 141.329  0.00  0.00    +0.000 C 
ATOM     44  C   UNL     1     114.742 130.926 140.735  0.00  0.00    +0.000 C 
ATOM     45  C   UNL     1     114.812 130.278 140.229  0.00  0.00    +0.000 C 
ENDBRANCH  36  41
ENDBRANCH  30  36
ENDBRANCH  26  33
ENDBRANCH   3  26
TORSDOF 9
ENDMDL
