MODEL 1
REMARK VINA RESULT:      -9.3      0.000      0.000
REMARK  Name = 14825856
REMARK  7 active torsions:
REMARK  status: ('A' for Active; 'I' for Inactive)
REMARK    1  A    between atoms: O_2  and  C_13
REMARK    2  A    between atoms: O_2  and  C_20
REMARK    3  A    between atoms: O_3  and  C_14
REMARK    4  A    between atoms: O_3  and  C_21
REMARK    5  A    between atoms: O_4  and  C_17
REMARK    6  A    between atoms: O_4  and  C_19
REMARK    7  A    between atoms: C_22  and  C_28
REMARK                            x       y       z     vdW  Elec       q    Type
REMARK                         _______ _______ _______ _____ _____    ______ ____
ROOT
ATOM      1  O   UNL     1     105.660 124.408 147.618  0.00  0.00    +0.000 OA
ATOM      2  O   UNL     1     107.159 125.603 146.053  0.00  0.00    +0.000 OA
ATOM      3  O   UNL     1     108.233 125.576 147.016  0.00  0.00    +0.000 OA
ATOM      4  O   UNL     1     107.781 124.317 149.612  0.00  0.00    +0.000 OA
ATOM      5  C   UNL     1     105.886 125.026 146.349  0.00  0.00    +0.000 A 
ATOM      6  C   UNL     1     105.387 124.628 146.871  0.00  0.00    +0.000 A 
ATOM      7  C   UNL     1     106.660 125.205 146.575  0.00  0.00    +0.000 A 
ATOM      8  C   UNL     1     106.933 124.986 147.322  0.00  0.00    +0.000 A 
ATOM      9  C   UNL     1     106.433 124.587 147.843  0.00  0.00    +0.000 A 
ATOM     10  C   UNL     1     107.740 125.178 147.545  0.00  0.00    +0.000 A 
ATOM     11  C   UNL     1     106.706 124.354 148.623  0.00  0.00    +0.000 A 
ATOM     12  C   UNL     1     108.031 124.952 148.321  0.00  0.00    +0.000 A 
ATOM     13  C   UNL     1     107.510 124.538 148.864  0.00  0.00    +0.000 A 
ENDROOT
BRANCH   6  15
ATOM     14  O   UNL     1     102.294 123.912 145.970  0.00  0.00    +0.000 OA
ATOM     15  C   UNL     1     104.613 124.449 146.646  0.00  0.00    +0.000 A 
ATOM     16  C   UNL     1     104.472 123.856 146.090  0.00  0.00    +0.000 A 
ATOM     17  C   UNL     1     103.981 124.863 146.977  0.00  0.00    +0.000 A 
ATOM     18  C   UNL     1     103.700 123.677 145.865  0.00  0.00    +0.000 A 
ATOM     19  C   UNL     1     103.208 124.684 146.751  0.00  0.00    +0.000 A 
ATOM     20  C   UNL     1     103.067 124.091 146.195  0.00  0.00    +0.000 A 
ENDBRANCH   6  15
BRANCH   5  21
ATOM     21  O   UNL     1     105.613 125.245 145.602  0.00  0.00    +0.000 OA
BRANCH  21  28
ATOM     22  O   UNL     1     105.442 126.634 145.890  0.00  0.00    +0.000 OA
ATOM     23  O   UNL     1     106.107 125.623 144.074  0.00  0.00    +0.000 OA
ATOM     24  C   UNL     1     105.937 127.012 144.362  0.00  0.00    +0.000 C 
ATOM     25  C   UNL     1     105.728 127.613 144.889  0.00  0.00    +0.000 C 
ATOM     26  C   UNL     1     105.898 126.223 144.601  0.00  0.00    +0.000 C 
ATOM     27  C   UNL     1     105.480 127.424 145.653  0.00  0.00    +0.000 C 
ATOM     28  C   UNL     1     105.651 126.034 145.365  0.00  0.00    +0.000 C 
ATOM     29  C   UNL     1     105.272 128.023 146.179  0.00  0.00    +0.000 C 
BRANCH  24  30
ATOM     30  O   UNL     1     106.184 127.201 143.598  0.00  0.00    +0.000 OA
BRANCH  30  32
ATOM     31  O   UNL     1     104.952 127.239 142.876  0.00  0.00    +0.000 OA
ATOM     32  C   UNL     1     105.728 126.972 142.949  0.00  0.00    +0.000 C 
ATOM     33  C   UNL     1     106.050 126.476 142.374  0.00  0.00    +0.000 C 
ENDBRANCH  30  32
ENDBRANCH  24  30
BRANCH  25  34
ATOM     34  O   UNL     1     105.766 128.401 144.651  0.00  0.00    +0.000 OA
BRANCH  34  36
ATOM     35  O   UNL     1     107.116 128.705 145.011  0.00  0.00    +0.000 OA
ATOM     36  C   UNL     1     106.317 128.910 144.996  0.00  0.00    +0.000 C 
ATOM     37  C   UNL     1     106.068 129.623 145.327  0.00  0.00    +0.000 C 
ENDBRANCH  34  36
ENDBRANCH  25  34
ENDBRANCH  21  28
ENDBRANCH   5  21
TORSDOF 7
ENDMDL
MODEL 2
REMARK VINA RESULT:      -9.2      8.273     11.193
REMARK  Name = 14825856
REMARK  7 active torsions:
REMARK  status: ('A' for Active; 'I' for Inactive)
REMARK    1  A    between atoms: O_2  and  C_13
REMARK    2  A    between atoms: O_2  and  C_20
REMARK    3  A    between atoms: O_3  and  C_14
REMARK    4  A    between atoms: O_3  and  C_21
REMARK    5  A    between atoms: O_4  and  C_17
REMARK    6  A    between atoms: O_4  and  C_19
REMARK    7  A    between atoms: C_22  and  C_28
REMARK                            x       y       z     vdW  Elec       q    Type
REMARK                         _______ _______ _______ _____ _____    ______ ____
ROOT
ATOM      1  O   UNL     1     112.201 126.935 136.047  0.00  0.00    +0.000 OA
ATOM      2  O   UNL     1     113.208 128.151 137.953  0.00  0.00    +0.000 OA
ATOM      3  O   UNL     1     113.045 129.412 137.272  0.00  0.00    +0.000 OA
ATOM      4  O   UNL     1     111.839 129.443 134.612  0.00  0.00    +0.000 OA
ATOM      5  C   UNL     1     112.791 126.925 137.349  0.00  0.00    +0.000 A 
ATOM      6  C   UNL     1     112.456 126.520 136.713  0.00  0.00    +0.000 A 
ATOM      7  C   UNL     1     112.873 127.746 137.318  0.00  0.00    +0.000 A 
ATOM      8  C   UNL     1     112.618 128.161 136.652  0.00  0.00    +0.000 A 
ATOM      9  C   UNL     1     112.282 127.755 136.017  0.00  0.00    +0.000 A 
ATOM     10  C   UNL     1     112.708 129.015 136.632  0.00  0.00    +0.000 A 
ATOM     11  C   UNL     1     112.013 128.176 135.318  0.00  0.00    +0.000 A 
ATOM     12  C   UNL     1     112.444 129.453 135.941  0.00  0.00    +0.000 A 
ATOM     13  C   UNL     1     112.095 129.031 135.279  0.00  0.00    +0.000 A 
ENDROOT
BRANCH   6  15
ATOM     14  O   UNL     1     112.132 123.238 136.837  0.00  0.00    +0.000 OA
ATOM     15  C   UNL     1     112.374 125.699 136.744  0.00  0.00    +0.000 A 
ATOM     16  C   UNL     1     111.630 125.362 136.860  0.00  0.00    +0.000 A 
ATOM     17  C   UNL     1     113.038 125.216 136.659  0.00  0.00    +0.000 A 
ATOM     18  C   UNL     1     111.550 124.542 136.891  0.00  0.00    +0.000 A 
ATOM     19  C   UNL     1     112.957 124.395 136.690  0.00  0.00    +0.000 A 
ATOM     20  C   UNL     1     112.213 124.058 136.806  0.00  0.00    +0.000 A 
ENDBRANCH   6  15
BRANCH   5  21
ATOM     21  O   UNL     1     113.046 126.510 138.015  0.00  0.00    +0.000 OA
BRANCH  21  28
ATOM     22  O   UNL     1     111.936 126.910 138.821  0.00  0.00    +0.000 OA
ATOM     23  O   UNL     1     113.987 126.400 139.365  0.00  0.00    +0.000 OA
ATOM     24  C   UNL     1     112.877 126.800 140.171  0.00  0.00    +0.000 C 
ATOM     25  C   UNL     1     112.086 127.028 140.237  0.00  0.00    +0.000 C 
ATOM     26  C   UNL     1     113.196 126.628 139.431  0.00  0.00    +0.000 C 
ATOM     27  C   UNL     1     111.616 127.082 139.561  0.00  0.00    +0.000 C 
ATOM     28  C   UNL     1     112.726 126.683 138.755  0.00  0.00    +0.000 C 
ATOM     29  C   UNL     1     110.826 127.310 139.627  0.00  0.00    +0.000 C 
BRANCH  24  30
ATOM     30  O   UNL     1     113.348 126.745 140.847  0.00  0.00    +0.000 OA
BRANCH  30  32
ATOM     31  O   UNL     1     113.855 128.072 141.002  0.00  0.00    +0.000 OA
ATOM     32  C   UNL     1     113.985 127.260 140.948  0.00  0.00    +0.000 C 
ATOM     33  C   UNL     1     114.752 126.961 140.996  0.00  0.00    +0.000 C 
ENDBRANCH  30  32
ENDBRANCH  24  30
BRANCH  25  34
ATOM     34  O   UNL     1     111.767 127.200 140.977  0.00  0.00    +0.000 OA
BRANCH  34  36
ATOM     35  O   UNL     1     111.243 125.916 141.325  0.00  0.00    +0.000 OA
ATOM     36  C   UNL     1     111.156 126.735 141.281  0.00  0.00    +0.000 C 
ATOM     37  C   UNL     1     110.458 127.090 141.541  0.00  0.00    +0.000 C 
ENDBRANCH  34  36
ENDBRANCH  25  34
ENDBRANCH  21  28
ENDBRANCH   5  21
TORSDOF 7
ENDMDL
MODEL 3
REMARK VINA RESULT:      -9.1     10.785     12.254
REMARK  Name = 14825856
REMARK  7 active torsions:
REMARK  status: ('A' for Active; 'I' for Inactive)
REMARK    1  A    between atoms: O_2  and  C_13
REMARK    2  A    between atoms: O_2  and  C_20
REMARK    3  A    between atoms: O_3  and  C_14
REMARK    4  A    between atoms: O_3  and  C_21
REMARK    5  A    between atoms: O_4  and  C_17
REMARK    6  A    between atoms: O_4  and  C_19
REMARK    7  A    between atoms: C_22  and  C_28
REMARK                            x       y       z     vdW  Elec       q    Type
REMARK                         _______ _______ _______ _____ _____    ______ ____
ROOT
ATOM      1  O   UNL     1     111.808 125.911 136.085  0.00  0.00    +0.000 OA
ATOM      2  O   UNL     1     111.797 128.268 135.330  0.00  0.00    +0.000 OA
ATOM      3  O   UNL     1     110.562 128.061 134.613  0.00  0.00    +0.000 OA
ATOM      4  O   UNL     1     109.315 125.421 134.661  0.00  0.00    +0.000 OA
ATOM      5  C   UNL     1     112.414 127.205 136.059  0.00  0.00    +0.000 A 
ATOM      6  C   UNL     1     112.418 126.419 136.310  0.00  0.00    +0.000 A 
ATOM      7  C   UNL     1     111.800 127.482 135.581  0.00  0.00    +0.000 A 
ATOM      8  C   UNL     1     111.191 126.974 135.356  0.00  0.00    +0.000 A 
ATOM      9  C   UNL     1     111.195 126.188 135.609  0.00  0.00    +0.000 A 
ATOM     10  C   UNL     1     110.558 127.274 134.860  0.00  0.00    +0.000 A 
ATOM     11  C   UNL     1     110.566 125.649 135.381  0.00  0.00    +0.000 A 
ATOM     12  C   UNL     1     109.920 126.750 134.622  0.00  0.00    +0.000 A 
ATOM     13  C   UNL     1     109.924 125.931 134.884  0.00  0.00    +0.000 A 
ENDROOT
BRANCH   6  15
ATOM     14  O   UNL     1     114.871 125.311 138.218  0.00  0.00    +0.000 OA
ATOM     15  C   UNL     1     113.032 126.142 136.787  0.00  0.00    +0.000 A 
ATOM     16  C   UNL     1     113.768 125.974 136.456  0.00  0.00    +0.000 A 
ATOM     17  C   UNL     1     112.908 126.033 137.596  0.00  0.00    +0.000 A 
ATOM     18  C   UNL     1     114.381 125.698 136.933  0.00  0.00    +0.000 A 
ATOM     19  C   UNL     1     113.522 125.755 138.073  0.00  0.00    +0.000 A 
ATOM     20  C   UNL     1     114.259 125.588 137.741  0.00  0.00    +0.000 A 
ENDBRANCH   6  15
BRANCH   5  21
ATOM     21  O   UNL     1     113.024 127.713 136.283  0.00  0.00    +0.000 OA
BRANCH  21  28
ATOM     22  O   UNL     1     112.256 128.436 137.248  0.00  0.00    +0.000 OA
ATOM     23  O   UNL     1     113.862 129.087 135.920  0.00  0.00    +0.000 OA
ATOM     24  C   UNL     1     113.094 129.810 136.884  0.00  0.00    +0.000 C 
ATOM     25  C   UNL     1     112.500 129.828 137.458  0.00  0.00    +0.000 C 
ATOM     26  C   UNL     1     113.268 129.105 136.494  0.00  0.00    +0.000 C 
ATOM     27  C   UNL     1     112.081 129.141 137.639  0.00  0.00    +0.000 C 
ATOM     28  C   UNL     1     112.849 128.418 136.675  0.00  0.00    +0.000 C 
ATOM     29  C   UNL     1     111.488 129.159 138.212  0.00  0.00    +0.000 C 
BRANCH  24  30
ATOM     30  O   UNL     1     113.513 130.497 136.703  0.00  0.00    +0.000 OA
BRANCH  30  32
ATOM     31  O   UNL     1     114.611 130.462 137.616  0.00  0.00    +0.000 OA
ATOM     32  C   UNL     1     114.325 130.535 136.847  0.00  0.00    +0.000 C 
ATOM     33  C   UNL     1     114.850 130.647 136.220  0.00  0.00    +0.000 C 
ENDBRANCH  30  32
ENDBRANCH  24  30
BRANCH  25  34
ATOM     34  O   UNL     1     112.326 130.534 137.849  0.00  0.00    +0.000 OA
BRANCH  34  36
ATOM     35  O   UNL     1     111.351 131.079 136.957  0.00  0.00    +0.000 OA
ATOM     36  C   UNL     1     111.600 130.906 137.724  0.00  0.00    +0.000 C 
ATOM     37  C   UNL     1     111.123 131.104 138.367  0.00  0.00    +0.000 C 
ENDBRANCH  34  36
ENDBRANCH  25  34
ENDBRANCH  21  28
ENDBRANCH   5  21
TORSDOF 7
ENDMDL
MODEL 4
REMARK VINA RESULT:      -9.0      9.472     11.499
REMARK  Name = 14825856
REMARK  7 active torsions:
REMARK  status: ('A' for Active; 'I' for Inactive)
REMARK    1  A    between atoms: O_2  and  C_13
REMARK    2  A    between atoms: O_2  and  C_20
REMARK    3  A    between atoms: O_3  and  C_14
REMARK    4  A    between atoms: O_3  and  C_21
REMARK    5  A    between atoms: O_4  and  C_17
REMARK    6  A    between atoms: O_4  and  C_19
REMARK    7  A    between atoms: C_22  and  C_28
REMARK                            x       y       z     vdW  Elec       q    Type
REMARK                         _______ _______ _______ _____ _____    ______ ____
ROOT
ATOM      1  O   UNL     1     112.474 125.371 138.178  0.00  0.00    +0.000 OA
ATOM      2  O   UNL     1     111.429 126.943 136.577  0.00  0.00    +0.000 OA
ATOM      3  O   UNL     1     111.089 125.857 135.690  0.00  0.00    +0.000 OA
ATOM      4  O   UNL     1     111.820 123.130 136.437  0.00  0.00    +0.000 OA
ATOM      5  C   UNL     1     112.114 126.704 137.808  0.00  0.00    +0.000 A 
ATOM      6  C   UNL     1     112.462 126.180 138.341  0.00  0.00    +0.000 A 
ATOM      7  C   UNL     1     111.777 126.419 137.110  0.00  0.00    +0.000 A 
ATOM      8  C   UNL     1     111.789 125.610 136.947  0.00  0.00    +0.000 A 
ATOM      9  C   UNL     1     112.137 125.087 137.481  0.00  0.00    +0.000 A 
ATOM     10  C   UNL     1     111.435 125.326 136.218  0.00  0.00    +0.000 A 
ATOM     11  C   UNL     1     112.156 124.243 137.323  0.00  0.00    +0.000 A 
ATOM     12  C   UNL     1     111.444 124.485 136.042  0.00  0.00    +0.000 A 
ATOM     13  C   UNL     1     111.807 123.939 136.598  0.00  0.00    +0.000 A 
ENDROOT
BRANCH   6  15
ATOM     14  O   UNL     1     113.808 127.321 141.130  0.00  0.00    +0.000 OA
ATOM     15  C   UNL     1     112.799 126.465 139.039  0.00  0.00    +0.000 A 
ATOM     16  C   UNL     1     113.620 126.507 139.114  0.00  0.00    +0.000 A 
ATOM     17  C   UNL     1     112.315 126.708 139.661  0.00  0.00    +0.000 A 
ATOM     18  C   UNL     1     113.956 126.792 139.811  0.00  0.00    +0.000 A 
ATOM     19  C   UNL     1     112.652 126.994 140.358  0.00  0.00    +0.000 A 
ATOM     20  C   UNL     1     113.472 127.036 140.433  0.00  0.00    +0.000 A 
ENDBRANCH   6  15
BRANCH   5  21
ATOM     21  O   UNL     1     112.102 127.513 137.971  0.00  0.00    +0.000 OA
BRANCH  21  28
ATOM     22  O   UNL     1     113.108 127.819 137.003  0.00  0.00    +0.000 OA
ATOM     23  O   UNL     1     111.474 129.028 137.798  0.00  0.00    +0.000 OA
ATOM     24  C   UNL     1     112.479 129.335 136.830  0.00  0.00    +0.000 C 
ATOM     25  C   UNL     1     113.139 129.109 136.389  0.00  0.00    +0.000 C 
ATOM     26  C   UNL     1     112.134 128.802 137.357  0.00  0.00    +0.000 C 
ATOM     27  C   UNL     1     113.454 128.351 136.475  0.00  0.00    +0.000 C 
ATOM     28  C   UNL     1     112.448 128.044 137.443  0.00  0.00    +0.000 C 
ATOM     29  C   UNL     1     114.113 128.126 136.034  0.00  0.00    +0.000 C 
BRANCH  24  30
ATOM     30  O   UNL     1     112.165 130.093 136.744  0.00  0.00    +0.000 OA
BRANCH  30  32
ATOM     31  O   UNL     1     112.884 130.773 137.774  0.00  0.00    +0.000 OA
ATOM     32  C   UNL     1     112.177 130.619 137.379  0.00  0.00    +0.000 C 
ATOM     33  C   UNL     1     111.481 130.990 137.620  0.00  0.00    +0.000 C 
ENDBRANCH  30  32
ENDBRANCH  24  30
BRANCH  25  34
ATOM     34  O   UNL     1     113.484 129.641 135.862  0.00  0.00    +0.000 OA
BRANCH  34  36
ATOM     35  O   UNL     1     112.763 129.288 134.679  0.00  0.00    +0.000 OA
ATOM     36  C   UNL     1     113.473 129.485 135.051  0.00  0.00    +0.000 C 
ATOM     37  C   UNL     1     114.171 129.525 134.614  0.00  0.00    +0.000 C 
ENDBRANCH  34  36
ENDBRANCH  25  34
ENDBRANCH  21  28
ENDBRANCH   5  21
TORSDOF 7
ENDMDL
MODEL 5
REMARK VINA RESULT:      -9.0     10.376     11.642
REMARK  Name = 14825856
REMARK  7 active torsions:
REMARK  status: ('A' for Active; 'I' for Inactive)
REMARK    1  A    between atoms: O_2  and  C_13
REMARK    2  A    between atoms: O_2  and  C_20
REMARK    3  A    between atoms: O_3  and  C_14
REMARK    4  A    between atoms: O_3  and  C_21
REMARK    5  A    between atoms: O_4  and  C_17
REMARK    6  A    between atoms: O_4  and  C_19
REMARK    7  A    between atoms: C_22  and  C_28
REMARK                            x       y       z     vdW  Elec       q    Type
REMARK                         _______ _______ _______ _____ _____    ______ ____
ROOT
ATOM      1  O   UNL     1     110.947 125.226 136.552  0.00  0.00    +0.000 OA
ATOM      2  O   UNL     1     113.137 126.262 136.049  0.00  0.00    +0.000 OA
ATOM      3  O   UNL     1     113.826 125.047 136.409  0.00  0.00    +0.000 OA
ATOM      4  O   UNL     1     112.270 122.741 137.295  0.00  0.00    +0.000 OA
ATOM      5  C   UNL     1     111.713 126.352 136.119  0.00  0.00    +0.000 A 
ATOM      6  C   UNL     1     110.983 126.007 136.287  0.00  0.00    +0.000 A 
ATOM      7  C   UNL     1     112.407 125.917 136.217  0.00  0.00    +0.000 A 
ATOM      8  C   UNL     1     112.371 125.136 136.482  0.00  0.00    +0.000 A 
ATOM      9  C   UNL     1     111.640 124.792 136.650  0.00  0.00    +0.000 A 
ATOM     10  C   UNL     1     113.100 124.694 136.579  0.00  0.00    +0.000 A 
ATOM     11  C   UNL     1     111.589 123.980 136.926  0.00  0.00    +0.000 A 
ATOM     12  C   UNL     1     113.069 123.881 136.855  0.00  0.00    +0.000 A 
ATOM     13  C   UNL     1     112.309 123.521 137.030  0.00  0.00    +0.000 A 
ENDROOT
BRANCH   6  15
ATOM     14  O   UNL     1     108.207 127.749 135.898  0.00  0.00    +0.000 OA
ATOM     15  C   UNL     1     110.288 126.443 136.190  0.00  0.00    +0.000 A 
ATOM     16  C   UNL     1     109.995 126.587 135.432  0.00  0.00    +0.000 A 
ATOM     17  C   UNL     1     109.889 126.734 136.850  0.00  0.00    +0.000 A 
ATOM     18  C   UNL     1     109.301 127.022 135.336  0.00  0.00    +0.000 A 
ATOM     19  C   UNL     1     109.194 127.169 136.753  0.00  0.00    +0.000 A 
ATOM     20  C   UNL     1     108.900 127.314 135.995  0.00  0.00    +0.000 A 
ENDBRANCH   6  15
BRANCH   5  21
ATOM     21  O   UNL     1     111.749 127.133 135.854  0.00  0.00    +0.000 OA
BRANCH  21  28
ATOM     22  O   UNL     1     112.226 127.636 137.104  0.00  0.00    +0.000 OA
ATOM     23  O   UNL     1     112.501 128.374 135.068  0.00  0.00    +0.000 OA
ATOM     24  C   UNL     1     112.978 128.877 136.318  0.00  0.00    +0.000 C 
ATOM     25  C   UNL     1     113.028 128.818 137.140  0.00  0.00    +0.000 C 
ATOM     26  C   UNL     1     112.551 128.315 135.890  0.00  0.00    +0.000 C 
ATOM     27  C   UNL     1     112.652 128.197 137.533  0.00  0.00    +0.000 C 
ATOM     28  C   UNL     1     112.175 127.694 136.283  0.00  0.00    +0.000 C 
ATOM     29  C   UNL     1     112.703 128.139 138.353  0.00  0.00    +0.000 C 
BRANCH  24  30
ATOM     30  O   UNL     1     113.353 129.497 135.924  0.00  0.00    +0.000 OA
BRANCH  30  32
ATOM     31  O   UNL     1     114.638 128.934 135.654  0.00  0.00    +0.000 OA
ATOM     32  C   UNL     1     113.968 129.339 135.397  0.00  0.00    +0.000 C 
ATOM     33  C   UNL     1     113.911 129.586 134.612  0.00  0.00    +0.000 C 
ENDBRANCH  30  32
ENDBRANCH  24  30
BRANCH  25  34
ATOM     34  O   UNL     1     113.455 129.379 137.567  0.00  0.00    +0.000 OA
BRANCH  34  36
ATOM     35  O   UNL     1     112.377 130.286 137.817  0.00  0.00    +0.000 OA
ATOM     36  C   UNL     1     113.060 129.899 138.073  0.00  0.00    +0.000 C 
ATOM     37  C   UNL     1     113.348 130.032 138.834  0.00  0.00    +0.000 C 
ENDBRANCH  34  36
ENDBRANCH  25  34
ENDBRANCH  21  28
ENDBRANCH   5  21
TORSDOF 7
ENDMDL
MODEL 6
REMARK VINA RESULT:      -9.0      9.314     12.640
REMARK  Name = 14825856
REMARK  7 active torsions:
REMARK  status: ('A' for Active; 'I' for Inactive)
REMARK    1  A    between atoms: O_2  and  C_13
REMARK    2  A    between atoms: O_2  and  C_20
REMARK    3  A    between atoms: O_3  and  C_14
REMARK    4  A    between atoms: O_3  and  C_21
REMARK    5  A    between atoms: O_4  and  C_17
REMARK    6  A    between atoms: O_4  and  C_19
REMARK    7  A    between atoms: C_22  and  C_28
REMARK                            x       y       z     vdW  Elec       q    Type
REMARK                         _______ _______ _______ _____ _____    ______ ____
ROOT
ATOM      1  O   UNL     1     111.871 129.476 135.413  0.00  0.00    +0.000 OA
ATOM      2  O   UNL     1     111.493 127.147 136.160  0.00  0.00    +0.000 OA
ATOM      3  O   UNL     1     110.079 127.262 135.897  0.00  0.00    +0.000 OA
ATOM      4  O   UNL     1     109.028 129.781 134.858  0.00  0.00    +0.000 OA
ATOM      5  C   UNL     1     112.381 128.241 135.921  0.00  0.00    +0.000 A 
ATOM      6  C   UNL     1     112.506 129.018 135.672  0.00  0.00    +0.000 A 
ATOM      7  C   UNL     1     111.619 127.923 135.911  0.00  0.00    +0.000 A 
ATOM      8  C   UNL     1     110.984 128.382 135.652  0.00  0.00    +0.000 A 
ATOM      9  C   UNL     1     111.111 129.158 135.403  0.00  0.00    +0.000 A 
ATOM     10  C   UNL     1     110.196 128.040 135.646  0.00  0.00    +0.000 A 
ATOM     11  C   UNL     1     110.457 129.645 135.131  0.00  0.00    +0.000 A 
ATOM     12  C   UNL     1     109.531 128.512 135.377  0.00  0.00    +0.000 A 
ATOM     13  C   UNL     1     109.662 129.320 135.118  0.00  0.00    +0.000 A 
ENDROOT
BRANCH   6  15
ATOM     14  O   UNL     1     115.552 130.288 135.712  0.00  0.00    +0.000 OA
ATOM     15  C   UNL     1     113.268 129.336 135.682  0.00  0.00    +0.000 A 
ATOM     16  C   UNL     1     113.475 129.894 136.253  0.00  0.00    +0.000 A 
ATOM     17  C   UNL     1     113.822 129.094 135.120  0.00  0.00    +0.000 A 
ATOM     18  C   UNL     1     114.235 130.211 136.263  0.00  0.00    +0.000 A 
ATOM     19  C   UNL     1     114.584 129.412 135.131  0.00  0.00    +0.000 A 
ATOM     20  C   UNL     1     114.791 129.971 135.702  0.00  0.00    +0.000 A 
ENDBRANCH   6  15
BRANCH   5  21
ATOM     21  O   UNL     1     113.016 127.783 136.180  0.00  0.00    +0.000 OA
BRANCH  21  28
ATOM     22  O   UNL     1     112.726 127.898 137.574  0.00  0.00    +0.000 OA
ATOM     23  O   UNL     1     113.556 126.242 136.419  0.00  0.00    +0.000 OA
ATOM     24  C   UNL     1     113.266 126.357 137.813  0.00  0.00    +0.000 C 
ATOM     25  C   UNL     1     112.986 126.800 138.451  0.00  0.00    +0.000 C 
ATOM     26  C   UNL     1     113.276 126.685 137.057  0.00  0.00    +0.000 C 
ATOM     27  C   UNL     1     112.716 127.570 138.332  0.00  0.00    +0.000 C 
ATOM     28  C   UNL     1     113.006 127.456 136.937  0.00  0.00    +0.000 C 
ATOM     29  C   UNL     1     112.437 128.013 138.969  0.00  0.00    +0.000 C 
BRANCH  24  30
ATOM     30  O   UNL     1     113.536 125.587 137.933  0.00  0.00    +0.000 OA
BRANCH  30  32
ATOM     31  O   UNL     1     114.914 125.772 138.263  0.00  0.00    +0.000 OA
ATOM     32  C   UNL     1     114.331 125.405 137.809  0.00  0.00    +0.000 C 
ATOM     33  C   UNL     1     114.543 124.855 137.232  0.00  0.00    +0.000 C 
ENDBRANCH  30  32
ENDBRANCH  24  30
BRANCH  25  34
ATOM     34  O   UNL     1     112.977 126.472 139.208  0.00  0.00    +0.000 OA
BRANCH  34  36
ATOM     35  O   UNL     1     111.673 125.886 139.225  0.00  0.00    +0.000 OA
ATOM     36  C   UNL     1     112.257 126.339 139.591  0.00  0.00    +0.000 C 
ATOM     37  C   UNL     1     112.123 126.660 140.339  0.00  0.00    +0.000 C 
ENDBRANCH  34  36
ENDBRANCH  25  34
ENDBRANCH  21  28
ENDBRANCH   5  21
TORSDOF 7
ENDMDL
MODEL 7
REMARK VINA RESULT:      -8.9     10.175     11.318
REMARK  Name = 14825856
REMARK  7 active torsions:
REMARK  status: ('A' for Active; 'I' for Inactive)
REMARK    1  A    between atoms: O_2  and  C_13
REMARK    2  A    between atoms: O_2  and  C_20
REMARK    3  A    between atoms: O_3  and  C_14
REMARK    4  A    between atoms: O_3  and  C_21
REMARK    5  A    between atoms: O_4  and  C_17
REMARK    6  A    between atoms: O_4  and  C_19
REMARK    7  A    between atoms: C_22  and  C_28
REMARK                            x       y       z     vdW  Elec       q    Type
REMARK                         _______ _______ _______ _____ _____    ______ ____
ROOT
ATOM      1  O   UNL     1     113.291 126.087 139.005  0.00  0.00    +0.000 OA
ATOM      2  O   UNL     1     112.569 128.384 138.432  0.00  0.00    +0.000 OA
ATOM      3  O   UNL     1     113.280 128.921 139.567  0.00  0.00    +0.000 OA
ATOM      4  O   UNL     1     114.750 127.100 141.313  0.00  0.00    +0.000 OA
ATOM      5  C   UNL     1     112.574 126.983 138.153  0.00  0.00    +0.000 A 
ATOM      6  C   UNL     1     112.815 126.217 138.344  0.00  0.00    +0.000 A 
ATOM      7  C   UNL     1     112.810 127.619 138.623  0.00  0.00    +0.000 A 
ATOM      8  C   UNL     1     113.287 127.489 139.284  0.00  0.00    +0.000 A 
ATOM      9  C   UNL     1     113.527 126.723 139.474  0.00  0.00    +0.000 A 
ATOM     10  C   UNL     1     113.526 128.159 139.765  0.00  0.00    +0.000 A 
ATOM     11  C   UNL     1     114.023 126.575 140.159  0.00  0.00    +0.000 A 
ATOM     12  C   UNL     1     114.022 128.030 140.454  0.00  0.00    +0.000 A 
ATOM     13  C   UNL     1     114.273 127.233 140.653  0.00  0.00    +0.000 A 
ENDROOT
BRANCH   6  15
ATOM     14  O   UNL     1     111.871 123.675 136.463  0.00  0.00    +0.000 OA
ATOM     15  C   UNL     1     112.578 125.581 137.874  0.00  0.00    +0.000 A 
ATOM     16  C   UNL     1     111.797 125.316 137.900  0.00  0.00    +0.000 A 
ATOM     17  C   UNL     1     113.123 125.211 137.377  0.00  0.00    +0.000 A 
ATOM     18  C   UNL     1     111.562 124.681 137.430  0.00  0.00    +0.000 A 
ATOM     19  C   UNL     1     112.887 124.575 136.907  0.00  0.00    +0.000 A 
ATOM     20  C   UNL     1     112.106 124.310 136.933  0.00  0.00    +0.000 A 
ENDBRANCH   6  15
BRANCH   5  21
ATOM     21  O   UNL     1     112.097 127.113 137.492  0.00  0.00    +0.000 OA
BRANCH  21  28
ATOM     22  O   UNL     1     113.146 127.607 136.658  0.00  0.00    +0.000 OA
ATOM     23  O   UNL     1     111.029 128.130 136.752  0.00  0.00    +0.000 OA
ATOM     24  C   UNL     1     112.079 128.624 135.917  0.00  0.00    +0.000 C 
ATOM     25  C   UNL     1     112.871 128.617 135.685  0.00  0.00    +0.000 C 
ATOM     26  C   UNL     1     111.822 128.123 136.520  0.00  0.00    +0.000 C 
ATOM     27  C   UNL     1     113.405 128.108 136.055  0.00  0.00    +0.000 C 
ATOM     28  C   UNL     1     112.355 127.614 136.890  0.00  0.00    +0.000 C 
ATOM     29  C   UNL     1     114.196 128.101 135.823  0.00  0.00    +0.000 C 
BRANCH  24  30
ATOM     30  O   UNL     1     111.545 129.133 135.547  0.00  0.00    +0.000 OA
BRANCH  30  32
ATOM     31  O   UNL     1     111.011 128.193 134.613  0.00  0.00    +0.000 OA
ATOM     32  C   UNL     1     110.903 128.824 135.131  0.00  0.00    +0.000 C 
ATOM     33  C   UNL     1     110.151 129.148 135.234  0.00  0.00    +0.000 C 
ENDBRANCH  30  32
ENDBRANCH  24  30
BRANCH  25  34
ATOM     34  O   UNL     1     113.128 129.118 135.083  0.00  0.00    +0.000 OA
BRANCH  34  36
ATOM     35  O   UNL     1     113.542 130.244 135.861  0.00  0.00    +0.000 OA
ATOM     36  C   UNL     1     113.679 129.711 135.247  0.00  0.00    +0.000 C 
ATOM     37  C   UNL     1     114.368 129.769 134.796  0.00  0.00    +0.000 C 
ENDBRANCH  34  36
ENDBRANCH  25  34
ENDBRANCH  21  28
ENDBRANCH   5  21
TORSDOF 7
ENDMDL
MODEL 8
REMARK VINA RESULT:      -8.9     10.045     12.311
REMARK  Name = 14825856
REMARK  7 active torsions:
REMARK  status: ('A' for Active; 'I' for Inactive)
REMARK    1  A    between atoms: O_2  and  C_13
REMARK    2  A    between atoms: O_2  and  C_20
REMARK    3  A    between atoms: O_3  and  C_14
REMARK    4  A    between atoms: O_3  and  C_21
REMARK    5  A    between atoms: O_4  and  C_17
REMARK    6  A    between atoms: O_4  and  C_19
REMARK    7  A    between atoms: C_22  and  C_28
REMARK                            x       y       z     vdW  Elec       q    Type
REMARK                         _______ _______ _______ _____ _____    ______ ____
ROOT
ATOM      1  O   UNL     1     111.344 129.701 135.653  0.00  0.00    +0.000 OA
ATOM      2  O   UNL     1     110.736 128.313 137.611  0.00  0.00    +0.000 OA
ATOM      3  O   UNL     1     109.331 128.531 137.365  0.00  0.00    +0.000 OA
ATOM      4  O   UNL     1     108.526 130.183 135.095  0.00  0.00    +0.000 OA
ATOM      5  C   UNL     1     111.733 128.891 136.765  0.00  0.00    +0.000 A 
ATOM      6  C   UNL     1     111.935 129.354 136.113  0.00  0.00    +0.000 A 
ATOM      7  C   UNL     1     110.938 128.776 136.958  0.00  0.00    +0.000 A 
ATOM      8  C   UNL     1     110.347 129.123 136.499  0.00  0.00    +0.000 A 
ATOM      9  C   UNL     1     110.551 129.585 135.847  0.00  0.00    +0.000 A 
ATOM     10  C   UNL     1     109.525 128.995 136.710  0.00  0.00    +0.000 A 
ATOM     11  C   UNL     1     109.944 129.952 135.361  0.00  0.00    +0.000 A 
ATOM     12  C   UNL     1     108.904 129.354 136.236  0.00  0.00    +0.000 A 
ATOM     13  C   UNL     1     109.115 129.835 135.556  0.00  0.00    +0.000 A 
ENDROOT
BRANCH   6  15
ATOM     14  O   UNL     1     115.110 129.816 135.341  0.00  0.00    +0.000 OA
ATOM     15  C   UNL     1     112.729 129.469 135.919  0.00  0.00    +0.000 A 
ATOM     16  C   UNL     1     113.056 129.082 135.268  0.00  0.00    +0.000 A 
ATOM     17  C   UNL     1     113.195 129.972 136.378  0.00  0.00    +0.000 A 
ATOM     18  C   UNL     1     113.849 129.197 135.076  0.00  0.00    +0.000 A 
ATOM     19  C   UNL     1     113.990 130.087 136.185  0.00  0.00    +0.000 A 
ATOM     20  C   UNL     1     114.317 129.700 135.534  0.00  0.00    +0.000 A 
ENDBRANCH   6  15
BRANCH   5  21
ATOM     21  O   UNL     1     112.324 128.544 137.224  0.00  0.00    +0.000 OA
BRANCH  21  28
ATOM     22  O   UNL     1     112.137 127.233 136.690  0.00  0.00    +0.000 OA
ATOM     23  O   UNL     1     112.786 127.890 138.667  0.00  0.00    +0.000 OA
ATOM     24  C   UNL     1     112.599 126.578 138.132  0.00  0.00    +0.000 C 
ATOM     25  C   UNL     1     112.390 126.086 137.503  0.00  0.00    +0.000 C 
ATOM     26  C   UNL     1     112.577 127.398 138.038  0.00  0.00    +0.000 C 
ATOM     27  C   UNL     1     112.159 126.413 136.782  0.00  0.00    +0.000 C 
ATOM     28  C   UNL     1     112.346 127.725 137.317  0.00  0.00    +0.000 C 
ATOM     29  C   UNL     1     111.950 125.921 136.155  0.00  0.00    +0.000 C 
BRANCH  24  30
ATOM     30  O   UNL     1     112.831 126.251 138.853  0.00  0.00    +0.000 OA
BRANCH  30  32
ATOM     31  O   UNL     1     114.240 126.086 138.690  0.00  0.00    +0.000 OA
ATOM     32  C   UNL     1     113.600 126.363 139.129  0.00  0.00    +0.000 C 
ATOM     33  C   UNL     1     113.729 126.754 139.844  0.00  0.00    +0.000 C 
ENDBRANCH  30  32
ENDBRANCH  24  30
BRANCH  25  34
ATOM     34  O   UNL     1     112.413 125.267 137.597  0.00  0.00    +0.000 OA
BRANCH  34  36
ATOM     35  O   UNL     1     111.061 125.055 138.011  0.00  0.00    +0.000 OA
ATOM     36  C   UNL     1     111.714 124.828 137.561  0.00  0.00    +0.000 C 
ATOM     37  C   UNL     1     111.670 124.163 137.075  0.00  0.00    +0.000 C 
ENDBRANCH  34  36
ENDBRANCH  25  34
ENDBRANCH  21  28
ENDBRANCH   5  21
TORSDOF 7
ENDMDL
MODEL 9
REMARK VINA RESULT:      -8.9      8.880     11.670
REMARK  Name = 14825856
REMARK  7 active torsions:
REMARK  status: ('A' for Active; 'I' for Inactive)
REMARK    1  A    between atoms: O_2  and  C_13
REMARK    2  A    between atoms: O_2  and  C_20
REMARK    3  A    between atoms: O_3  and  C_14
REMARK    4  A    between atoms: O_3  and  C_21
REMARK    5  A    between atoms: O_4  and  C_17
REMARK    6  A    between atoms: O_4  and  C_19
REMARK    7  A    between atoms: C_22  and  C_28
REMARK                            x       y       z     vdW  Elec       q    Type
REMARK                         _______ _______ _______ _____ _____    ______ ____
ROOT
ATOM      1  O   UNL     1     113.122 128.883 138.353  0.00  0.00    +0.000 OA
ATOM      2  O   UNL     1     113.286 127.607 136.239  0.00  0.00    +0.000 OA
ATOM      3  O   UNL     1     113.560 128.814 135.498  0.00  0.00    +0.000 OA
ATOM      4  O   UNL     1     113.671 131.361 136.924  0.00  0.00    +0.000 OA
ATOM      5  C   UNL     1     113.069 127.639 137.651  0.00  0.00    +0.000 A 
ATOM      6  C   UNL     1     113.015 128.065 138.355  0.00  0.00    +0.000 A 
ATOM      7  C   UNL     1     113.232 128.033 136.943  0.00  0.00    +0.000 A 
ATOM      8  C   UNL     1     113.339 128.851 136.941  0.00  0.00    +0.000 A 
ATOM      9  C   UNL     1     113.284 129.275 137.646  0.00  0.00    +0.000 A 
ATOM     10  C   UNL     1     113.507 129.248 136.199  0.00  0.00    +0.000 A 
ATOM     11  C   UNL     1     113.394 130.127 137.657  0.00  0.00    +0.000 A 
ATOM     12  C   UNL     1     113.621 130.099 136.190  0.00  0.00    +0.000 A 
ATOM     13  C   UNL     1     113.564 130.543 136.924  0.00  0.00    +0.000 A 
ENDROOT
BRANCH   6  15
ATOM     14  O   UNL     1     112.367 126.493 141.184  0.00  0.00    +0.000 OA
ATOM     15  C   UNL     1     112.852 127.672 139.063  0.00  0.00    +0.000 A 
ATOM     16  C   UNL     1     112.107 127.737 139.410  0.00  0.00    +0.000 A 
ATOM     17  C   UNL     1     113.436 127.214 139.423  0.00  0.00    +0.000 A 
ATOM     18  C   UNL     1     111.945 127.345 140.116  0.00  0.00    +0.000 A 
ATOM     19  C   UNL     1     113.274 126.820 140.130  0.00  0.00    +0.000 A 
ATOM     20  C   UNL     1     112.528 126.886 140.477  0.00  0.00    +0.000 A 
ENDBRANCH   6  15
BRANCH   5  21
ATOM     21  O   UNL     1     112.962 126.821 137.653  0.00  0.00    +0.000 OA
BRANCH  21  28
ATOM     22  O   UNL     1     111.655 126.908 137.080  0.00  0.00    +0.000 OA
ATOM     23  O   UNL     1     113.132 125.301 137.035  0.00  0.00    +0.000 OA
ATOM     24  C   UNL     1     111.826 125.387 136.463  0.00  0.00    +0.000 C 
ATOM     25  C   UNL     1     111.130 125.811 136.331  0.00  0.00    +0.000 C 
ATOM     26  C   UNL     1     112.436 125.725 136.903  0.00  0.00    +0.000 C 
ATOM     27  C   UNL     1     111.044 126.571 136.639  0.00  0.00    +0.000 C 
ATOM     28  C   UNL     1     112.351 126.485 137.212  0.00  0.00    +0.000 C 
ATOM     29  C   UNL     1     110.349 126.994 136.507  0.00  0.00    +0.000 C 
BRANCH  24  30
ATOM     30  O   UNL     1     111.911 124.627 136.154  0.00  0.00    +0.000 OA
BRANCH  30  32
ATOM     31  O   UNL     1     111.483 123.818 137.251  0.00  0.00    +0.000 OA
ATOM     32  C   UNL     1     112.033 123.988 136.661  0.00  0.00    +0.000 C 
ATOM     33  C   UNL     1     112.706 123.518 136.577  0.00  0.00    +0.000 C 
ENDBRANCH  30  32
ENDBRANCH  24  30
BRANCH  25  34
ATOM     34  O   UNL     1     110.520 125.474 135.890  0.00  0.00    +0.000 OA
BRANCH  34  36
ATOM     35  O   UNL     1     110.916 126.000 134.621  0.00  0.00    +0.000 OA
ATOM     36  C   UNL     1     110.322 125.788 135.152  0.00  0.00    +0.000 C 
ATOM     37  C   UNL     1     109.529 125.889 134.947  0.00  0.00    +0.000 C 
ENDBRANCH  34  36
ENDBRANCH  25  34
ENDBRANCH  21  28
ENDBRANCH   5  21
TORSDOF 7
ENDMDL
MODEL 10
REMARK VINA RESULT:      -8.9      9.209     11.293
REMARK  Name = 14825856
REMARK  7 active torsions:
REMARK  status: ('A' for Active; 'I' for Inactive)
REMARK    1  A    between atoms: O_2  and  C_13
REMARK    2  A    between atoms: O_2  and  C_20
REMARK    3  A    between atoms: O_3  and  C_14
REMARK    4  A    between atoms: O_3  and  C_21
REMARK    5  A    between atoms: O_4  and  C_17
REMARK    6  A    between atoms: O_4  and  C_19
REMARK    7  A    between atoms: C_22  and  C_28
REMARK                            x       y       z     vdW  Elec       q    Type
REMARK                         _______ _______ _______ _____ _____    ______ ____
ROOT
ATOM      1  O   UNL     1     111.840 125.527 136.122  0.00  0.00    +0.000 OA
ATOM      2  O   UNL     1     110.789 126.718 138.020  0.00  0.00    +0.000 OA
ATOM      3  O   UNL     1     109.542 126.821 137.302  0.00  0.00    +0.000 OA
ATOM      4  O   UNL     1     109.355 125.698 134.612  0.00  0.00    +0.000 OA
ATOM      5  C   UNL     1     111.926 126.078 137.438  0.00  0.00    +0.000 A 
ATOM      6  C   UNL     1     112.276 125.681 136.805  0.00  0.00    +0.000 A 
ATOM      7  C   UNL     1     111.139 126.321 137.387  0.00  0.00    +0.000 A 
ATOM      8  C   UNL     1     110.702 126.167 136.704  0.00  0.00    +0.000 A 
ATOM      9  C   UNL     1     111.053 125.770 136.072  0.00  0.00    +0.000 A 
ATOM     10  C   UNL     1     109.884 126.425 136.664  0.00  0.00    +0.000 A 
ATOM     11  C   UNL     1     110.609 125.604 135.355  0.00  0.00    +0.000 A 
ATOM     12  C   UNL     1     109.424 126.267 135.956  0.00  0.00    +0.000 A 
ATOM     13  C   UNL     1     109.789 125.854 135.297  0.00  0.00    +0.000 A 
ENDROOT
BRANCH   6  15
ATOM     14  O   UNL     1     115.424 124.711 137.006  0.00  0.00    +0.000 OA
ATOM     15  C   UNL     1     113.064 125.439 136.855  0.00  0.00    +0.000 A 
ATOM     16  C   UNL     1     113.262 124.770 137.296  0.00  0.00    +0.000 A 
ATOM     17  C   UNL     1     113.652 125.865 136.465  0.00  0.00    +0.000 A 
ATOM     18  C   UNL     1     114.048 124.527 137.346  0.00  0.00    +0.000 A 
ATOM     19  C   UNL     1     114.439 125.622 136.516  0.00  0.00    +0.000 A 
ATOM     20  C   UNL     1     114.638 124.953 136.956  0.00  0.00    +0.000 A 
ENDBRANCH   6  15
BRANCH   5  21
ATOM     21  O   UNL     1     112.363 126.232 138.121  0.00  0.00    +0.000 OA
BRANCH  21  28
ATOM     22  O   UNL     1     112.545 127.616 137.816  0.00  0.00    +0.000 OA
ATOM     23  O   UNL     1     112.450 126.576 139.732  0.00  0.00    +0.000 OA
ATOM     24  C   UNL     1     112.632 127.960 139.427  0.00  0.00    +0.000 C 
ATOM     25  C   UNL     1     112.702 128.567 138.871  0.00  0.00    +0.000 C 
ATOM     26  C   UNL     1     112.519 127.182 139.176  0.00  0.00    +0.000 C 
ATOM     27  C   UNL     1     112.658 128.395 138.066  0.00  0.00    +0.000 C 
ATOM     28  C   UNL     1     112.476 127.011 138.371  0.00  0.00    +0.000 C 
ATOM     29  C   UNL     1     112.727 129.001 137.511  0.00  0.00    +0.000 C 
BRANCH  24  30
ATOM     30  O   UNL     1     112.676 128.132 140.233  0.00  0.00    +0.000 OA
BRANCH  30  32
ATOM     31  O   UNL     1     114.073 127.952 140.471  0.00  0.00    +0.000 OA
ATOM     32  C   UNL     1     113.289 127.820 140.688  0.00  0.00    +0.000 C 
ATOM     33  C   UNL     1     113.118 127.375 141.361  0.00  0.00    +0.000 C 
ENDBRANCH  30  32
ENDBRANCH  24  30
BRANCH  25  34
ATOM     34  O   UNL     1     112.815 129.344 139.122  0.00  0.00    +0.000 OA
BRANCH  34  36
ATOM     35  O   UNL     1     111.460 129.786 139.240  0.00  0.00    +0.000 OA
ATOM     36  C   UNL     1     112.233 129.912 138.979  0.00  0.00    +0.000 C 
ATOM     37  C   UNL     1     112.424 130.606 138.576  0.00  0.00    +0.000 C 
ENDBRANCH  34  36
ENDBRANCH  25  34
ENDBRANCH  21  28
ENDBRANCH   5  21
TORSDOF 7
ENDMDL
