MODEL 1
REMARK VINA RESULT:     -10.5      0.000      0.000
REMARK  Name = 
REMARK  6 active torsions:
REMARK  status: ('A' for Active; 'I' for Inactive)
REMARK    1  A    between atoms: C_9  and  O_21
REMARK    2  A    between atoms: C_10  and  C_13
REMARK    3  A    between atoms: O_21  and  C_26
REMARK    4  A    between atoms: C_30  and  C_31
REMARK    5  A    between atoms: C_31  and  O_32
REMARK    6  A    between atoms: O_32  and  C_37
REMARK                            x       y       z     vdW  Elec       q    Type
REMARK                         _______ _______ _______ _____ _____    ______ ____
ROOT
ATOM      1  C   UNL     1     112.285 123.809 136.947  0.00  0.00    +0.000 A 
ATOM      2  C   UNL     1     113.255 124.065 136.934  0.00  0.00    +0.000 A 
ATOM      3  C   UNL     1     113.522 125.004 136.713  0.00  0.00    +0.000 A 
ATOM      4  C   UNL     1     111.584 124.489 136.739  0.00  0.00    +0.000 A 
ATOM      5  C   UNL     1     111.846 125.429 136.518  0.00  0.00    +0.000 A 
ATOM      6  C   UNL     1     112.818 125.685 136.505  0.00  0.00    +0.000 A 
ATOM      7  C   UNL     1     113.085 126.622 136.285  0.00  0.00    +0.000 A 
ATOM      8  C   UNL     1     112.384 127.311 136.075  0.00  0.00    +0.000 A 
ATOM      9  C   UNL     1     111.413 127.056 136.087  0.00  0.00    +0.000 A 
ATOM     10  O   UNL     1     111.142 126.111 136.309  0.00  0.00    +0.000 OA
ATOM     11  O   UNL     1     114.053 126.875 136.272  0.00  0.00    +0.000 OA
ATOM     12  O   UNL     1     114.488 125.263 136.700  0.00  0.00    +0.000 OA
ATOM     13  O   UNL     1     112.020 122.870 137.168  0.00  0.00    +0.000 OA
ENDROOT
BRANCH   9  15
ATOM     14  O   UNL     1     108.617 129.786 135.260  0.00  0.00    +0.000 OA
ATOM     15  C   UNL     1     110.719 127.734 135.881  0.00  0.00    +0.000 A 
ATOM     16  C   UNL     1     110.167 128.124 136.621  0.00  0.00    +0.000 A 
ATOM     17  C   UNL     1     109.466 128.808 136.415  0.00  0.00    +0.000 A 
ATOM     18  C   UNL     1     109.318 129.102 135.469  0.00  0.00    +0.000 A 
ATOM     19  C   UNL     1     109.875 128.708 134.729  0.00  0.00    +0.000 A 
ATOM     20  C   UNL     1     110.573 128.025 134.940  0.00  0.00    +0.000 A 
ATOM     21  O   UNL     1     108.915 129.197 137.153  0.00  0.00    +0.000 OA
ENDBRANCH   9  15
BRANCH   8  22
ATOM     22  O   UNL     1     112.655 128.243 135.856  0.00  0.00    +0.000 OA
BRANCH  22  27
ATOM     23  O   UNL     1     113.633 129.915 135.362  0.00  0.00    +0.000 OA
ATOM     24  O   UNL     1     114.340 131.120 136.798  0.00  0.00    +0.000 OA
ATOM     25  O   UNL     1     114.066 130.648 138.721  0.00  0.00    +0.000 OA
ATOM     26  O   UNL     1     112.870 128.607 137.536  0.00  0.00    +0.000 OA
ATOM     27  C   UNL     1     113.007 128.844 136.566  0.00  0.00    +0.000 C 
ATOM     28  C   UNL     1     113.498 129.681 136.320  0.00  0.00    +0.000 C 
ATOM     29  C   UNL     1     113.850 130.282 137.044  0.00  0.00    +0.000 C 
ATOM     30  C   UNL     1     113.715 130.049 138.007  0.00  0.00    +0.000 C 
ATOM     31  C   UNL     1     113.225 129.211 138.252  0.00  0.00    +0.000 C 
BRANCH  31  32
ATOM     32  C   UNL     1     113.086 128.973 139.212  0.00  0.00    +0.000 C 
BRANCH  32  33
ATOM     33  O   UNL     1     112.783 128.054 139.464  0.00  0.00    +0.000 OA
BRANCH  33  38
ATOM     34  O   UNL     1     112.133 126.221 139.896  0.00  0.00    +0.000 OA
ATOM     35  O   UNL     1     110.840 125.950 141.394  0.00  0.00    +0.000 OA
ATOM     36  O   UNL     1     110.202 127.514 142.453  0.00  0.00    +0.000 OA
ATOM     37  O   UNL     1     111.820 128.704 140.741  0.00  0.00    +0.000 OA
ATOM     38  C   UNL     1     112.142 127.918 140.206  0.00  0.00    +0.000 C 
ATOM     39  C   UNL     1     111.815 127.000 140.424  0.00  0.00    +0.000 C 
ATOM     40  C   UNL     1     111.166 126.869 141.176  0.00  0.00    +0.000 C 
ATOM     41  C   UNL     1     110.846 127.649 141.708  0.00  0.00    +0.000 C 
ATOM     42  C   UNL     1     111.172 128.567 141.490  0.00  0.00    +0.000 C 
ENDBRANCH  33  38
ENDBRANCH  32  33
ENDBRANCH  31  32
ENDBRANCH  22  27
ENDBRANCH   8  22
TORSDOF 6
ENDMDL
MODEL 2
REMARK VINA RESULT:     -10.2      1.478      3.238
REMARK  Name = 
REMARK  6 active torsions:
REMARK  status: ('A' for Active; 'I' for Inactive)
REMARK    1  A    between atoms: C_9  and  O_21
REMARK    2  A    between atoms: C_10  and  C_13
REMARK    3  A    between atoms: O_21  and  C_26
REMARK    4  A    between atoms: C_30  and  C_31
REMARK    5  A    between atoms: C_31  and  O_32
REMARK    6  A    between atoms: O_32  and  C_37
REMARK                            x       y       z     vdW  Elec       q    Type
REMARK                         _______ _______ _______ _____ _____    ______ ____
ROOT
ATOM      1  C   UNL     1     112.976 124.340 136.849  0.00  0.00    +0.000 A 
ATOM      2  C   UNL     1     112.032 124.258 136.522  0.00  0.00    +0.000 A 
ATOM      3  C   UNL     1     111.549 125.066 136.179  0.00  0.00    +0.000 A 
ATOM      4  C   UNL     1     113.438 125.226 136.833  0.00  0.00    +0.000 A 
ATOM      5  C   UNL     1     112.960 126.035 136.491  0.00  0.00    +0.000 A 
ATOM      6  C   UNL     1     112.014 125.953 136.163  0.00  0.00    +0.000 A 
ATOM      7  C   UNL     1     111.532 126.758 135.820  0.00  0.00    +0.000 A 
ATOM      8  C   UNL     1     111.991 127.651 135.802  0.00  0.00    +0.000 A 
ATOM      9  C   UNL     1     112.937 127.734 136.129  0.00  0.00    +0.000 A 
ATOM     10  O   UNL     1     113.425 126.923 136.475  0.00  0.00    +0.000 OA
ATOM     11  O   UNL     1     110.590 126.674 135.495  0.00  0.00    +0.000 OA
ATOM     12  O   UNL     1     110.607 124.988 135.852  0.00  0.00    +0.000 OA
ATOM     13  O   UNL     1     113.458 123.533 137.192  0.00  0.00    +0.000 OA
ENDROOT
BRANCH   9  15
ATOM     14  O   UNL     1     114.772 131.282 136.064  0.00  0.00    +0.000 OA
ATOM     15  C   UNL     1     113.393 128.616 136.111  0.00  0.00    +0.000 A 
ATOM     16  C   UNL     1     113.480 129.148 136.956  0.00  0.00    +0.000 A 
ATOM     17  C   UNL     1     113.939 130.037 136.940  0.00  0.00    +0.000 A 
ATOM     18  C   UNL     1     114.311 130.393 136.082  0.00  0.00    +0.000 A 
ATOM     19  C   UNL     1     114.221 129.854 135.236  0.00  0.00    +0.000 A 
ATOM     20  C   UNL     1     113.762 128.968 135.257  0.00  0.00    +0.000 A 
ATOM     21  O   UNL     1     114.027 130.570 137.783  0.00  0.00    +0.000 OA
ENDBRANCH   9  15
BRANCH   8  22
ATOM     22  O   UNL     1     111.507 128.451 135.459  0.00  0.00    +0.000 OA
BRANCH  22  27
ATOM     23  O   UNL     1     110.266 129.770 134.612  0.00  0.00    +0.000 OA
ATOM     24  O   UNL     1     108.792 130.590 135.692  0.00  0.00    +0.000 OA
ATOM     25  O   UNL     1     108.564 130.089 137.613  0.00  0.00    +0.000 OA
ATOM     26  O   UNL     1     110.658 128.609 136.961  0.00  0.00    +0.000 OA
ATOM     27  C   UNL     1     110.774 128.860 135.992  0.00  0.00    +0.000 C 
ATOM     28  C   UNL     1     110.152 129.521 135.569  0.00  0.00    +0.000 C 
ATOM     29  C   UNL     1     109.414 129.930 136.115  0.00  0.00    +0.000 C 
ATOM     30  C   UNL     1     109.297 129.681 137.076  0.00  0.00    +0.000 C 
ATOM     31  C   UNL     1     109.920 129.021 137.499  0.00  0.00    +0.000 C 
BRANCH  31  32
ATOM     32  C   UNL     1     109.808 128.769 138.458  0.00  0.00    +0.000 C 
BRANCH  32  33
ATOM     33  O   UNL     1     110.042 127.846 138.767  0.00  0.00    +0.000 OA
BRANCH  33  38
ATOM     34  O   UNL     1     110.447 125.975 139.316  0.00  0.00    +0.000 OA
ATOM     35  O   UNL     1     109.705 125.255 141.025  0.00  0.00    +0.000 OA
ATOM     36  O   UNL     1     108.561 126.411 142.178  0.00  0.00    +0.000 OA
ATOM     37  O   UNL     1     109.098 128.068 140.196  0.00  0.00    +0.000 OA
ATOM     38  C   UNL     1     109.675 127.488 139.614  0.00  0.00    +0.000 C 
ATOM     39  C   UNL     1     109.877 126.550 139.890  0.00  0.00    +0.000 C 
ATOM     40  C   UNL     1     109.503 126.193 140.749  0.00  0.00    +0.000 C 
ATOM     41  C   UNL     1     108.930 126.769 141.327  0.00  0.00    +0.000 C 
ATOM     42  C   UNL     1     108.727 127.707 141.051  0.00  0.00    +0.000 C 
ENDBRANCH  33  38
ENDBRANCH  32  33
ENDBRANCH  31  32
ENDBRANCH  22  27
ENDBRANCH   8  22
TORSDOF 6
ENDMDL
MODEL 3
REMARK VINA RESULT:      -9.9      1.655      5.319
REMARK  Name = 
REMARK  6 active torsions:
REMARK  status: ('A' for Active; 'I' for Inactive)
REMARK    1  A    between atoms: C_9  and  O_21
REMARK    2  A    between atoms: C_10  and  C_13
REMARK    3  A    between atoms: O_21  and  C_26
REMARK    4  A    between atoms: C_30  and  C_31
REMARK    5  A    between atoms: C_31  and  O_32
REMARK    6  A    between atoms: O_32  and  C_37
REMARK                            x       y       z     vdW  Elec       q    Type
REMARK                         _______ _______ _______ _____ _____    ______ ____
ROOT
ATOM      1  C   UNL     1     114.537 130.142 135.410  0.00  0.00    +0.000 A 
ATOM      2  C   UNL     1     114.445 130.605 136.295  0.00  0.00    +0.000 A 
ATOM      3  C   UNL     1     114.045 130.120 137.074  0.00  0.00    +0.000 A 
ATOM      4  C   UNL     1     114.231 129.197 135.304  0.00  0.00    +0.000 A 
ATOM      5  C   UNL     1     113.832 128.709 136.080  0.00  0.00    +0.000 A 
ATOM      6  C   UNL     1     113.739 129.173 136.966  0.00  0.00    +0.000 A 
ATOM      7  C   UNL     1     113.340 128.690 137.745  0.00  0.00    +0.000 A 
ATOM      8  C   UNL     1     113.031 127.739 137.644  0.00  0.00    +0.000 A 
ATOM      9  C   UNL     1     113.123 127.274 136.758  0.00  0.00    +0.000 A 
ATOM     10  O   UNL     1     113.525 127.760 135.972  0.00  0.00    +0.000 OA
ATOM     11  O   UNL     1     113.248 129.153 138.626  0.00  0.00    +0.000 OA
ATOM     12  O   UNL     1     113.951 130.579 137.958  0.00  0.00    +0.000 OA
ATOM     13  O   UNL     1     114.937 130.627 134.632  0.00  0.00    +0.000 OA
ENDROOT
BRANCH   9  15
ATOM     14  O   UNL     1     111.891 123.497 136.344  0.00  0.00    +0.000 OA
ATOM     15  C   UNL     1     112.818 126.335 136.656  0.00  0.00    +0.000 A 
ATOM     16  C   UNL     1     111.948 126.141 136.197  0.00  0.00    +0.000 A 
ATOM     17  C   UNL     1     111.639 125.195 136.093  0.00  0.00    +0.000 A 
ATOM     18  C   UNL     1     112.198 124.444 136.447  0.00  0.00    +0.000 A 
ATOM     19  C   UNL     1     113.071 124.645 136.908  0.00  0.00    +0.000 A 
ATOM     20  C   UNL     1     113.375 125.591 137.009  0.00  0.00    +0.000 A 
ATOM     21  O   UNL     1     110.771 125.000 135.635  0.00  0.00    +0.000 OA
ENDBRANCH   9  15
BRANCH   8  22
ATOM     22  O   UNL     1     112.634 127.261 138.422  0.00  0.00    +0.000 OA
BRANCH  22  27
ATOM     23  O   UNL     1     111.923 126.444 140.101  0.00  0.00    +0.000 OA
ATOM     24  O   UNL     1     110.096 126.938 140.758  0.00  0.00    +0.000 OA
ATOM     25  O   UNL     1     108.988 128.247 139.733  0.00  0.00    +0.000 OA
ATOM     26  O   UNL     1     111.167 128.164 138.235  0.00  0.00    +0.000 OA
ATOM     27  C   UNL     1     111.727 127.505 138.750  0.00  0.00    +0.000 C 
ATOM     28  C   UNL     1     111.370 127.096 139.592  0.00  0.00    +0.000 C 
ATOM     29  C   UNL     1     110.453 127.347 139.917  0.00  0.00    +0.000 C 
ATOM     30  C   UNL     1     109.896 128.001 139.406  0.00  0.00    +0.000 C 
ATOM     31  C   UNL     1     110.254 128.410 138.565  0.00  0.00    +0.000 C 
BRANCH  31  32
ATOM     32  C   UNL     1     109.702 129.064 138.051  0.00  0.00    +0.000 C 
BRANCH  32  33
ATOM     33  O   UNL     1     110.137 129.844 137.600  0.00  0.00    +0.000 OA
BRANCH  33  38
ATOM     34  O   UNL     1     110.836 131.652 137.141  0.00  0.00    +0.000 OA
ATOM     35  O   UNL     1     109.780 132.855 135.946  0.00  0.00    +0.000 OA
ATOM     36  O   UNL     1     108.028 132.244 135.216  0.00  0.00    +0.000 OA
ATOM     37  O   UNL     1     108.732 130.136 136.639  0.00  0.00    +0.000 OA
ATOM     38  C   UNL     1     109.614 130.442 137.007  0.00  0.00    +0.000 C 
ATOM     39  C   UNL     1     109.963 131.348 136.777  0.00  0.00    +0.000 C 
ATOM     40  C   UNL     1     109.430 131.948 136.177  0.00  0.00    +0.000 C 
ATOM     41  C   UNL     1     108.554 131.645 135.810  0.00  0.00    +0.000 C 
ATOM     42  C   UNL     1     108.204 130.739 136.041  0.00  0.00    +0.000 C 
ENDBRANCH  33  38
ENDBRANCH  32  33
ENDBRANCH  31  32
ENDBRANCH  22  27
ENDBRANCH   8  22
TORSDOF 6
ENDMDL
MODEL 4
REMARK VINA RESULT:      -9.9      1.458      4.054
REMARK  Name = 
REMARK  6 active torsions:
REMARK  status: ('A' for Active; 'I' for Inactive)
REMARK    1  A    between atoms: C_9  and  O_21
REMARK    2  A    between atoms: C_10  and  C_13
REMARK    3  A    between atoms: O_21  and  C_26
REMARK    4  A    between atoms: C_30  and  C_31
REMARK    5  A    between atoms: C_31  and  O_32
REMARK    6  A    between atoms: O_32  and  C_37
REMARK                            x       y       z     vdW  Elec       q    Type
REMARK                         _______ _______ _______ _____ _____    ______ ____
ROOT
ATOM      1  C   UNL     1     112.103 124.179 136.736  0.00  0.00    +0.000 A 
ATOM      2  C   UNL     1     113.003 124.577 136.547  0.00  0.00    +0.000 A 
ATOM      3  C   UNL     1     113.339 125.341 137.102  0.00  0.00    +0.000 A 
ATOM      4  C   UNL     1     111.539 124.541 137.477  0.00  0.00    +0.000 A 
ATOM      5  C   UNL     1     111.870 125.303 138.033  0.00  0.00    +0.000 A 
ATOM      6  C   UNL     1     112.772 125.703 137.843  0.00  0.00    +0.000 A 
ATOM      7  C   UNL     1     113.108 126.465 138.396  0.00  0.00    +0.000 A 
ATOM      8  C   UNL     1     112.545 126.833 139.143  0.00  0.00    +0.000 A 
ATOM      9  C   UNL     1     111.643 126.434 139.333  0.00  0.00    +0.000 A 
ATOM     10  O   UNL     1     111.303 125.666 138.777  0.00  0.00    +0.000 OA
ATOM     11  O   UNL     1     114.006 126.861 138.206  0.00  0.00    +0.000 OA
ATOM     12  O   UNL     1     114.236 125.741 136.916  0.00  0.00    +0.000 OA
ATOM     13  O   UNL     1     111.768 123.416 136.182  0.00  0.00    +0.000 OA
ENDROOT
BRANCH   9  15
ATOM     14  O   UNL     1     109.394 127.894 142.294  0.00  0.00    +0.000 OA
ATOM     15  C   UNL     1     111.085 126.796 140.069  0.00  0.00    +0.000 A 
ATOM     16  C   UNL     1     110.252 127.312 139.857  0.00  0.00    +0.000 A 
ATOM     17  C   UNL     1     109.689 127.678 140.598  0.00  0.00    +0.000 A 
ATOM     18  C   UNL     1     109.957 127.528 141.550  0.00  0.00    +0.000 A 
ATOM     19  C   UNL     1     110.794 127.010 141.759  0.00  0.00    +0.000 A 
ATOM     20  C   UNL     1     111.353 126.647 141.016  0.00  0.00    +0.000 A 
ATOM     21  O   UNL     1     108.857 128.193 140.387  0.00  0.00    +0.000 OA
ENDBRANCH   9  15
BRANCH   8  22
ATOM     22  O   UNL     1     112.883 127.592 139.691  0.00  0.00    +0.000 OA
BRANCH  22  27
ATOM     23  O   UNL     1     114.093 128.957 140.509  0.00  0.00    +0.000 OA
ATOM     24  O   UNL     1     114.204 130.795 139.721  0.00  0.00    +0.000 OA
ATOM     25  O   UNL     1     113.106 131.260 138.117  0.00  0.00    +0.000 OA
ATOM     26  O   UNL     1     112.388 128.742 138.493  0.00  0.00    +0.000 OA
ATOM     27  C   UNL     1     112.941 128.506 139.301  0.00  0.00    +0.000 C 
ATOM     28  C   UNL     1     113.546 129.190 139.711  0.00  0.00    +0.000 C 
ATOM     29  C   UNL     1     113.598 130.110 139.311  0.00  0.00    +0.000 C 
ATOM     30  C   UNL     1     113.050 130.346 138.509  0.00  0.00    +0.000 C 
ATOM     31  C   UNL     1     112.445 129.662 138.101  0.00  0.00    +0.000 C 
BRANCH  31  32
ATOM     32  C   UNL     1     111.896 129.891 137.299  0.00  0.00    +0.000 C 
BRANCH  32  33
ATOM     33  O   UNL     1     111.254 129.224 136.921  0.00  0.00    +0.000 OA
BRANCH  33  38
ATOM     34  O   UNL     1     109.914 127.848 136.392  0.00  0.00    +0.000 OA
ATOM     35  O   UNL     1     108.084 128.407 135.818  0.00  0.00    +0.000 OA
ATOM     36  O   UNL     1     107.603 130.341 135.776  0.00  0.00    +0.000 OA
ATOM     37  O   UNL     1     110.101 130.473 136.614  0.00  0.00    +0.000 OA
ATOM     38  C   UNL     1     110.346 129.500 136.636  0.00  0.00    +0.000 C 
ATOM     39  C   UNL     1     109.674 128.811 136.371  0.00  0.00    +0.000 C 
ATOM     40  C   UNL     1     108.757 129.096 136.084  0.00  0.00    +0.000 C 
ATOM     41  C   UNL     1     108.513 130.063 136.062  0.00  0.00    +0.000 C 
ATOM     42  C   UNL     1     109.185 130.752 136.327  0.00  0.00    +0.000 C 
ENDBRANCH  33  38
ENDBRANCH  32  33
ENDBRANCH  31  32
ENDBRANCH  22  27
ENDBRANCH   8  22
TORSDOF 6
ENDMDL
MODEL 5
REMARK VINA RESULT:      -9.8      1.972      2.691
REMARK  Name = 
REMARK  6 active torsions:
REMARK  status: ('A' for Active; 'I' for Inactive)
REMARK    1  A    between atoms: C_9  and  O_21
REMARK    2  A    between atoms: C_10  and  C_13
REMARK    3  A    between atoms: O_21  and  C_26
REMARK    4  A    between atoms: C_30  and  C_31
REMARK    5  A    between atoms: C_31  and  O_32
REMARK    6  A    between atoms: O_32  and  C_37
REMARK                            x       y       z     vdW  Elec       q    Type
REMARK                         _______ _______ _______ _____ _____    ______ ____
ROOT
ATOM      1  C   UNL     1     111.804 124.615 136.540  0.00  0.00    +0.000 A 
ATOM      2  C   UNL     1     112.429 124.824 137.297  0.00  0.00    +0.000 A 
ATOM      3  C   UNL     1     112.504 125.762 137.638  0.00  0.00    +0.000 A 
ATOM      4  C   UNL     1     111.257 125.340 136.126  0.00  0.00    +0.000 A 
ATOM      5  C   UNL     1     111.329 126.278 136.463  0.00  0.00    +0.000 A 
ATOM      6  C   UNL     1     111.955 126.488 137.221  0.00  0.00    +0.000 A 
ATOM      7  C   UNL     1     112.031 127.425 137.562  0.00  0.00    +0.000 A 
ATOM      8  C   UNL     1     111.483 128.158 137.149  0.00  0.00    +0.000 A 
ATOM      9  C   UNL     1     110.857 127.950 136.392  0.00  0.00    +0.000 A 
ATOM     10  O   UNL     1     110.779 127.006 136.046  0.00  0.00    +0.000 OA
ATOM     11  O   UNL     1     112.654 127.632 138.316  0.00  0.00    +0.000 OA
ATOM     12  O   UNL     1     113.126 125.975 138.391  0.00  0.00    +0.000 OA
ATOM     13  O   UNL     1     111.729 123.676 136.200  0.00  0.00    +0.000 OA
ENDROOT
BRANCH   9  15
ATOM     14  O   UNL     1     108.668 130.858 134.746  0.00  0.00    +0.000 OA
ATOM     15  C   UNL     1     110.315 128.672 135.982  0.00  0.00    +0.000 A 
ATOM     16  C   UNL     1     109.338 128.746 136.198  0.00  0.00    +0.000 A 
ATOM     17  C   UNL     1     108.790 129.474 135.786  0.00  0.00    +0.000 A 
ATOM     18  C   UNL     1     109.216 130.128 135.159  0.00  0.00    +0.000 A 
ATOM     19  C   UNL     1     110.196 130.050 134.946  0.00  0.00    +0.000 A 
ATOM     20  C   UNL     1     110.740 129.321 135.359  0.00  0.00    +0.000 A 
ATOM     21  O   UNL     1     107.815 129.549 136.001  0.00  0.00    +0.000 OA
ENDBRANCH   9  15
BRANCH   8  22
ATOM     22  O   UNL     1     111.562 129.089 137.492  0.00  0.00    +0.000 OA
BRANCH  22  27
ATOM     23  O   UNL     1     112.061 130.818 138.363  0.00  0.00    +0.000 OA
ATOM     24  O   UNL     1     111.278 131.303 140.142  0.00  0.00    +0.000 OA
ATOM     25  O   UNL     1     110.000 130.059 141.042  0.00  0.00    +0.000 OA
ATOM     26  O   UNL     1     110.530 128.707 138.830  0.00  0.00    +0.000 OA
ATOM     27  C   UNL     1     111.175 129.333 138.376  0.00  0.00    +0.000 C 
ATOM     28  C   UNL     1     111.424 130.199 138.812  0.00  0.00    +0.000 C 
ATOM     29  C   UNL     1     111.029 130.438 139.705  0.00  0.00    +0.000 C 
ATOM     30  C   UNL     1     110.389 129.817 140.158  0.00  0.00    +0.000 C 
ATOM     31  C   UNL     1     110.140 128.952 139.720  0.00  0.00    +0.000 C 
BRANCH  31  32
ATOM     32  C   UNL     1     109.502 128.328 140.168  0.00  0.00    +0.000 C 
BRANCH  32  33
ATOM     33  O   UNL     1     109.444 127.373 139.877  0.00  0.00    +0.000 OA
BRANCH  33  38
ATOM     34  O   UNL     1     110.054 125.483 140.031  0.00  0.00    +0.000 OA
ATOM     35  O   UNL     1     108.968 124.167 141.069  0.00  0.00    +0.000 OA
ATOM     36  O   UNL     1     107.276 124.747 141.948  0.00  0.00    +0.000 OA
ATOM     37  O   UNL     1     108.054 127.009 140.835  0.00  0.00    +0.000 OA
ATOM     38  C   UNL     1     108.906 126.719 140.391  0.00  0.00    +0.000 C 
ATOM     39  C   UNL     1     109.211 125.772 140.469  0.00  0.00    +0.000 C 
ATOM     40  C   UNL     1     108.663 125.115 140.991  0.00  0.00    +0.000 C 
ATOM     41  C   UNL     1     107.816 125.402 141.432  0.00  0.00    +0.000 C 
ATOM     42  C   UNL     1     107.511 126.349 141.354  0.00  0.00    +0.000 C 
ENDBRANCH  33  38
ENDBRANCH  32  33
ENDBRANCH  31  32
ENDBRANCH  22  27
ENDBRANCH   8  22
TORSDOF 6
ENDMDL
MODEL 6
REMARK VINA RESULT:      -9.7      2.144      4.701
REMARK  Name = 
REMARK  6 active torsions:
REMARK  status: ('A' for Active; 'I' for Inactive)
REMARK    1  A    between atoms: C_9  and  O_21
REMARK    2  A    between atoms: C_10  and  C_13
REMARK    3  A    between atoms: O_21  and  C_26
REMARK    4  A    between atoms: C_30  and  C_31
REMARK    5  A    between atoms: C_31  and  O_32
REMARK    6  A    between atoms: O_32  and  C_37
REMARK                            x       y       z     vdW  Elec       q    Type
REMARK                         _______ _______ _______ _____ _____    ______ ____
ROOT
ATOM      1  C   UNL     1     108.845 125.984 140.157  0.00  0.00    +0.000 A 
ATOM      2  C   UNL     1     109.106 126.418 141.023  0.00  0.00    +0.000 A 
ATOM      3  C   UNL     1     110.045 126.737 141.160  0.00  0.00    +0.000 A 
ATOM      4  C   UNL     1     109.520 125.869 139.430  0.00  0.00    +0.000 A 
ATOM      5  C   UNL     1     110.459 126.186 139.562  0.00  0.00    +0.000 A 
ATOM      6  C   UNL     1     110.720 126.621 140.430  0.00  0.00    +0.000 A 
ATOM      7  C   UNL     1     111.658 126.940 140.567  0.00  0.00    +0.000 A 
ATOM      8  C   UNL     1     112.341 126.827 139.839  0.00  0.00    +0.000 A 
ATOM      9  C   UNL     1     112.081 126.392 138.972  0.00  0.00    +0.000 A 
ATOM     10  O   UNL     1     111.136 126.070 138.831  0.00  0.00    +0.000 OA
ATOM     11  O   UNL     1     111.916 127.372 141.431  0.00  0.00    +0.000 OA
ATOM     12  O   UNL     1     110.309 127.170 142.021  0.00  0.00    +0.000 OA
ATOM     13  O   UNL     1     107.906 125.666 140.021  0.00  0.00    +0.000 OA
ENDROOT
BRANCH   9  15
ATOM     14  O   UNL     1     114.793 125.934 136.075  0.00  0.00    +0.000 OA
ATOM     15  C   UNL     1     112.754 126.280 138.252  0.00  0.00    +0.000 A 
ATOM     16  C   UNL     1     113.471 125.585 138.343  0.00  0.00    +0.000 A 
ATOM     17  C   UNL     1     114.150 125.469 137.618  0.00  0.00    +0.000 A 
ATOM     18  C   UNL     1     114.114 126.048 136.802  0.00  0.00    +0.000 A 
ATOM     19  C   UNL     1     113.392 126.744 136.714  0.00  0.00    +0.000 A 
ATOM     20  C   UNL     1     112.716 126.856 137.441  0.00  0.00    +0.000 A 
ATOM     21  O   UNL     1     114.866 124.776 137.709  0.00  0.00    +0.000 OA
ENDBRANCH   9  15
BRANCH   8  22
ATOM     22  O   UNL     1     113.273 127.146 139.980  0.00  0.00    +0.000 OA
BRANCH  22  27
ATOM     23  O   UNL     1     114.940 127.814 140.859  0.00  0.00    +0.000 OA
ATOM     24  O   UNL     1     115.337 129.777 140.885  0.00  0.00    +0.000 OA
ATOM     25  O   UNL     1     114.067 131.064 140.034  0.00  0.00    +0.000 OA
ATOM     26  O   UNL     1     112.834 128.769 139.566  0.00  0.00    +0.000 OA
ATOM     27  C   UNL     1     113.474 128.120 139.995  0.00  0.00    +0.000 C 
ATOM     28  C   UNL     1     114.308 128.456 140.435  0.00  0.00    +0.000 C 
ATOM     29  C   UNL     1     114.503 129.442 140.446  0.00  0.00    +0.000 C 
ATOM     30  C   UNL     1     113.869 130.088 140.020  0.00  0.00    +0.000 C 
ATOM     31  C   UNL     1     113.035 129.751 139.581  0.00  0.00    +0.000 C 
BRANCH  31  32
ATOM     32  C   UNL     1     112.399 130.392 139.155  0.00  0.00    +0.000 C 
BRANCH  32  33
ATOM     33  O   UNL     1     111.623 130.051 138.623  0.00  0.00    +0.000 OA
BRANCH  33  38
ATOM     34  O   UNL     1     109.934 129.246 137.941  0.00  0.00    +0.000 OA
ATOM     35  O   UNL     1     108.338 130.403 137.614  0.00  0.00    +0.000 OA
ATOM     36  O   UNL     1     108.440 132.361 137.972  0.00  0.00    +0.000 OA
ATOM     37  O   UNL     1     110.880 131.610 138.641  0.00  0.00    +0.000 OA
ATOM     38  C   UNL     1     110.830 130.624 138.461  0.00  0.00    +0.000 C 
ATOM     39  C   UNL     1     109.984 130.221 138.119  0.00  0.00    +0.000 C 
ATOM     40  C   UNL     1     109.186 130.806 137.956  0.00  0.00    +0.000 C 
ATOM     41  C   UNL     1     109.234 131.786 138.135  0.00  0.00    +0.000 C 
ATOM     42  C   UNL     1     110.080 132.188 138.477  0.00  0.00    +0.000 C 
ENDBRANCH  33  38
ENDBRANCH  32  33
ENDBRANCH  31  32
ENDBRANCH  22  27
ENDBRANCH   8  22
TORSDOF 6
ENDMDL
MODEL 7
REMARK VINA RESULT:      -9.7      2.095      4.257
REMARK  Name = 
REMARK  6 active torsions:
REMARK  status: ('A' for Active; 'I' for Inactive)
REMARK    1  A    between atoms: C_9  and  O_21
REMARK    2  A    between atoms: C_10  and  C_13
REMARK    3  A    between atoms: O_21  and  C_26
REMARK    4  A    between atoms: C_30  and  C_31
REMARK    5  A    between atoms: C_31  and  O_32
REMARK    6  A    between atoms: O_32  and  C_37
REMARK                            x       y       z     vdW  Elec       q    Type
REMARK                         _______ _______ _______ _____ _____    ______ ____
ROOT
ATOM      1  C   UNL     1     114.111 129.460 135.427  0.00  0.00    +0.000 A 
ATOM      2  C   UNL     1     114.518 129.749 136.297  0.00  0.00    +0.000 A 
ATOM      3  C   UNL     1     113.949 130.194 136.992  0.00  0.00    +0.000 A 
ATOM      4  C   UNL     1     113.140 129.614 135.252  0.00  0.00    +0.000 A 
ATOM      5  C   UNL     1     112.569 130.057 135.942  0.00  0.00    +0.000 A 
ATOM      6  C   UNL     1     112.976 130.348 136.813  0.00  0.00    +0.000 A 
ATOM      7  C   UNL     1     112.410 130.792 137.507  0.00  0.00    +0.000 A 
ATOM      8  C   UNL     1     111.433 130.949 137.335  0.00  0.00    +0.000 A 
ATOM      9  C   UNL     1     111.025 130.660 136.465  0.00  0.00    +0.000 A 
ATOM     10  O   UNL     1     111.594 130.212 135.764  0.00  0.00    +0.000 OA
ATOM     11  O   UNL     1     112.817 131.080 138.374  0.00  0.00    +0.000 OA
ATOM     12  O   UNL     1     114.352 130.484 137.860  0.00  0.00    +0.000 OA
ATOM     13  O   UNL     1     114.679 129.015 134.734  0.00  0.00    +0.000 OA
ENDROOT
BRANCH   9  15
ATOM     14  O   UNL     1     107.139 131.276 135.773  0.00  0.00    +0.000 OA
ATOM     15  C   UNL     1     110.060 130.814 136.293  0.00  0.00    +0.000 A 
ATOM     16  C   UNL     1     109.425 130.038 136.277  0.00  0.00    +0.000 A 
ATOM     17  C   UNL     1     108.452 130.191 136.104  0.00  0.00    +0.000 A 
ATOM     18  C   UNL     1     108.113 131.120 135.947  0.00  0.00    +0.000 A 
ATOM     19  C   UNL     1     108.753 131.896 135.963  0.00  0.00    +0.000 A 
ATOM     20  C   UNL     1     109.724 131.738 136.137  0.00  0.00    +0.000 A 
ATOM     21  O   UNL     1     107.818 129.417 136.089  0.00  0.00    +0.000 OA
ENDBRANCH   9  15
BRANCH   8  22
ATOM     22  O   UNL     1     110.873 131.392 138.029  0.00  0.00    +0.000 OA
BRANCH  22  27
ATOM     23  O   UNL     1     109.997 132.367 139.538  0.00  0.00    +0.000 OA
ATOM     24  O   UNL     1     109.513 131.385 141.215  0.00  0.00    +0.000 OA
ATOM     25  O   UNL     1     109.905 129.432 141.377  0.00  0.00    +0.000 OA
ATOM     26  O   UNL     1     110.828 129.923 138.946  0.00  0.00    +0.000 OA
ATOM     27  C   UNL     1     110.631 130.907 138.863  0.00  0.00    +0.000 C 
ATOM     28  C   UNL     1     110.192 131.395 139.620  0.00  0.00    +0.000 C 
ATOM     29  C   UNL     1     109.951 130.897 140.459  0.00  0.00    +0.000 C 
ATOM     30  C   UNL     1     110.146 129.920 140.543  0.00  0.00    +0.000 C 
ATOM     31  C   UNL     1     110.585 129.434 139.786  0.00  0.00    +0.000 C 
BRANCH  31  32
ATOM     32  C   UNL     1     110.782 128.458 139.864  0.00  0.00    +0.000 C 
BRANCH  32  33
ATOM     33  O   UNL     1     110.901 127.902 139.041  0.00  0.00    +0.000 OA
BRANCH  33  38
ATOM     34  O   UNL     1     111.338 127.188 137.234  0.00  0.00    +0.000 OA
ATOM     35  O   UNL     1     113.003 126.120 136.959  0.00  0.00    +0.000 OA
ATOM     36  O   UNL     1     114.225 125.771 138.495  0.00  0.00    +0.000 OA
ATOM     37  O   UNL     1     112.344 127.195 139.676  0.00  0.00    +0.000 OA
ATOM     38  C   UNL     1     111.727 127.372 138.904  0.00  0.00    +0.000 C 
ATOM     39  C   UNL     1     111.947 127.013 137.998  0.00  0.00    +0.000 C 
ATOM     40  C   UNL     1     112.784 126.478 137.865  0.00  0.00    +0.000 C 
ATOM     41  C   UNL     1     113.397 126.302 138.632  0.00  0.00    +0.000 C 
ATOM     42  C   UNL     1     113.177 126.660 139.537  0.00  0.00    +0.000 C 
ENDBRANCH  33  38
ENDBRANCH  32  33
ENDBRANCH  31  32
ENDBRANCH  22  27
ENDBRANCH   8  22
TORSDOF 6
ENDMDL
MODEL 8
REMARK VINA RESULT:      -9.6      1.699      4.906
REMARK  Name = 
REMARK  6 active torsions:
REMARK  status: ('A' for Active; 'I' for Inactive)
REMARK    1  A    between atoms: C_9  and  O_21
REMARK    2  A    between atoms: C_10  and  C_13
REMARK    3  A    between atoms: O_21  and  C_26
REMARK    4  A    between atoms: C_30  and  C_31
REMARK    5  A    between atoms: C_31  and  O_32
REMARK    6  A    between atoms: O_32  and  C_37
REMARK                            x       y       z     vdW  Elec       q    Type
REMARK                         _______ _______ _______ _____ _____    ______ ____
ROOT
ATOM      1  C   UNL     1     113.446 130.618 137.155  0.00  0.00    +0.000 A 
ATOM      2  C   UNL     1     112.674 131.012 137.659  0.00  0.00    +0.000 A 
ATOM      3  C   UNL     1     111.917 130.427 137.954  0.00  0.00    +0.000 A 
ATOM      4  C   UNL     1     113.463 129.641 136.947  0.00  0.00    +0.000 A 
ATOM      5  C   UNL     1     112.710 129.052 137.240  0.00  0.00    +0.000 A 
ATOM      6  C   UNL     1     111.936 129.448 137.745  0.00  0.00    +0.000 A 
ATOM      7  C   UNL     1     111.180 128.864 138.040  0.00  0.00    +0.000 A 
ATOM      8  C   UNL     1     111.192 127.881 137.833  0.00  0.00    +0.000 A 
ATOM      9  C   UNL     1     111.964 127.485 137.329  0.00  0.00    +0.000 A 
ATOM     10  O   UNL     1     112.727 128.072 137.031  0.00  0.00    +0.000 OA
ATOM     11  O   UNL     1     110.411 129.259 138.542  0.00  0.00    +0.000 OA
ATOM     12  O   UNL     1     111.145 130.817 138.456  0.00  0.00    +0.000 OA
ATOM     13  O   UNL     1     114.202 131.204 136.861  0.00  0.00    +0.000 OA
ENDROOT
BRANCH   9  15
ATOM     14  O   UNL     1     112.016 123.577 136.499  0.00  0.00    +0.000 OA
ATOM     15  C   UNL     1     111.978 126.514 137.124  0.00  0.00    +0.000 A 
ATOM     16  C   UNL     1     111.388 126.149 136.401  0.00  0.00    +0.000 A 
ATOM     17  C   UNL     1     111.400 125.171 136.192  0.00  0.00    +0.000 A 
ATOM     18  C   UNL     1     112.002 124.557 136.706  0.00  0.00    +0.000 A 
ATOM     19  C   UNL     1     112.594 124.928 137.431  0.00  0.00    +0.000 A 
ATOM     20  C   UNL     1     112.577 125.906 137.635  0.00  0.00    +0.000 A 
ATOM     21  O   UNL     1     110.811 124.805 135.471  0.00  0.00    +0.000 OA
ENDBRANCH   9  15
BRANCH   8  22
ATOM     22  O   UNL     1     110.437 127.303 138.129  0.00  0.00    +0.000 OA
BRANCH  22  27
ATOM     23  O   UNL     1     108.869 126.218 138.729  0.00  0.00    +0.000 OA
ATOM     24  O   UNL     1     108.650 125.767 140.668  0.00  0.00    +0.000 OA
ATOM     25  O   UNL     1     109.998 126.402 141.999  0.00  0.00    +0.000 OA
ATOM     26  O   UNL     1     111.004 127.397 139.763  0.00  0.00    +0.000 OA
ATOM     27  C   UNL     1     110.325 127.077 139.091  0.00  0.00    +0.000 C 
ATOM     28  C   UNL     1     109.540 126.534 139.393  0.00  0.00    +0.000 C 
ATOM     29  C   UNL     1     109.435 126.310 140.367  0.00  0.00    +0.000 C 
ATOM     30  C   UNL     1     110.108 126.627 141.035  0.00  0.00    +0.000 C 
ATOM     31  C   UNL     1     110.892 127.170 140.733  0.00  0.00    +0.000 C 
BRANCH  31  32
ATOM     32  C   UNL     1     111.567 127.489 141.395  0.00  0.00    +0.000 C 
BRANCH  32  33
ATOM     33  O   UNL     1     112.506 127.679 141.106  0.00  0.00    +0.000 OA
BRANCH  33  38
ATOM     34  O   UNL     1     114.255 128.112 140.258  0.00  0.00    +0.000 OA
ATOM     35  O   UNL     1     115.028 129.944 140.448  0.00  0.00    +0.000 OA
ATOM     36  O   UNL     1     114.047 131.335 141.486  0.00  0.00    +0.000 OA
ATOM     37  O   UNL     1     112.398 129.289 141.722  0.00  0.00    +0.000 OA
ATOM     38  C   UNL     1     112.891 128.587 141.199  0.00  0.00    +0.000 C 
ATOM     39  C   UNL     1     113.767 128.805 140.775  0.00  0.00    +0.000 C 
ATOM     40  C   UNL     1     114.151 129.726 140.873  0.00  0.00    +0.000 C 
ATOM     41  C   UNL     1     113.662 130.424 141.392  0.00  0.00    +0.000 C 
ATOM     42  C   UNL     1     112.786 130.205 141.816  0.00  0.00    +0.000 C 
ENDBRANCH  33  38
ENDBRANCH  32  33
ENDBRANCH  31  32
ENDBRANCH  22  27
ENDBRANCH   8  22
TORSDOF 6
ENDMDL
MODEL 9
REMARK VINA RESULT:      -9.5      2.248      4.152
REMARK  Name = 
REMARK  6 active torsions:
REMARK  status: ('A' for Active; 'I' for Inactive)
REMARK    1  A    between atoms: C_9  and  O_21
REMARK    2  A    between atoms: C_10  and  C_13
REMARK    3  A    between atoms: O_21  and  C_26
REMARK    4  A    between atoms: C_30  and  C_31
REMARK    5  A    between atoms: C_31  and  O_32
REMARK    6  A    between atoms: O_32  and  C_37
REMARK                            x       y       z     vdW  Elec       q    Type
REMARK                         _______ _______ _______ _____ _____    ______ ____
ROOT
ATOM      1  C   UNL     1     112.857 125.766 137.360  0.00  0.00    +0.000 A 
ATOM      2  C   UNL     1     112.203 126.109 136.680  0.00  0.00    +0.000 A 
ATOM      3  C   UNL     1     111.930 127.072 136.691  0.00  0.00    +0.000 A 
ATOM      4  C   UNL     1     113.236 126.384 138.047  0.00  0.00    +0.000 A 
ATOM      5  C   UNL     1     112.966 127.346 138.061  0.00  0.00    +0.000 A 
ATOM      6  C   UNL     1     112.311 127.689 137.380  0.00  0.00    +0.000 A 
ATOM      7  C   UNL     1     112.037 128.651 137.390  0.00  0.00    +0.000 A 
ATOM      8  C   UNL     1     112.416 129.276 138.079  0.00  0.00    +0.000 A 
ATOM      9  C   UNL     1     113.070 128.934 138.759  0.00  0.00    +0.000 A 
ATOM     10  O   UNL     1     113.347 127.965 138.752  0.00  0.00    +0.000 OA
ATOM     11  O   UNL     1     111.386 128.990 136.711  0.00  0.00    +0.000 OA
ATOM     12  O   UNL     1     111.279 127.417 136.015  0.00  0.00    +0.000 OA
ATOM     13  O   UNL     1     113.130 124.803 137.349  0.00  0.00    +0.000 OA
ENDROOT
BRANCH   9  15
ATOM     14  O   UNL     1     114.576 131.412 141.508  0.00  0.00    +0.000 OA
ATOM     15  C   UNL     1     113.445 129.550 139.441  0.00  0.00    +0.000 A 
ATOM     16  C   UNL     1     113.092 129.530 140.379  0.00  0.00    +0.000 A 
ATOM     17  C   UNL     1     113.469 130.150 141.068  0.00  0.00    +0.000 A 
ATOM     18  C   UNL     1     114.197 130.790 140.820  0.00  0.00    +0.000 A 
ATOM     19  C   UNL     1     114.548 130.807 139.876  0.00  0.00    +0.000 A 
ATOM     20  C   UNL     1     114.169 130.186 139.192  0.00  0.00    +0.000 A 
ATOM     21  O   UNL     1     113.118 130.130 142.005  0.00  0.00    +0.000 OA
ENDBRANCH   9  15
BRANCH   8  22
ATOM     22  O   UNL     1     112.140 130.233 138.085  0.00  0.00    +0.000 OA
BRANCH  22  27
ATOM     23  O   UNL     1     111.455 132.078 137.736  0.00  0.00    +0.000 OA
ATOM     24  O   UNL     1     109.614 132.590 138.335  0.00  0.00    +0.000 OA
ATOM     25  O   UNL     1     108.465 131.255 139.279  0.00  0.00    +0.000 OA
ATOM     26  O   UNL     1     110.646 129.819 138.857  0.00  0.00    +0.000 OA
ATOM     27  C   UNL     1     111.226 130.490 138.381  0.00  0.00    +0.000 C 
ATOM     28  C   UNL     1     110.882 131.414 138.206  0.00  0.00    +0.000 C 
ATOM     29  C   UNL     1     109.958 131.666 138.509  0.00  0.00    +0.000 C 
ATOM     30  C   UNL     1     109.380 131.000 138.982  0.00  0.00    +0.000 C 
ATOM     31  C   UNL     1     109.725 130.077 139.155  0.00  0.00    +0.000 C 
BRANCH  31  32
ATOM     32  C   UNL     1     109.153 129.408 139.627  0.00  0.00    +0.000 C 
BRANCH  32  33
ATOM     33  O   UNL     1     109.441 128.452 139.686  0.00  0.00    +0.000 OA
BRANCH  33  38
ATOM     34  O   UNL     1     110.081 126.571 139.832  0.00  0.00    +0.000 OA
ATOM     35  O   UNL     1     109.282 125.349 141.195  0.00  0.00    +0.000 OA
ATOM     36  O   UNL     1     107.845 126.014 142.406  0.00  0.00    +0.000 OA
ATOM     37  O   UNL     1     108.322 128.177 140.972  0.00  0.00    +0.000 OA
ATOM     38  C   UNL     1     109.046 127.844 140.361  0.00  0.00    +0.000 C 
ATOM     39  C   UNL     1     109.366 126.902 140.435  0.00  0.00    +0.000 C 
ATOM     40  C   UNL     1     108.962 126.292 141.121  0.00  0.00    +0.000 C 
ATOM     41  C   UNL     1     108.243 126.622 141.728  0.00  0.00    +0.000 C 
ATOM     42  C   UNL     1     107.923 127.565 141.654  0.00  0.00    +0.000 C 
ENDBRANCH  33  38
ENDBRANCH  32  33
ENDBRANCH  31  32
ENDBRANCH  22  27
ENDBRANCH   8  22
TORSDOF 6
ENDMDL
MODEL 10
REMARK VINA RESULT:      -9.5      1.855      4.385
REMARK  Name = 
REMARK  6 active torsions:
REMARK  status: ('A' for Active; 'I' for Inactive)
REMARK    1  A    between atoms: C_9  and  O_21
REMARK    2  A    between atoms: C_10  and  C_13
REMARK    3  A    between atoms: O_21  and  C_26
REMARK    4  A    between atoms: C_30  and  C_31
REMARK    5  A    between atoms: C_31  and  O_32
REMARK    6  A    between atoms: O_32  and  C_37
REMARK                            x       y       z     vdW  Elec       q    Type
REMARK                         _______ _______ _______ _____ _____    ______ ____
ROOT
ATOM      1  C   UNL     1     111.989 129.138 141.566  0.00  0.00    +0.000 A 
ATOM      2  C   UNL     1     112.987 129.119 141.463  0.00  0.00    +0.000 A 
ATOM      3  C   UNL     1     113.412 129.492 140.637  0.00  0.00    +0.000 A 
ATOM      4  C   UNL     1     111.418 129.528 140.846  0.00  0.00    +0.000 A 
ATOM      5  C   UNL     1     111.838 129.902 140.019  0.00  0.00    +0.000 A 
ATOM      6  C   UNL     1     112.837 129.883 139.916  0.00  0.00    +0.000 A 
ATOM      7  C   UNL     1     113.263 130.255 139.092  0.00  0.00    +0.000 A 
ATOM      8  C   UNL     1     112.693 130.649 138.364  0.00  0.00    +0.000 A 
ATOM      9  C   UNL     1     111.694 130.668 138.466  0.00  0.00    +0.000 A 
ATOM     10  O   UNL     1     111.263 130.293 139.296  0.00  0.00    +0.000 OA
ATOM     11  O   UNL     1     114.257 130.236 138.991  0.00  0.00    +0.000 OA
ATOM     12  O   UNL     1     114.406 129.475 140.531  0.00  0.00    +0.000 OA
ATOM     13  O   UNL     1     111.565 128.764 142.392  0.00  0.00    +0.000 OA
ENDROOT
BRANCH   9  15
ATOM     14  O   UNL     1     109.421 132.237 135.580  0.00  0.00    +0.000 OA
ATOM     15  C   UNL     1     111.129 131.057 137.749  0.00  0.00    +0.000 A 
ATOM     16  C   UNL     1     111.091 132.051 137.627  0.00  0.00    +0.000 A 
ATOM     17  C   UNL     1     110.523 132.445 136.905  0.00  0.00    +0.000 A 
ATOM     18  C   UNL     1     109.991 131.846 136.304  0.00  0.00    +0.000 A 
ATOM     19  C   UNL     1     110.032 130.848 136.430  0.00  0.00    +0.000 A 
ATOM     20  C   UNL     1     110.602 130.460 137.153  0.00  0.00    +0.000 A 
ATOM     21  O   UNL     1     110.484 133.437 136.782  0.00  0.00    +0.000 OA
ENDBRANCH   9  15
BRANCH   8  22
ATOM     22  O   UNL     1     113.120 131.019 137.545  0.00  0.00    +0.000 OA
BRANCH  22  27
ATOM     23  O   UNL     1     114.341 131.749 136.141  0.00  0.00    +0.000 OA
ATOM     24  O   UNL     1     115.166 130.517 134.794  0.00  0.00    +0.000 OA
ATOM     25  O   UNL     1     114.767 128.559 134.857  0.00  0.00    +0.000 OA
ATOM     26  O   UNL     1     113.331 129.423 136.905  0.00  0.00    +0.000 OA
ATOM     27  C   UNL     1     113.532 130.409 136.875  0.00  0.00    +0.000 C 
ATOM     28  C   UNL     1     114.143 130.774 136.171  0.00  0.00    +0.000 C 
ATOM     29  C   UNL     1     114.554 130.152 135.498  0.00  0.00    +0.000 C 
ATOM     30  C   UNL     1     114.357 129.172 135.527  0.00  0.00    +0.000 C 
ATOM     31  C   UNL     1     113.745 128.808 136.231  0.00  0.00    +0.000 C 
BRANCH  31  32
ATOM     32  C   UNL     1     113.544 127.831 136.264  0.00  0.00    +0.000 C 
BRANCH  32  33
ATOM     33  O   UNL     1     113.131 127.430 137.083  0.00  0.00    +0.000 OA
BRANCH  33  38
ATOM     34  O   UNL     1     111.789 126.814 138.420  0.00  0.00    +0.000 OA
ATOM     35  O   UNL     1     111.196 124.906 138.431  0.00  0.00    +0.000 OA
ATOM     36  O   UNL     1     111.948 123.624 137.103  0.00  0.00    +0.000 OA
ATOM     37  O   UNL     1     113.213 125.837 136.421  0.00  0.00    +0.000 OA
ATOM     38  C   UNL     1     112.835 126.484 137.089  0.00  0.00    +0.000 C 
ATOM     39  C   UNL     1     112.163 126.174 137.759  0.00  0.00    +0.000 C 
ATOM     40  C   UNL     1     111.869 125.216 137.760  0.00  0.00    +0.000 C 
ATOM     41  C   UNL     1     112.243 124.572 137.097  0.00  0.00    +0.000 C 
ATOM     42  C   UNL     1     112.915 124.882 136.428  0.00  0.00    +0.000 C 
ENDBRANCH  33  38
ENDBRANCH  32  33
ENDBRANCH  31  32
ENDBRANCH  22  27
ENDBRANCH   8  22
TORSDOF 6
ENDMDL
