MODEL 1
REMARK VINA RESULT:      -8.7      0.000      0.000
REMARK  Name = 44259892
REMARK  4 active torsions:
REMARK  status: ('A' for Active; 'I' for Inactive)
REMARK    1  A    between atoms: O_2  and  C_14
REMARK    2  A    between atoms: O_3  and  C_18
REMARK    3  A    between atoms: O_8  and  C_23
REMARK    4  A    between atoms: C_11  and  C_13
REMARK                            x       y       z     vdW  Elec       q    Type
REMARK                         _______ _______ _______ _____ _____    ______ ____
ROOT
ATOM      1  O   UNL     1     105.229 124.316 147.340  0.00  0.00    +0.000 OA
ATOM      2  O   UNL     1     107.555 125.654 146.269  0.00  0.00    +0.000 OA
ATOM      3  O   UNL     1     106.370 125.467 145.469  0.00  0.00    +0.000 OA
ATOM      4  O   UNL     1     108.366 125.444 147.737  0.00  0.00    +0.000 OA
ATOM      5  C   UNL     1     106.380 124.977 146.812  0.00  0.00    +0.000 A 
ATOM      6  C   UNL     1     104.838 124.422 146.622  0.00  0.00    +0.000 A 
ATOM      7  C   UNL     1     106.000 124.594 147.436  0.00  0.00    +0.000 A 
ATOM      8  C   UNL     1     105.218 124.805 145.998  0.00  0.00    +0.000 A 
ATOM      9  C   UNL     1     105.990 125.083 146.093  0.00  0.00    +0.000 A 
ATOM     10  C   UNL     1     107.184 125.272 146.898  0.00  0.00    +0.000 A 
ATOM     11  C   UNL     1     106.396 124.478 148.189  0.00  0.00    +0.000 A 
ATOM     12  C   UNL     1     107.199 124.765 148.294  0.00  0.00    +0.000 A 
ATOM     13  C   UNL     1     107.595 125.165 147.644  0.00  0.00    +0.000 A 
ENDROOT
BRANCH   6  16
ATOM     14  O   UNL     1     103.575 125.246 147.291  0.00  0.00    +0.000 OA
ATOM     15  O   UNL     1     102.033 124.691 147.101  0.00  0.00    +0.000 OA
ATOM     16  C   UNL     1     104.068 124.144 146.526  0.00  0.00    +0.000 A 
ATOM     17  C   UNL     1     103.436 124.557 146.861  0.00  0.00    +0.000 A 
ATOM     18  C   UNL     1     103.927 123.454 146.096  0.00  0.00    +0.000 A 
ATOM     19  C   UNL     1     102.665 124.279 146.766  0.00  0.00    +0.000 A 
ATOM     20  C   UNL     1     102.526 123.589 146.336  0.00  0.00    +0.000 A 
ATOM     21  C   UNL     1     103.157 123.176 146.001  0.00  0.00    +0.000 A 
BRANCH  20  22
ATOM     22  O   UNL     1     101.754 123.311 146.241  0.00  0.00    +0.000 OA
ATOM     23  C   UNL     1     101.589 122.740 145.669  0.00  0.00    +0.000 C 
ENDBRANCH  20  22
ENDBRANCH   6  16
BRANCH   8  24
ATOM     24  O   UNL     1     104.828 124.911 145.279  0.00  0.00    +0.000 OA
ATOM     25  C   UNL     1     105.258 125.090 144.598  0.00  0.00    +0.000 C 
ENDBRANCH   8  24
BRANCH  12  26
ATOM     26  O   UNL     1     107.588 124.658 149.014  0.00  0.00    +0.000 OA
ATOM     27  C   UNL     1     107.237 124.207 149.609  0.00  0.00    +0.000 C 
ENDBRANCH  12  26
TORSDOF 4
ENDMDL
MODEL 2
REMARK VINA RESULT:      -8.4      7.296      9.807
REMARK  Name = 44259892
REMARK  4 active torsions:
REMARK  status: ('A' for Active; 'I' for Inactive)
REMARK    1  A    between atoms: O_2  and  C_14
REMARK    2  A    between atoms: O_3  and  C_18
REMARK    3  A    between atoms: O_8  and  C_23
REMARK    4  A    between atoms: C_11  and  C_13
REMARK                            x       y       z     vdW  Elec       q    Type
REMARK                         _______ _______ _______ _____ _____    ______ ____
ROOT
ATOM      1  O   UNL     1     104.524 123.618 137.710  0.00  0.00    +0.000 OA
ATOM      2  O   UNL     1     101.838 122.997 136.849  0.00  0.00    +0.000 OA
ATOM      3  O   UNL     1     102.135 123.245 138.238  0.00  0.00    +0.000 OA
ATOM      4  O   UNL     1     102.366 122.874 135.249  0.00  0.00    +0.000 OA
ATOM      5  C   UNL     1     103.196 123.311 137.283  0.00  0.00    +0.000 A 
ATOM      6  C   UNL     1     104.261 123.677 138.490  0.00  0.00    +0.000 A 
ATOM      7  C   UNL     1     103.992 123.435 137.107  0.00  0.00    +0.000 A 
ATOM      8  C   UNL     1     103.464 123.552 138.666  0.00  0.00    +0.000 A 
ATOM      9  C   UNL     1     102.932 123.369 138.062  0.00  0.00    +0.000 A 
ATOM     10  C   UNL     1     102.631 123.119 136.663  0.00  0.00    +0.000 A 
ATOM     11  C   UNL     1     104.280 123.377 136.299  0.00  0.00    +0.000 A 
ATOM     12  C   UNL     1     103.730 123.187 135.666  0.00  0.00    +0.000 A 
ATOM     13  C   UNL     1     102.900 123.057 135.850  0.00  0.00    +0.000 A 
ENDROOT
BRANCH   6  16
ATOM     14  O   UNL     1     104.695 125.246 138.758  0.00  0.00    +0.000 OA
ATOM     15  O   UNL     1     105.760 125.612 139.965  0.00  0.00    +0.000 OA
ATOM     16  C   UNL     1     104.792 123.859 139.092  0.00  0.00    +0.000 A 
ATOM     17  C   UNL     1     105.010 124.644 139.227  0.00  0.00    +0.000 A 
ATOM     18  C   UNL     1     105.108 123.258 139.562  0.00  0.00    +0.000 A 
ATOM     19  C   UNL     1     105.542 124.827 139.830  0.00  0.00    +0.000 A 
ATOM     20  C   UNL     1     105.857 124.226 140.299  0.00  0.00    +0.000 A 
ATOM     21  C   UNL     1     105.639 123.441 140.165  0.00  0.00    +0.000 A 
BRANCH  20  22
ATOM     22  O   UNL     1     106.389 124.409 140.903  0.00  0.00    +0.000 OA
ATOM     23  C   UNL     1     106.880 123.822 141.211  0.00  0.00    +0.000 C 
ENDBRANCH  20  22
ENDBRANCH   6  16
BRANCH   8  24
ATOM     24  O   UNL     1     103.200 123.611 139.445  0.00  0.00    +0.000 OA
ATOM     25  C   UNL     1     102.532 123.191 139.687  0.00  0.00    +0.000 C 
ENDBRANCH   8  24
BRANCH  12  26
ATOM     26  O   UNL     1     103.997 123.129 134.888  0.00  0.00    +0.000 OA
ATOM     27  C   UNL     1     104.581 123.643 134.613  0.00  0.00    +0.000 C 
ENDBRANCH  12  26
TORSDOF 4
ENDMDL
MODEL 3
REMARK VINA RESULT:      -8.2      1.690      4.756
REMARK  Name = 44259892
REMARK  4 active torsions:
REMARK  status: ('A' for Active; 'I' for Inactive)
REMARK    1  A    between atoms: O_2  and  C_14
REMARK    2  A    between atoms: O_3  and  C_18
REMARK    3  A    between atoms: O_8  and  C_23
REMARK    4  A    between atoms: C_11  and  C_13
REMARK                            x       y       z     vdW  Elec       q    Type
REMARK                         _______ _______ _______ _____ _____    ______ ____
ROOT
ATOM      1  O   UNL     1     103.334 124.353 146.157  0.00  0.00    +0.000 OA
ATOM      2  O   UNL     1     102.017 123.588 148.611  0.00  0.00    +0.000 OA
ATOM      3  O   UNL     1     103.307 124.233 148.629  0.00  0.00    +0.000 OA
ATOM      4  O   UNL     1     100.711 122.972 147.733  0.00  0.00    +0.000 OA
ATOM      5  C   UNL     1     102.682 123.974 147.370  0.00  0.00    +0.000 A 
ATOM      6  C   UNL     1     103.969 124.652 146.591  0.00  0.00    +0.000 A 
ATOM      7  C   UNL     1     102.691 124.014 146.546  0.00  0.00    +0.000 A 
ATOM      8  C   UNL     1     103.960 124.612 147.415  0.00  0.00    +0.000 A 
ATOM      9  C   UNL     1     103.316 124.273 147.805  0.00  0.00    +0.000 A 
ATOM     10  C   UNL     1     102.017 123.623 147.788  0.00  0.00    +0.000 A 
ATOM     11  C   UNL     1     102.036 123.706 146.082  0.00  0.00    +0.000 A 
ATOM     12  C   UNL     1     101.363 123.352 146.482  0.00  0.00    +0.000 A 
ATOM     13  C   UNL     1     101.354 123.311 147.341  0.00  0.00    +0.000 A 
ENDROOT
BRANCH   6  16
ATOM     14  O   UNL     1     105.060 123.691 145.810  0.00  0.00    +0.000 OA
ATOM     15  O   UNL     1     106.347 124.368 145.032  0.00  0.00    +0.000 OA
ATOM     16  C   UNL     1     104.612 124.990 146.202  0.00  0.00    +0.000 A 
ATOM     17  C   UNL     1     105.158 124.510 145.812  0.00  0.00    +0.000 A 
ATOM     18  C   UNL     1     104.712 125.809 146.203  0.00  0.00    +0.000 A 
ATOM     19  C   UNL     1     105.802 124.848 145.422  0.00  0.00    +0.000 A 
ATOM     20  C   UNL     1     105.900 125.667 145.424  0.00  0.00    +0.000 A 
ATOM     21  C   UNL     1     105.355 126.148 145.815  0.00  0.00    +0.000 A 
BRANCH  20  22
ATOM     22  O   UNL     1     106.544 126.006 145.034  0.00  0.00    +0.000 OA
ATOM     23  C   UNL     1     106.588 126.825 144.946  0.00  0.00    +0.000 C 
ENDBRANCH  20  22
ENDBRANCH   6  16
BRANCH   8  24
ATOM     24  O   UNL     1     104.594 124.910 147.850  0.00  0.00    +0.000 OA
ATOM     25  C   UNL     1     104.541 124.968 148.672  0.00  0.00    +0.000 C 
ENDBRANCH   8  24
BRANCH  12  26
ATOM     26  O   UNL     1     100.730 123.054 146.045  0.00  0.00    +0.000 OA
ATOM     27  C   UNL     1     100.829 122.873 145.246  0.00  0.00    +0.000 C 
ENDBRANCH  12  26
TORSDOF 4
ENDMDL
MODEL 4
REMARK VINA RESULT:      -7.9      0.966      4.679
REMARK  Name = 44259892
REMARK  4 active torsions:
REMARK  status: ('A' for Active; 'I' for Inactive)
REMARK    1  A    between atoms: O_2  and  C_14
REMARK    2  A    between atoms: O_3  and  C_18
REMARK    3  A    between atoms: O_8  and  C_23
REMARK    4  A    between atoms: C_11  and  C_13
REMARK                            x       y       z     vdW  Elec       q    Type
REMARK                         _______ _______ _______ _____ _____    ______ ____
ROOT
ATOM      1  O   UNL     1     104.445 124.146 146.909  0.00  0.00    +0.000 OA
ATOM      2  O   UNL     1     101.730 124.963 147.458  0.00  0.00    +0.000 OA
ATOM      3  O   UNL     1     102.841 125.557 148.157  0.00  0.00    +0.000 OA
ATOM      4  O   UNL     1     101.154 123.865 146.309  0.00  0.00    +0.000 OA
ATOM      5  C   UNL     1     103.102 124.549 147.179  0.00  0.00    +0.000 A 
ATOM      6  C   UNL     1     104.721 124.684 147.471  0.00  0.00    +0.000 A 
ATOM      7  C   UNL     1     103.637 124.078 146.763  0.00  0.00    +0.000 A 
ATOM      8  C   UNL     1     104.186 125.154 147.887  0.00  0.00    +0.000 A 
ATOM      9  C   UNL     1     103.376 125.087 147.741  0.00  0.00    +0.000 A 
ATOM     10  C   UNL     1     102.256 124.488 147.037  0.00  0.00    +0.000 A 
ATOM     11  C   UNL     1     103.363 123.514 146.175  0.00  0.00    +0.000 A 
ATOM     12  C   UNL     1     102.521 123.439 146.019  0.00  0.00    +0.000 A 
ATOM     13  C   UNL     1     101.964 123.930 146.453  0.00  0.00    +0.000 A 
ENDROOT
BRANCH   6  16
ATOM     14  O   UNL     1     105.716 125.317 146.317  0.00  0.00    +0.000 OA
ATOM     15  O   UNL     1     107.335 125.452 146.609  0.00  0.00    +0.000 OA
ATOM     16  C   UNL     1     105.529 124.751 147.616  0.00  0.00    +0.000 A 
ATOM     17  C   UNL     1     106.027 125.068 147.040  0.00  0.00    +0.000 A 
ATOM     18  C   UNL     1     105.841 124.502 148.338  0.00  0.00    +0.000 A 
ATOM     19  C   UNL     1     106.837 125.135 147.185  0.00  0.00    +0.000 A 
ATOM     20  C   UNL     1     107.148 124.886 147.908  0.00  0.00    +0.000 A 
ATOM     21  C   UNL     1     106.650 124.569 148.484  0.00  0.00    +0.000 A 
BRANCH  20  22
ATOM     22  O   UNL     1     107.958 124.954 148.053  0.00  0.00    +0.000 OA
ATOM     23  C   UNL     1     108.291 124.581 148.709  0.00  0.00    +0.000 C 
ENDBRANCH  20  22
ENDBRANCH   6  16
BRANCH   8  24
ATOM     24  O   UNL     1     104.460 125.692 148.449  0.00  0.00    +0.000 OA
ATOM     25  C   UNL     1     103.928 126.186 148.842  0.00  0.00    +0.000 C 
ENDBRANCH   8  24
BRANCH  12  26
ATOM     26  O   UNL     1     102.250 122.901 145.456  0.00  0.00    +0.000 OA
ATOM     27  C   UNL     1     102.703 122.740 144.787  0.00  0.00    +0.000 C 
ENDBRANCH  12  26
TORSDOF 4
ENDMDL
MODEL 5
REMARK VINA RESULT:      -7.8      6.670      8.223
REMARK  Name = 44259892
REMARK  4 active torsions:
REMARK  status: ('A' for Active; 'I' for Inactive)
REMARK    1  A    between atoms: O_2  and  C_14
REMARK    2  A    between atoms: O_3  and  C_18
REMARK    3  A    between atoms: O_8  and  C_23
REMARK    4  A    between atoms: C_11  and  C_13
REMARK                            x       y       z     vdW  Elec       q    Type
REMARK                         _______ _______ _______ _____ _____    ______ ____
ROOT
ATOM      1  O   UNL     1     103.568 130.071 142.179  0.00  0.00    +0.000 OA
ATOM      2  O   UNL     1     104.199 127.611 140.802  0.00  0.00    +0.000 OA
ATOM      3  O   UNL     1     103.283 128.569 140.233  0.00  0.00    +0.000 OA
ATOM      4  O   UNL     1     105.231 127.157 142.061  0.00  0.00    +0.000 OA
ATOM      5  C   UNL     1     103.881 128.854 141.499  0.00  0.00    +0.000 A 
ATOM      6  C   UNL     1     103.065 130.287 141.562  0.00  0.00    +0.000 A 
ATOM      7  C   UNL     1     103.976 129.355 142.148  0.00  0.00    +0.000 A 
ATOM      8  C   UNL     1     102.970 129.786 140.913  0.00  0.00    +0.000 A 
ATOM      9  C   UNL     1     103.378 129.069 140.881  0.00  0.00    +0.000 A 
ATOM     10  C   UNL     1     104.300 128.104 141.454  0.00  0.00    +0.000 A 
ATOM     11  C   UNL     1     104.497 129.141 142.798  0.00  0.00    +0.000 A 
ATOM     12  C   UNL     1     104.924 128.396 142.771  0.00  0.00    +0.000 A 
ATOM     13  C   UNL     1     104.825 127.874 142.094  0.00  0.00    +0.000 A 
ENDROOT
BRANCH   6  16
ATOM     14  O   UNL     1     103.847 131.697 141.208  0.00  0.00    +0.000 OA
ATOM     15  O   UNL     1     103.031 133.130 141.271  0.00  0.00    +0.000 OA
ATOM     16  C   UNL     1     102.658 131.003 141.593  0.00  0.00    +0.000 A 
ATOM     17  C   UNL     1     103.049 131.708 141.416  0.00  0.00    +0.000 A 
ATOM     18  C   UNL     1     101.859 131.015 141.800  0.00  0.00    +0.000 A 
ATOM     19  C   UNL     1     102.641 132.425 141.447  0.00  0.00    +0.000 A 
ATOM     20  C   UNL     1     101.843 132.436 141.655  0.00  0.00    +0.000 A 
ATOM     21  C   UNL     1     101.452 131.731 141.831  0.00  0.00    +0.000 A 
BRANCH  20  22
ATOM     22  O   UNL     1     101.435 133.154 141.686  0.00  0.00    +0.000 OA
ATOM     23  C   UNL     1     100.710 133.199 142.077  0.00  0.00    +0.000 C 
ENDBRANCH  20  22
ENDBRANCH   6  16
BRANCH   8  24
ATOM     24  O   UNL     1     102.468 130.002 140.295  0.00  0.00    +0.000 OA
ATOM     25  C   UNL     1     102.223 129.437 139.746  0.00  0.00    +0.000 C 
ENDBRANCH   8  24
BRANCH  12  26
ATOM     26  O   UNL     1     105.426 128.183 143.390  0.00  0.00    +0.000 OA
ATOM     27  C   UNL     1     105.408 128.604 144.099  0.00  0.00    +0.000 C 
ENDBRANCH  12  26
TORSDOF 4
ENDMDL
MODEL 6
REMARK VINA RESULT:      -7.7     12.639     14.474
REMARK  Name = 44259892
REMARK  4 active torsions:
REMARK  status: ('A' for Active; 'I' for Inactive)
REMARK    1  A    between atoms: O_2  and  C_14
REMARK    2  A    between atoms: O_3  and  C_18
REMARK    3  A    between atoms: O_8  and  C_23
REMARK    4  A    between atoms: C_11  and  C_13
REMARK                            x       y       z     vdW  Elec       q    Type
REMARK                         _______ _______ _______ _____ _____    ______ ____
ROOT
ATOM      1  O   UNL     1     113.826 127.682 136.370  0.00  0.00    +0.000 OA
ATOM      2  O   UNL     1     111.381 126.165 136.113  0.00  0.00    +0.000 OA
ATOM      3  O   UNL     1     111.478 127.512 135.605  0.00  0.00    +0.000 OA
ATOM      4  O   UNL     1     112.099 124.852 136.897  0.00  0.00    +0.000 OA
ATOM      5  C   UNL     1     112.617 126.931 136.243  0.00  0.00    +0.000 A 
ATOM      6  C   UNL     1     113.470 128.321 135.986  0.00  0.00    +0.000 A 
ATOM      7  C   UNL     1     113.400 126.988 136.498  0.00  0.00    +0.000 A 
ATOM      8  C   UNL     1     112.687 128.264 135.731  0.00  0.00    +0.000 A 
ATOM      9  C   UNL     1     112.260 127.569 135.860  0.00  0.00    +0.000 A 
ATOM     10  C   UNL     1     112.162 126.213 136.371  0.00  0.00    +0.000 A 
ATOM     11  C   UNL     1     113.782 126.330 136.899  0.00  0.00    +0.000 A 
ATOM     12  C   UNL     1     113.343 125.605 137.035  0.00  0.00    +0.000 A 
ATOM     13  C   UNL     1     112.527 125.546 136.769  0.00  0.00    +0.000 A 
ENDROOT
BRANCH   6  16
ATOM     14  O   UNL     1     113.644 129.418 137.206  0.00  0.00    +0.000 OA
ATOM     15  O   UNL     1     114.496 130.808 136.949  0.00  0.00    +0.000 OA
ATOM     16  C   UNL     1     113.896 129.015 135.858  0.00  0.00    +0.000 A 
ATOM     17  C   UNL     1     113.983 129.564 136.468  0.00  0.00    +0.000 A 
ATOM     18  C   UNL     1     114.235 129.161 135.120  0.00  0.00    +0.000 A 
ATOM     19  C   UNL     1     114.409 130.259 136.339  0.00  0.00    +0.000 A 
ATOM     20  C   UNL     1     114.748 130.404 135.601  0.00  0.00    +0.000 A 
ATOM     21  C   UNL     1     114.661 129.855 134.992  0.00  0.00    +0.000 A 
BRANCH  20  22
ATOM     22  O   UNL     1     115.174 131.099 135.473  0.00  0.00    +0.000 OA
ATOM     23  C   UNL     1     115.574 131.212 134.761  0.00  0.00    +0.000 C 
ENDBRANCH  20  22
ENDBRANCH   6  16
BRANCH   8  24
ATOM     24  O   UNL     1     112.330 128.901 135.348  0.00  0.00    +0.000 OA
ATOM     25  C   UNL     1     111.672 128.778 134.867  0.00  0.00    +0.000 C 
ENDBRANCH   8  24
BRANCH  12  26
ATOM     26  O   UNL     1     113.702 124.969 137.419  0.00  0.00    +0.000 OA
ATOM     27  C   UNL     1     114.525 124.913 137.445  0.00  0.00    +0.000 C 
ENDBRANCH  12  26
TORSDOF 4
ENDMDL
MODEL 7
REMARK VINA RESULT:      -7.6      9.014     11.002
REMARK  Name = 44259892
REMARK  4 active torsions:
REMARK  status: ('A' for Active; 'I' for Inactive)
REMARK    1  A    between atoms: O_2  and  C_14
REMARK    2  A    between atoms: O_3  and  C_18
REMARK    3  A    between atoms: O_8  and  C_23
REMARK    4  A    between atoms: C_11  and  C_13
REMARK                            x       y       z     vdW  Elec       q    Type
REMARK                         _______ _______ _______ _____ _____    ______ ____
ROOT
ATOM      1  O   UNL     1     111.744 131.690 145.338  0.00  0.00    +0.000 OA
ATOM      2  O   UNL     1     111.781 132.540 142.578  0.00  0.00    +0.000 OA
ATOM      3  O   UNL     1     111.852 133.499 143.653  0.00  0.00    +0.000 OA
ATOM      4  O   UNL     1     111.672 130.932 142.069  0.00  0.00    +0.000 OA
ATOM      5  C   UNL     1     111.762 132.109 143.973  0.00  0.00    +0.000 A 
ATOM      6  C   UNL     1     111.797 132.477 145.581  0.00  0.00    +0.000 A 
ATOM      7  C   UNL     1     111.726 131.506 144.535  0.00  0.00    +0.000 A 
ATOM      8  C   UNL     1     111.833 133.080 145.019  0.00  0.00    +0.000 A 
ATOM      9  C   UNL     1     111.816 132.896 144.214  0.00  0.00    +0.000 A 
ATOM     10  C   UNL     1     111.745 131.931 143.132  0.00  0.00    +0.000 A 
ATOM     11  C   UNL     1     111.671 130.682 144.295  0.00  0.00    +0.000 A 
ATOM     12  C   UNL     1     111.652 130.485 143.459  0.00  0.00    +0.000 A 
ATOM     13  C   UNL     1     111.689 131.113 142.873  0.00  0.00    +0.000 A 
ENDROOT
BRANCH   6  16
ATOM     14  O   UNL     1     113.141 132.135 146.476  0.00  0.00    +0.000 OA
ATOM     15  O   UNL     1     113.176 132.503 148.084  0.00  0.00    +0.000 OA
ATOM     16  C   UNL     1     111.815 132.661 146.384  0.00  0.00    +0.000 A 
ATOM     17  C   UNL     1     112.487 132.490 146.832  0.00  0.00    +0.000 A 
ATOM     18  C   UNL     1     111.161 133.016 146.742  0.00  0.00    +0.000 A 
ATOM     19  C   UNL     1     112.505 132.674 147.637  0.00  0.00    +0.000 A 
ATOM     20  C   UNL     1     111.850 133.029 147.993  0.00  0.00    +0.000 A 
ATOM     21  C   UNL     1     111.179 133.199 147.545  0.00  0.00    +0.000 A 
BRANCH  20  22
ATOM     22  O   UNL     1     111.868 133.213 148.797  0.00  0.00    +0.000 OA
ATOM     23  C   UNL     1     111.199 133.527 149.163  0.00  0.00    +0.000 C 
ENDBRANCH  20  22
ENDBRANCH   6  16
BRANCH   8  24
ATOM     24  O   UNL     1     111.887 133.867 145.261  0.00  0.00    +0.000 OA
ATOM     25  C   UNL     1     111.836 134.474 144.704  0.00  0.00    +0.000 C 
ENDBRANCH   8  24
BRANCH  12  26
ATOM     26  O   UNL     1     111.598 129.697 143.220  0.00  0.00    +0.000 OA
ATOM     27  C   UNL     1     111.641 129.092 143.779  0.00  0.00    +0.000 C 
ENDBRANCH  12  26
TORSDOF 4
ENDMDL
MODEL 8
REMARK VINA RESULT:      -7.6      1.215      4.459
REMARK  Name = 44259892
REMARK  4 active torsions:
REMARK  status: ('A' for Active; 'I' for Inactive)
REMARK    1  A    between atoms: O_2  and  C_14
REMARK    2  A    between atoms: O_3  and  C_18
REMARK    3  A    between atoms: O_8  and  C_23
REMARK    4  A    between atoms: C_11  and  C_13
REMARK                            x       y       z     vdW  Elec       q    Type
REMARK                         _______ _______ _______ _____ _____    ______ ____
ROOT
ATOM      1  O   UNL     1     103.733 124.554 147.929  0.00  0.00    +0.000 OA
ATOM      2  O   UNL     1     102.250 123.743 145.586  0.00  0.00    +0.000 OA
ATOM      3  O   UNL     1     103.679 123.930 145.535  0.00  0.00    +0.000 OA
ATOM      4  O   UNL     1     100.812 123.770 146.472  0.00  0.00    +0.000 OA
ATOM      5  C   UNL     1     102.999 124.153 146.771  0.00  0.00    +0.000 A 
ATOM      6  C   UNL     1     104.432 124.539 147.492  0.00  0.00    +0.000 A 
ATOM      7  C   UNL     1     103.017 124.361 147.569  0.00  0.00    +0.000 A 
ATOM      8  C   UNL     1     104.415 124.331 146.693  0.00  0.00    +0.000 A 
ATOM      9  C   UNL     1     103.697 124.138 146.333  0.00  0.00    +0.000 A 
ATOM     10  C   UNL     1     102.258 123.949 146.384  0.00  0.00    +0.000 A 
ATOM     11  C   UNL     1     102.295 124.380 148.036  0.00  0.00    +0.000 A 
ATOM     12  C   UNL     1     101.546 124.180 147.667  0.00  0.00    +0.000 A 
ATOM     13  C   UNL     1     101.527 123.963 146.835  0.00  0.00    +0.000 A 
ENDROOT
BRANCH   6  16
ATOM     14  O   UNL     1     104.778 126.112 147.849  0.00  0.00    +0.000 OA
ATOM     15  O   UNL     1     106.212 126.498 148.569  0.00  0.00    +0.000 OA
ATOM     16  C   UNL     1     105.149 124.732 147.851  0.00  0.00    +0.000 A 
ATOM     17  C   UNL     1     105.322 125.518 148.030  0.00  0.00    +0.000 A 
ATOM     18  C   UNL     1     105.693 124.139 148.033  0.00  0.00    +0.000 A 
ATOM     19  C   UNL     1     106.039 125.712 148.390  0.00  0.00    +0.000 A 
ATOM     20  C   UNL     1     106.582 125.118 148.571  0.00  0.00    +0.000 A 
ATOM     21  C   UNL     1     106.409 124.332 148.392  0.00  0.00    +0.000 A 
BRANCH  20  22
ATOM     22  O   UNL     1     107.299 125.312 148.931  0.00  0.00    +0.000 OA
ATOM     23  C   UNL     1     107.801 124.713 149.197  0.00  0.00    +0.000 C 
ENDBRANCH  20  22
ENDBRANCH   6  16
BRANCH   8  24
ATOM     24  O   UNL     1     105.113 124.316 146.255  0.00  0.00    +0.000 OA
ATOM     25  C   UNL     1     105.083 124.326 145.430  0.00  0.00    +0.000 C 
ENDBRANCH   8  24
BRANCH  12  26
ATOM     26  O   UNL     1     100.848 124.195 148.107  0.00  0.00    +0.000 OA
ATOM     27  C   UNL     1     100.870 124.401 148.906  0.00  0.00    +0.000 C 
ENDBRANCH  12  26
TORSDOF 4
ENDMDL
MODEL 9
REMARK VINA RESULT:      -7.6      1.107      4.305
REMARK  Name = 44259892
REMARK  4 active torsions:
REMARK  status: ('A' for Active; 'I' for Inactive)
REMARK    1  A    between atoms: O_2  and  C_14
REMARK    2  A    between atoms: O_3  and  C_18
REMARK    3  A    between atoms: O_8  and  C_23
REMARK    4  A    between atoms: C_11  and  C_13
REMARK                            x       y       z     vdW  Elec       q    Type
REMARK                         _______ _______ _______ _____ _____    ______ ____
ROOT
ATOM      1  O   UNL     1     104.302 124.763 147.133  0.00  0.00    +0.000 OA
ATOM      2  O   UNL     1     102.829 122.830 145.572  0.00  0.00    +0.000 OA
ATOM      3  O   UNL     1     104.068 123.388 145.089  0.00  0.00    +0.000 OA
ATOM      4  O   UNL     1     101.647 122.740 146.776  0.00  0.00    +0.000 OA
ATOM      5  C   UNL     1     103.573 123.807 146.362  0.00  0.00    +0.000 A 
ATOM      6  C   UNL     1     104.877 124.803 146.542  0.00  0.00    +0.000 A 
ATOM      7  C   UNL     1     103.651 124.265 147.044  0.00  0.00    +0.000 A 
ATOM      8  C   UNL     1     104.799 124.344 145.860  0.00  0.00    +0.000 A 
ATOM      9  C   UNL     1     104.146 123.846 145.770  0.00  0.00    +0.000 A 
ATOM     10  C   UNL     1     102.899 123.284 146.256  0.00  0.00    +0.000 A 
ATOM     11  C   UNL     1     103.060 124.233 147.667  0.00  0.00    +0.000 A 
ATOM     12  C   UNL     1     102.379 123.716 147.579  0.00  0.00    +0.000 A 
ATOM     13  C   UNL     1     102.298 123.239 146.868  0.00  0.00    +0.000 A 
ENDROOT
BRANCH   6  16
ATOM     14  O   UNL     1     106.161 124.322 147.460  0.00  0.00    +0.000 OA
ATOM     15  O   UNL     1     107.465 125.318 147.639  0.00  0.00    +0.000 OA
ATOM     16  C   UNL     1     105.528 125.300 146.632  0.00  0.00    +0.000 A 
ATOM     17  C   UNL     1     106.170 125.060 147.091  0.00  0.00    +0.000 A 
ATOM     18  C   UNL     1     105.538 126.038 146.263  0.00  0.00    +0.000 A 
ATOM     19  C   UNL     1     106.822 125.558 147.181  0.00  0.00    +0.000 A 
ATOM     20  C   UNL     1     106.831 126.295 146.812  0.00  0.00    +0.000 A 
ATOM     21  C   UNL     1     106.189 126.536 146.353  0.00  0.00    +0.000 A 
BRANCH  20  22
ATOM     22  O   UNL     1     107.484 126.793 146.902  0.00  0.00    +0.000 OA
ATOM     23  C   UNL     1     107.500 127.524 146.519  0.00  0.00    +0.000 C 
ENDBRANCH  20  22
ENDBRANCH   6  16
BRANCH   8  24
ATOM     24  O   UNL     1     105.372 124.384 145.269  0.00  0.00    +0.000 OA
ATOM     25  C   UNL     1     105.176 124.190 144.491  0.00  0.00    +0.000 C 
ENDBRANCH   8  24
BRANCH  12  26
ATOM     26  O   UNL     1     101.807 123.679 148.172  0.00  0.00    +0.000 OA
ATOM     27  C   UNL     1     101.947 124.034 148.903  0.00  0.00    +0.000 C 
ENDBRANCH  12  26
TORSDOF 4
ENDMDL
MODEL 10
REMARK VINA RESULT:      -7.6     10.170     12.134
REMARK  Name = 44259892
REMARK  4 active torsions:
REMARK  status: ('A' for Active; 'I' for Inactive)
REMARK    1  A    between atoms: O_2  and  C_14
REMARK    2  A    between atoms: O_3  and  C_18
REMARK    3  A    between atoms: O_8  and  C_23
REMARK    4  A    between atoms: C_11  and  C_13
REMARK                            x       y       z     vdW  Elec       q    Type
REMARK                         _______ _______ _______ _____ _____    ______ ____
ROOT
ATOM      1  O   UNL     1     111.277 126.533 137.591  0.00  0.00    +0.000 OA
ATOM      2  O   UNL     1     111.020 124.714 135.362  0.00  0.00    +0.000 OA
ATOM      3  O   UNL     1     112.054 124.537 136.352  0.00  0.00    +0.000 OA
ATOM      4  O   UNL     1     109.695 125.589 134.785  0.00  0.00    +0.000 OA
ATOM      5  C   UNL     1     111.149 125.634 136.489  0.00  0.00    +0.000 A 
ATOM      6  C   UNL     1     111.923 126.102 137.869  0.00  0.00    +0.000 A 
ATOM      7  C   UNL     1     110.890 126.300 136.902  0.00  0.00    +0.000 A 
ATOM      8  C   UNL     1     112.182 125.436 137.456  0.00  0.00    +0.000 A 
ATOM      9  C   UNL     1     111.795 125.202 136.765  0.00  0.00    +0.000 A 
ATOM     10  C   UNL     1     110.754 125.380 135.768  0.00  0.00    +0.000 A 
ATOM     11  C   UNL     1     110.217 126.758 136.623  0.00  0.00    +0.000 A 
ATOM     12  C   UNL     1     109.810 126.519 135.905  0.00  0.00    +0.000 A 
ATOM     13  C   UNL     1     110.080 125.825 135.475  0.00  0.00    +0.000 A 
ENDROOT
BRANCH   6  16
ATOM     14  O   UNL     1     111.230 125.820 139.339  0.00  0.00    +0.000 OA
ATOM     15  O   UNL     1     112.004 126.287 140.719  0.00  0.00    +0.000 OA
ATOM     16  C   UNL     1     112.310 126.335 138.558  0.00  0.00    +0.000 A 
ATOM     17  C   UNL     1     111.964 126.194 139.293  0.00  0.00    +0.000 A 
ATOM     18  C   UNL     1     113.044 126.710 138.514  0.00  0.00    +0.000 A 
ATOM     19  C   UNL     1     112.351 126.428 139.984  0.00  0.00    +0.000 A 
ATOM     20  C   UNL     1     113.084 126.803 139.938  0.00  0.00    +0.000 A 
ATOM     21  C   UNL     1     113.431 126.944 139.203  0.00  0.00    +0.000 A 
BRANCH  20  22
ATOM     22  O   UNL     1     113.472 127.036 140.629  0.00  0.00    +0.000 OA
ATOM     23  C   UNL     1     114.270 127.242 140.604  0.00  0.00    +0.000 C 
ENDBRANCH  20  22
ENDBRANCH   6  16
BRANCH   8  24
ATOM     24  O   UNL     1     112.828 125.004 137.732  0.00  0.00    +0.000 OA
ATOM     25  C   UNL     1     113.252 124.519 137.216  0.00  0.00    +0.000 C 
ENDBRANCH   8  24
BRANCH  12  26
ATOM     26  O   UNL     1     109.164 126.953 135.631  0.00  0.00    +0.000 OA
ATOM     27  C   UNL     1     108.931 127.639 136.024  0.00  0.00    +0.000 C 
ENDBRANCH  12  26
TORSDOF 4
ENDMDL
