MODEL 1
REMARK VINA RESULT:      -8.3      0.000      0.000
REMARK  Name = 131837245
REMARK  4 active torsions:
REMARK  status: ('A' for Active; 'I' for Inactive)
REMARK    1  A    between atoms: S_1  and  O_3
REMARK    2  A    between atoms: O_3  and  C_18
REMARK    3  A    between atoms: O_4  and  C_19
REMARK    4  A    between atoms: C_10  and  C_11
REMARK                            x       y       z     vdW  Elec       q    Type
REMARK                         _______ _______ _______ _____ _____    ______ ____
ROOT
ATOM      1  C   UNL     1     104.532 124.506 147.000  0.00  0.00    +0.000 A 
ATOM      2  C   UNL     1     103.951 124.884 147.447  0.00  0.00    +0.000 A 
ATOM      3  C   UNL     1     104.317 123.950 146.429  0.00  0.00    +0.000 A 
ATOM      4  C   UNL     1     103.155 124.705 147.324  0.00  0.00    +0.000 A 
ATOM      5  C   UNL     1     102.940 124.150 146.754  0.00  0.00    +0.000 A 
ATOM      6  C   UNL     1     103.521 123.772 146.307  0.00  0.00    +0.000 A 
ENDROOT
BRANCH   1  10
ATOM      7  O   UNL     1     105.690 124.485 147.837  0.00  0.00    +0.000 OA
ATOM      8  O   UNL     1     106.994 125.614 146.062  0.00  0.00    +0.000 OA
ATOM      9  O   UNL     1     108.039 124.431 149.557  0.00  0.00    +0.000 OA
ATOM     10  C   UNL     1     105.328 124.684 147.122  0.00  0.00    +0.000 A 
ATOM     11  C   UNL     1     106.921 125.039 147.368  0.00  0.00    +0.000 A 
ATOM     12  C   UNL     1     106.486 124.662 147.959  0.00  0.00    +0.000 A 
ATOM     13  C   UNL     1     105.763 125.060 146.530  0.00  0.00    +0.000 A 
ATOM     14  C   UNL     1     106.559 125.238 146.654  0.00  0.00    +0.000 A 
ATOM     15  C   UNL     1     107.751 125.229 147.484  0.00  0.00    +0.000 A 
ATOM     16  C   UNL     1     106.851 124.449 148.708  0.00  0.00    +0.000 A 
ATOM     17  C   UNL     1     107.680 124.632 148.842  0.00  0.00    +0.000 A 
ATOM     18  C   UNL     1     108.133 125.024 148.225  0.00  0.00    +0.000 A 
ENDBRANCH   1  10
BRANCH   5  19
ATOM     19  O   UNL     1     102.144 123.971 146.631  0.00  0.00    +0.000 OA
ATOM     20  C   UNL     1     101.928 123.423 146.054  0.00  0.00    +0.000 C 
ENDBRANCH   5  19
BRANCH   4  21
ATOM     21  O   UNL     1     102.573 125.083 147.772  0.00  0.00    +0.000 OA
BRANCH  21  22
ATOM     22  S   UNL     1     102.787 125.524 148.436  0.00  0.00    +0.000 S 
ATOM     23  O   UNL     1     103.000 125.965 149.100  0.00  0.00    +0.000 OA
ATOM     24  O   UNL     1     102.828 126.204 147.970  0.00  0.00    +0.000 OA
ATOM     25  O   UNL     1     102.745 124.845 148.901  0.00  0.00    +0.000 OA
ENDBRANCH  21  22
ENDBRANCH   4  21
TORSDOF 4
ENDMDL
MODEL 2
REMARK VINA RESULT:      -8.1      1.281      4.562
REMARK  Name = 131837245
REMARK  4 active torsions:
REMARK  status: ('A' for Active; 'I' for Inactive)
REMARK    1  A    between atoms: S_1  and  O_3
REMARK    2  A    between atoms: O_3  and  C_18
REMARK    3  A    between atoms: O_4  and  C_19
REMARK    4  A    between atoms: C_10  and  C_11
REMARK                            x       y       z     vdW  Elec       q    Type
REMARK                         _______ _______ _______ _____ _____    ______ ____
ROOT
ATOM      1  C   UNL     1     105.094 124.744 147.706  0.00  0.00    +0.000 A 
ATOM      2  C   UNL     1     105.607 124.984 147.106  0.00  0.00    +0.000 A 
ATOM      3  C   UNL     1     105.391 124.557 148.454  0.00  0.00    +0.000 A 
ATOM      4  C   UNL     1     106.417 125.037 147.254  0.00  0.00    +0.000 A 
ATOM      5  C   UNL     1     106.714 124.851 148.000  0.00  0.00    +0.000 A 
ATOM      6  C   UNL     1     106.201 124.611 148.600  0.00  0.00    +0.000 A 
ENDROOT
BRANCH   1  10
ATOM      7  O   UNL     1     103.992 124.088 147.075  0.00  0.00    +0.000 OA
ATOM      8  O   UNL     1     102.438 125.729 148.086  0.00  0.00    +0.000 OA
ATOM      9  O   UNL     1     101.758 122.739 145.782  0.00  0.00    +0.000 OA
ATOM     10  C   UNL     1     104.284 124.690 147.560  0.00  0.00    +0.000 A 
ATOM     11  C   UNL     1     102.664 124.581 147.266  0.00  0.00    +0.000 A 
ATOM     12  C   UNL     1     103.182 124.035 146.929  0.00  0.00    +0.000 A 
ATOM     13  C   UNL     1     103.766 125.237 147.896  0.00  0.00    +0.000 A 
ATOM     14  C   UNL     1     102.956 125.182 147.749  0.00  0.00    +0.000 A 
ATOM     15  C   UNL     1     101.818 124.535 147.120  0.00  0.00    +0.000 A 
ATOM     16  C   UNL     1     102.890 123.403 146.423  0.00  0.00    +0.000 A 
ATOM     17  C   UNL     1     102.048 123.341 146.266  0.00  0.00    +0.000 A 
ATOM     18  C   UNL     1     101.508 123.911 146.617  0.00  0.00    +0.000 A 
ENDBRANCH   1  10
BRANCH   5  19
ATOM     19  O   UNL     1     107.524 124.904 148.148  0.00  0.00    +0.000 OA
ATOM     20  C   UNL     1     107.834 124.624 148.859  0.00  0.00    +0.000 C 
ENDBRANCH   5  19
BRANCH   4  21
ATOM     21  O   UNL     1     106.931 125.277 146.654  0.00  0.00    +0.000 OA
BRANCH  21  22
ATOM     22  S   UNL     1     106.634 125.458 145.905  0.00  0.00    +0.000 S 
ATOM     23  O   UNL     1     106.338 125.638 145.157  0.00  0.00    +0.000 OA
ATOM     24  O   UNL     1     106.569 126.250 146.123  0.00  0.00    +0.000 OA
ATOM     25  O   UNL     1     106.699 124.665 145.687  0.00  0.00    +0.000 OA
ENDBRANCH  21  22
ENDBRANCH   4  21
TORSDOF 4
ENDMDL
MODEL 3
REMARK VINA RESULT:      -8.1      1.180      1.865
REMARK  Name = 131837245
REMARK  4 active torsions:
REMARK  status: ('A' for Active; 'I' for Inactive)
REMARK    1  A    between atoms: S_1  and  O_3
REMARK    2  A    between atoms: O_3  and  C_18
REMARK    3  A    between atoms: O_4  and  C_19
REMARK    4  A    between atoms: C_10  and  C_11
REMARK                            x       y       z     vdW  Elec       q    Type
REMARK                         _______ _______ _______ _____ _____    ______ ____
ROOT
ATOM      1  C   UNL     1     104.406 124.864 147.316  0.00  0.00    +0.000 A 
ATOM      2  C   UNL     1     104.087 124.394 146.718  0.00  0.00    +0.000 A 
ATOM      3  C   UNL     1     103.908 125.220 147.871  0.00  0.00    +0.000 A 
ATOM      4  C   UNL     1     103.271 124.279 146.675  0.00  0.00    +0.000 A 
ATOM      5  C   UNL     1     102.774 124.633 147.229  0.00  0.00    +0.000 A 
ATOM      6  C   UNL     1     103.093 125.104 147.827  0.00  0.00    +0.000 A 
ENDROOT
BRANCH   1  10
ATOM      7  O   UNL     1     105.644 124.692 148.009  0.00  0.00    +0.000 OA
ATOM      8  O   UNL     1     106.824 125.902 146.201  0.00  0.00    +0.000 OA
ATOM      9  O   UNL     1     108.157 124.330 149.434  0.00  0.00    +0.000 OA
ATOM     10  C   UNL     1     105.221 124.980 147.360  0.00  0.00    +0.000 A 
ATOM     11  C   UNL     1     106.852 125.211 147.450  0.00  0.00    +0.000 A 
ATOM     12  C   UNL     1     106.459 124.807 148.053  0.00  0.00    +0.000 A 
ATOM     13  C   UNL     1     105.614 125.383 146.758  0.00  0.00    +0.000 A 
ATOM     14  C   UNL     1     106.430 125.498 146.803  0.00  0.00    +0.000 A 
ATOM     15  C   UNL     1     107.702 125.337 147.486  0.00  0.00    +0.000 A 
ATOM     16  C   UNL     1     106.888 124.502 148.733  0.00  0.00    +0.000 A 
ATOM     17  C   UNL     1     107.737 124.619 148.786  0.00  0.00    +0.000 A 
ATOM     18  C   UNL     1     108.147 125.040 148.157  0.00  0.00    +0.000 A 
ENDBRANCH   1  10
BRANCH   5  19
ATOM     19  O   UNL     1     101.958 124.518 147.186  0.00  0.00    +0.000 OA
ATOM     20  C   UNL     1     101.452 124.969 147.655  0.00  0.00    +0.000 C 
ENDBRANCH   5  19
BRANCH   4  21
ATOM     21  O   UNL     1     102.952 123.808 146.076  0.00  0.00    +0.000 OA
BRANCH  21  22
ATOM     22  S   UNL     1     103.433 123.273 145.672  0.00  0.00    +0.000 S 
ATOM     23  O   UNL     1     103.914 122.739 145.268  0.00  0.00    +0.000 OA
ATOM     24  O   UNL     1     103.501 123.808 145.047  0.00  0.00    +0.000 OA
ATOM     25  O   UNL     1     103.366 122.739 146.296  0.00  0.00    +0.000 OA
ENDBRANCH  21  22
ENDBRANCH   4  21
TORSDOF 4
ENDMDL
MODEL 4
REMARK VINA RESULT:      -7.9     11.063     12.279
REMARK  Name = 131837245
REMARK  4 active torsions:
REMARK  status: ('A' for Active; 'I' for Inactive)
REMARK    1  A    between atoms: S_1  and  O_3
REMARK    2  A    between atoms: O_3  and  C_18
REMARK    3  A    between atoms: O_4  and  C_19
REMARK    4  A    between atoms: C_10  and  C_11
REMARK                            x       y       z     vdW  Elec       q    Type
REMARK                         _______ _______ _______ _____ _____    ______ ____
ROOT
ATOM      1  C   UNL     1     110.731 126.014 136.680  0.00  0.00    +0.000 A 
ATOM      2  C   UNL     1     110.334 126.257 137.362  0.00  0.00    +0.000 A 
ATOM      3  C   UNL     1     110.474 126.272 135.939  0.00  0.00    +0.000 A 
ATOM      4  C   UNL     1     109.682 126.758 137.302  0.00  0.00    +0.000 A 
ATOM      5  C   UNL     1     109.425 127.016 136.562  0.00  0.00    +0.000 A 
ATOM      6  C   UNL     1     109.822 126.773 135.881  0.00  0.00    +0.000 A 
ENDROOT
BRANCH   1  10
ATOM      7  O   UNL     1     112.096 125.797 137.043  0.00  0.00    +0.000 OA
ATOM      8  O   UNL     1     111.918 123.441 136.306  0.00  0.00    +0.000 OA
ATOM      9  O   UNL     1     114.880 125.376 137.787  0.00  0.00    +0.000 OA
ATOM     10  C   UNL     1     111.383 125.512 136.738  0.00  0.00    +0.000 A 
ATOM     11  C   UNL     1     112.689 124.511 136.855  0.00  0.00    +0.000 A 
ATOM     12  C   UNL     1     112.748 125.296 137.101  0.00  0.00    +0.000 A 
ATOM     13  C   UNL     1     111.324 124.727 136.493  0.00  0.00    +0.000 A 
ATOM     14  C   UNL     1     111.977 124.227 136.552  0.00  0.00    +0.000 A 
ATOM     15  C   UNL     1     113.363 123.979 136.911  0.00  0.00    +0.000 A 
ATOM     16  C   UNL     1     113.485 125.605 137.419  0.00  0.00    +0.000 A 
ATOM     17  C   UNL     1     114.169 125.089 137.483  0.00  0.00    +0.000 A 
ATOM     18  C   UNL     1     114.107 124.270 137.227  0.00  0.00    +0.000 A 
ENDBRANCH   1  10
BRANCH   5  19
ATOM     19  O   UNL     1     108.773 127.518 136.503  0.00  0.00    +0.000 OA
ATOM     20  C   UNL     1     108.584 127.866 135.780  0.00  0.00    +0.000 C 
ENDBRANCH   5  19
BRANCH   4  21
ATOM     21  O   UNL     1     109.285 127.001 137.984  0.00  0.00    +0.000 OA
BRANCH  21  22
ATOM     22  S   UNL     1     109.511 126.704 138.720  0.00  0.00    +0.000 S 
ATOM     23  O   UNL     1     109.736 126.407 139.456  0.00  0.00    +0.000 OA
ATOM     24  O   UNL     1     108.979 126.080 138.630  0.00  0.00    +0.000 OA
ATOM     25  O   UNL     1     110.042 127.328 138.810  0.00  0.00    +0.000 OA
ENDBRANCH  21  22
ENDBRANCH   4  21
TORSDOF 4
ENDMDL
MODEL 5
REMARK VINA RESULT:      -7.9     13.384     14.637
REMARK  Name = 131837245
REMARK  4 active torsions:
REMARK  status: ('A' for Active; 'I' for Inactive)
REMARK    1  A    between atoms: S_1  and  O_3
REMARK    2  A    between atoms: O_3  and  C_18
REMARK    3  A    between atoms: O_4  and  C_19
REMARK    4  A    between atoms: C_10  and  C_11
REMARK                            x       y       z     vdW  Elec       q    Type
REMARK                         _______ _______ _______ _____ _____    ______ ____
ROOT
ATOM      1  C   UNL     1     112.967 127.090 136.429  0.00  0.00    +0.000 A 
ATOM      2  C   UNL     1     113.422 126.452 136.687  0.00  0.00    +0.000 A 
ATOM      3  C   UNL     1     112.201 126.963 136.147  0.00  0.00    +0.000 A 
ATOM      4  C   UNL     1     113.112 125.688 136.662  0.00  0.00    +0.000 A 
ATOM      5  C   UNL     1     112.347 125.561 136.381  0.00  0.00    +0.000 A 
ATOM      6  C   UNL     1     111.892 126.199 136.124  0.00  0.00    +0.000 A 
ENDROOT
BRANCH   1  10
ATOM      7  O   UNL     1     113.756 128.124 135.837  0.00  0.00    +0.000 OA
ATOM      8  O   UNL     1     113.245 129.608 137.750  0.00  0.00    +0.000 OA
ATOM      9  O   UNL     1     115.368 130.219 134.616  0.00  0.00    +0.000 OA
ATOM     10  C   UNL     1     113.276 127.854 136.452  0.00  0.00    +0.000 A 
ATOM     11  C   UNL     1     113.895 129.383 136.498  0.00  0.00    +0.000 A 
ATOM     12  C   UNL     1     114.065 128.888 135.861  0.00  0.00    +0.000 A 
ATOM     13  C   UNL     1     113.105 128.349 137.090  0.00  0.00    +0.000 A 
ATOM     14  C   UNL     1     113.415 129.113 137.113  0.00  0.00    +0.000 A 
ATOM     15  C   UNL     1     114.211 130.181 136.534  0.00  0.00    +0.000 A 
ATOM     16  C   UNL     1     114.564 129.157 135.213  0.00  0.00    +0.000 A 
ATOM     17  C   UNL     1     114.889 129.952 135.232  0.00  0.00    +0.000 A 
ATOM     18  C   UNL     1     114.711 130.468 135.897  0.00  0.00    +0.000 A 
ENDBRANCH   1  10
BRANCH   5  19
ATOM     19  O   UNL     1     112.037 124.797 136.357  0.00  0.00    +0.000 OA
ATOM     20  C   UNL     1     111.274 124.670 136.071  0.00  0.00    +0.000 C 
ENDBRANCH   5  19
BRANCH   4  21
ATOM     21  O   UNL     1     113.568 125.049 136.920  0.00  0.00    +0.000 OA
BRANCH  21  22
ATOM     22  S   UNL     1     114.322 125.179 137.228  0.00  0.00    +0.000 S 
ATOM     23  O   UNL     1     115.076 125.309 137.536  0.00  0.00    +0.000 OA
ATOM     24  O   UNL     1     113.999 125.261 137.983  0.00  0.00    +0.000 OA
ATOM     25  O   UNL     1     114.645 125.097 136.474  0.00  0.00    +0.000 OA
ENDBRANCH  21  22
ENDBRANCH   4  21
TORSDOF 4
ENDMDL
MODEL 6
REMARK VINA RESULT:      -7.9      2.078      3.180
REMARK  Name = 131837245
REMARK  4 active torsions:
REMARK  status: ('A' for Active; 'I' for Inactive)
REMARK    1  A    between atoms: S_1  and  O_3
REMARK    2  A    between atoms: O_3  and  C_18
REMARK    3  A    between atoms: O_4  and  C_19
REMARK    4  A    between atoms: C_10  and  C_11
REMARK                            x       y       z     vdW  Elec       q    Type
REMARK                         _______ _______ _______ _____ _____    ______ ____
ROOT
ATOM      1  C   UNL     1     104.694 124.545 146.781  0.00  0.00    +0.000 A 
ATOM      2  C   UNL     1     105.049 124.679 146.048  0.00  0.00    +0.000 A 
ATOM      3  C   UNL     1     104.085 123.992 146.849  0.00  0.00    +0.000 A 
ATOM      4  C   UNL     1     104.795 124.260 145.385  0.00  0.00    +0.000 A 
ATOM      5  C   UNL     1     104.187 123.707 145.453  0.00  0.00    +0.000 A 
ATOM      6  C   UNL     1     103.832 123.573 146.185  0.00  0.00    +0.000 A 
ENDROOT
BRANCH   1  10
ATOM      7  O   UNL     1     104.674 125.732 147.577  0.00  0.00    +0.000 OA
ATOM      8  O   UNL     1     106.248 124.686 149.175  0.00  0.00    +0.000 OA
ATOM      9  O   UNL     1     104.622 128.159 149.185  0.00  0.00    +0.000 OA
ATOM     10  C   UNL     1     104.947 124.963 147.445  0.00  0.00    +0.000 A 
ATOM     11  C   UNL     1     105.452 125.802 148.774  0.00  0.00    +0.000 A 
ATOM     12  C   UNL     1     104.927 126.150 148.241  0.00  0.00    +0.000 A 
ATOM     13  C   UNL     1     105.471 124.615 147.978  0.00  0.00    +0.000 A 
ATOM     14  C   UNL     1     105.723 125.034 148.642  0.00  0.00    +0.000 A 
ATOM     15  C   UNL     1     105.722 126.228 149.470  0.00  0.00    +0.000 A 
ATOM     16  C   UNL     1     104.636 126.950 148.366  0.00  0.00    +0.000 A 
ATOM     17  C   UNL     1     104.895 127.391 149.056  0.00  0.00    +0.000 A 
ATOM     18  C   UNL     1     105.442 127.028 149.612  0.00  0.00    +0.000 A 
ENDBRANCH   1  10
BRANCH   5  19
ATOM     19  O   UNL     1     103.933 123.288 144.789  0.00  0.00    +0.000 OA
ATOM     20  C   UNL     1     103.321 122.740 144.856  0.00  0.00    +0.000 C 
ENDBRANCH   5  19
BRANCH   4  21
ATOM     21  O   UNL     1     105.151 124.394 144.651  0.00  0.00    +0.000 OA
BRANCH  21  22
ATOM     22  S   UNL     1     105.785 124.919 144.591  0.00  0.00    +0.000 S 
ATOM     23  O   UNL     1     106.418 125.443 144.530  0.00  0.00    +0.000 OA
ATOM     24  O   UNL     1     105.259 125.532 144.422  0.00  0.00    +0.000 OA
ATOM     25  O   UNL     1     106.309 124.305 144.759  0.00  0.00    +0.000 OA
ENDBRANCH  21  22
ENDBRANCH   4  21
TORSDOF 4
ENDMDL
MODEL 7
REMARK VINA RESULT:      -7.9     12.950     13.970
REMARK  Name = 131837245
REMARK  4 active torsions:
REMARK  status: ('A' for Active; 'I' for Inactive)
REMARK    1  A    between atoms: S_1  and  O_3
REMARK    2  A    between atoms: O_3  and  C_18
REMARK    3  A    between atoms: O_4  and  C_19
REMARK    4  A    between atoms: C_10  and  C_11
REMARK                            x       y       z     vdW  Elec       q    Type
REMARK                         _______ _______ _______ _____ _____    ______ ____
ROOT
ATOM      1  C   UNL     1     112.476 126.316 136.588  0.00  0.00    +0.000 A 
ATOM      2  C   UNL     1     111.785 126.147 136.171  0.00  0.00    +0.000 A 
ATOM      3  C   UNL     1     112.893 125.708 136.959  0.00  0.00    +0.000 A 
ATOM      4  C   UNL     1     111.511 125.370 136.124  0.00  0.00    +0.000 A 
ATOM      5  C   UNL     1     111.927 124.763 136.494  0.00  0.00    +0.000 A 
ATOM      6  C   UNL     1     112.618 124.931 136.912  0.00  0.00    +0.000 A 
ENDROOT
BRANCH   1  10
ATOM      7  O   UNL     1     113.249 127.390 136.047  0.00  0.00    +0.000 OA
ATOM      8  O   UNL     1     112.584 128.827 137.949  0.00  0.00    +0.000 OA
ATOM      9  O   UNL     1     114.828 129.566 134.930  0.00  0.00    +0.000 OA
ATOM     10  C   UNL     1     112.751 127.092 136.635  0.00  0.00    +0.000 A 
ATOM     11  C   UNL     1     113.302 128.645 136.728  0.00  0.00    +0.000 A 
ATOM     12  C   UNL     1     113.524 128.166 136.094  0.00  0.00    +0.000 A 
ATOM     13  C   UNL     1     112.529 127.571 137.269  0.00  0.00    +0.000 A 
ATOM     14  C   UNL     1     112.805 128.348 137.315  0.00  0.00    +0.000 A 
ATOM     15  C   UNL     1     113.582 129.455 136.788  0.00  0.00    +0.000 A 
ATOM     16  C   UNL     1     114.041 128.464 135.475  0.00  0.00    +0.000 A 
ATOM     17  C   UNL     1     114.331 129.271 135.518  0.00  0.00    +0.000 A 
ATOM     18  C   UNL     1     114.100 129.770 136.179  0.00  0.00    +0.000 A 
ENDBRANCH   1  10
BRANCH   5  19
ATOM     19  O   UNL     1     111.653 123.986 136.448  0.00  0.00    +0.000 OA
ATOM     20  C   UNL     1     112.031 123.389 136.872  0.00  0.00    +0.000 C 
ENDBRANCH   5  19
BRANCH   4  21
ATOM     21  O   UNL     1     110.818 125.202 135.706  0.00  0.00    +0.000 OA
BRANCH  21  22
ATOM     22  S   UNL     1     110.373 125.816 135.382  0.00  0.00    +0.000 S 
ATOM     23  O   UNL     1     109.928 126.429 135.057  0.00  0.00    +0.000 OA
ATOM     24  O   UNL     1     110.791 125.744 134.675  0.00  0.00    +0.000 OA
ATOM     25  O   UNL     1     109.955 125.887 136.089  0.00  0.00    +0.000 OA
ENDBRANCH  21  22
ENDBRANCH   4  21
TORSDOF 4
ENDMDL
MODEL 8
REMARK VINA RESULT:      -7.8     13.014     14.182
REMARK  Name = 131837245
REMARK  4 active torsions:
REMARK  status: ('A' for Active; 'I' for Inactive)
REMARK    1  A    between atoms: S_1  and  O_3
REMARK    2  A    between atoms: O_3  and  C_18
REMARK    3  A    between atoms: O_4  and  C_19
REMARK    4  A    between atoms: C_10  and  C_11
REMARK                            x       y       z     vdW  Elec       q    Type
REMARK                         _______ _______ _______ _____ _____    ______ ____
ROOT
ATOM      1  C   UNL     1     113.661 127.482 136.479  0.00  0.00    +0.000 A 
ATOM      2  C   UNL     1     113.270 128.003 136.986  0.00  0.00    +0.000 A 
ATOM      3  C   UNL     1     114.095 127.775 135.840  0.00  0.00    +0.000 A 
ATOM      4  C   UNL     1     113.314 128.817 136.855  0.00  0.00    +0.000 A 
ATOM      5  C   UNL     1     113.748 129.109 136.217  0.00  0.00    +0.000 A 
ATOM      6  C   UNL     1     114.138 128.589 135.710  0.00  0.00    +0.000 A 
ENDROOT
BRANCH   1  10
ATOM      7  O   UNL     1     112.935 126.254 136.399  0.00  0.00    +0.000 OA
ATOM      8  O   UNL     1     114.848 125.058 137.417  0.00  0.00    +0.000 OA
ATOM      9  O   UNL     1     111.441 123.760 136.228  0.00  0.00    +0.000 OA
ATOM     10  C   UNL     1     113.617 126.669 136.609  0.00  0.00    +0.000 A 
ATOM     11  C   UNL     1     113.529 125.042 136.868  0.00  0.00    +0.000 A 
ATOM     12  C   UNL     1     112.892 125.440 136.529  0.00  0.00    +0.000 A 
ATOM     13  C   UNL     1     114.255 126.271 136.948  0.00  0.00    +0.000 A 
ATOM     14  C   UNL     1     114.210 125.457 137.078  0.00  0.00    +0.000 A 
ATOM     15  C   UNL     1     113.496 124.194 137.009  0.00  0.00    +0.000 A 
ATOM     16  C   UNL     1     112.176 125.020 136.306  0.00  0.00    +0.000 A 
ATOM     17  C   UNL     1     112.124 124.172 136.439  0.00  0.00    +0.000 A 
ATOM     18  C   UNL     1     112.789 123.757 136.793  0.00  0.00    +0.000 A 
ENDBRANCH   1  10
BRANCH   5  19
ATOM     19  O   UNL     1     113.792 129.923 136.086  0.00  0.00    +0.000 OA
ATOM     20  C   UNL     1     114.312 130.222 135.521  0.00  0.00    +0.000 C 
ENDBRANCH   5  19
BRANCH   4  21
ATOM     21  O   UNL     1     112.924 129.338 137.362  0.00  0.00    +0.000 OA
BRANCH  21  22
ATOM     22  S   UNL     1     112.443 129.044 137.965  0.00  0.00    +0.000 S 
ATOM     23  O   UNL     1     111.962 128.750 138.567  0.00  0.00    +0.000 OA
ATOM     24  O   UNL     1     113.087 129.049 138.480  0.00  0.00    +0.000 OA
ATOM     25  O   UNL     1     111.799 129.039 137.449  0.00  0.00    +0.000 OA
ENDBRANCH  21  22
ENDBRANCH   4  21
TORSDOF 4
ENDMDL
MODEL 9
REMARK VINA RESULT:      -7.8     13.663     14.611
REMARK  Name = 131837245
REMARK  4 active torsions:
REMARK  status: ('A' for Active; 'I' for Inactive)
REMARK    1  A    between atoms: S_1  and  O_3
REMARK    2  A    between atoms: O_3  and  C_18
REMARK    3  A    between atoms: O_4  and  C_19
REMARK    4  A    between atoms: C_10  and  C_11
REMARK                            x       y       z     vdW  Elec       q    Type
REMARK                         _______ _______ _______ _____ _____    ______ ____
ROOT
ATOM      1  C   UNL     1     112.907 128.106 136.735  0.00  0.00    +0.000 A 
ATOM      2  C   UNL     1     113.324 128.562 136.189  0.00  0.00    +0.000 A 
ATOM      3  C   UNL     1     112.470 128.472 137.332  0.00  0.00    +0.000 A 
ATOM      4  C   UNL     1     113.302 129.386 136.239  0.00  0.00    +0.000 A 
ATOM      5  C   UNL     1     112.865 129.752 136.834  0.00  0.00    +0.000 A 
ATOM      6  C   UNL     1     112.449 129.295 137.381  0.00  0.00    +0.000 A 
ENDROOT
BRANCH   1  10
ATOM      7  O   UNL     1     113.578 126.868 136.983  0.00  0.00    +0.000 OA
ATOM      8  O   UNL     1     111.695 125.640 135.947  0.00  0.00    +0.000 OA
ATOM      9  O   UNL     1     114.959 124.357 137.497  0.00  0.00    +0.000 OA
ATOM     10  C   UNL     1     112.928 127.282 136.686  0.00  0.00    +0.000 A 
ATOM     11  C   UNL     1     112.971 125.636 136.589  0.00  0.00    +0.000 A 
ATOM     12  C   UNL     1     113.598 126.045 136.934  0.00  0.00    +0.000 A 
ATOM     13  C   UNL     1     112.301 126.873 136.341  0.00  0.00    +0.000 A 
ATOM     14  C   UNL     1     112.322 126.050 136.293  0.00  0.00    +0.000 A 
ATOM     15  C   UNL     1     112.982 124.778 136.532  0.00  0.00    +0.000 A 
ATOM     16  C   UNL     1     114.281 125.625 137.247  0.00  0.00    +0.000 A 
ATOM     17  C   UNL     1     114.309 124.768 137.200  0.00  0.00    +0.000 A 
ATOM     18  C   UNL     1     113.655 124.341 136.840  0.00  0.00    +0.000 A 
ENDBRANCH   1  10
BRANCH   5  19
ATOM     19  O   UNL     1     112.844 130.576 136.884  0.00  0.00    +0.000 OA
ATOM     20  C   UNL     1     112.366 130.943 137.447  0.00  0.00    +0.000 C 
ENDBRANCH   5  19
BRANCH   4  21
ATOM     21  O   UNL     1     113.719 129.843 135.692  0.00  0.00    +0.000 OA
BRANCH  21  22
ATOM     22  S   UNL     1     114.226 129.480 135.152  0.00  0.00    +0.000 S 
ATOM     23  O   UNL     1     114.732 129.116 134.612  0.00  0.00    +0.000 OA
ATOM     24  O   UNL     1     113.605 129.418 134.612  0.00  0.00    +0.000 OA
ATOM     25  O   UNL     1     114.846 129.542 135.692  0.00  0.00    +0.000 OA
ENDBRANCH  21  22
ENDBRANCH   4  21
TORSDOF 4
ENDMDL
MODEL 10
REMARK VINA RESULT:      -7.8     10.689     12.312
REMARK  Name = 131837245
REMARK  4 active torsions:
REMARK  status: ('A' for Active; 'I' for Inactive)
REMARK    1  A    between atoms: S_1  and  O_3
REMARK    2  A    between atoms: O_3  and  C_18
REMARK    3  A    between atoms: O_4  and  C_19
REMARK    4  A    between atoms: C_10  and  C_11
REMARK                            x       y       z     vdW  Elec       q    Type
REMARK                         _______ _______ _______ _____ _____    ______ ____
ROOT
ATOM      1  C   UNL     1     112.934 127.026 138.788  0.00  0.00    +0.000 A 
ATOM      2  C   UNL     1     112.610 126.948 139.542  0.00  0.00    +0.000 A 
ATOM      3  C   UNL     1     113.085 127.776 138.478  0.00  0.00    +0.000 A 
ATOM      4  C   UNL     1     112.436 127.621 139.987  0.00  0.00    +0.000 A 
ATOM      5  C   UNL     1     112.587 128.371 139.678  0.00  0.00    +0.000 A 
ATOM      6  C   UNL     1     112.912 128.448 138.923  0.00  0.00    +0.000 A 
ENDROOT
BRANCH   1  10
ATOM      7  O   UNL     1     112.505 125.959 137.939  0.00  0.00    +0.000 OA
ATOM      8  O   UNL     1     114.832 125.125 137.810  0.00  0.00    +0.000 OA
ATOM      9  O   UNL     1     111.612 123.793 136.210  0.00  0.00    +0.000 OA
ATOM     10  C   UNL     1     113.108 126.354 138.342  0.00  0.00    +0.000 A 
ATOM     11  C   UNL     1     113.454 125.009 137.450  0.00  0.00    +0.000 A 
ATOM     12  C   UNL     1     112.679 125.287 137.493  0.00  0.00    +0.000 A 
ATOM     13  C   UNL     1     113.884 126.076 138.299  0.00  0.00    +0.000 A 
ATOM     14  C   UNL     1     114.056 125.403 137.853  0.00  0.00    +0.000 A 
ATOM     15  C   UNL     1     113.647 124.310 136.989  0.00  0.00    +0.000 A 
ATOM     16  C   UNL     1     112.042 124.885 137.078  0.00  0.00    +0.000 A 
ATOM     17  C   UNL     1     112.216 124.185 136.612  0.00  0.00    +0.000 A 
ATOM     18  C   UNL     1     113.024 123.895 136.567  0.00  0.00    +0.000 A 
ENDBRANCH   1  10
BRANCH   5  19
ATOM     19  O   UNL     1     112.414 129.044 140.123  0.00  0.00    +0.000 OA
ATOM     20  C   UNL     1     112.609 129.791 139.834  0.00  0.00    +0.000 C 
ENDBRANCH   5  19
BRANCH   4  21
ATOM     21  O   UNL     1     112.111 127.544 140.742  0.00  0.00    +0.000 OA
BRANCH  21  22
ATOM     22  S   UNL     1     111.858 126.805 141.008  0.00  0.00    +0.000 S 
ATOM     23  O   UNL     1     111.605 126.067 141.274  0.00  0.00    +0.000 OA
ATOM     24  O   UNL     1     112.603 126.669 141.335  0.00  0.00    +0.000 OA
ATOM     25  O   UNL     1     111.114 126.942 140.682  0.00  0.00    +0.000 OA
ENDBRANCH  21  22
ENDBRANCH   4  21
TORSDOF 4
ENDMDL
