MODEL 1
REMARK VINA RESULT:      -9.4      0.000      0.000
REMARK  Name = 44257993
REMARK  12 active torsions:
REMARK  status: ('A' for Active; 'I' for Inactive)
REMARK    1  A    between atoms: O_3  and  C_25
REMARK    2  A    between atoms: O_3  and  C_31
REMARK    3  A    between atoms: O_7  and  C_28
REMARK    4  A    between atoms: O_7  and  C_32
REMARK    5  A    between atoms: O_11  and  C_29
REMARK    6  A    between atoms: O_11  and  C_40
REMARK    7  A    between atoms: O_16  and  C_48
REMARK    8  A    between atoms: C_21  and  C_29
REMARK    9  A    between atoms: C_37  and  C_41
REMARK   10  A    between atoms: C_40  and  C_42
REMARK   11  A    between atoms: C_42  and  C_45
REMARK   12  A    between atoms: C_45  and  C_49
REMARK                            x       y       z     vdW  Elec       q    Type
REMARK                         _______ _______ _______ _____ _____    ______ ____
ROOT
ATOM      1  O   UNL     1     111.342 127.887 138.243  0.00  0.00    +0.000 OA
ATOM      2  O   UNL     1     112.207 126.994 136.103  0.00  0.00    +0.000 OA
ATOM      3  O   UNL     1     111.069 127.522 135.390  0.00  0.00    +0.000 OA
ATOM      4  C   UNL     1     109.730 128.565 136.852  0.00  0.00    +0.000 A 
ATOM      5  C   UNL     1     112.343 127.174 137.514  0.00  0.00    +0.000 A 
ATOM      6  C   UNL     1     111.206 127.707 136.832  0.00  0.00    +0.000 A 
ATOM      7  C   UNL     1     110.917 128.005 137.545  0.00  0.00    +0.000 A 
ATOM      8  C   UNL     1     110.177 128.439 137.575  0.00  0.00    +0.000 A 
ATOM      9  C   UNL     1     111.919 127.292 136.817  0.00  0.00    +0.000 A 
ATOM     10  C   UNL     1     112.055 127.472 138.227  0.00  0.00    +0.000 A 
ATOM     11  C   UNL     1     110.030 128.255 136.109  0.00  0.00    +0.000 A 
ATOM     12  C   UNL     1     110.773 127.823 136.099  0.00  0.00    +0.000 A 
ENDROOT
BRANCH  10  13
ATOM     13  C   UNL     1     112.480 127.354 138.924  0.00  0.00    +0.000 A 
ATOM     14  C   UNL     1     113.164 127.791 139.070  0.00  0.00    +0.000 A 
ATOM     15  C   UNL     1     112.220 126.799 139.477  0.00  0.00    +0.000 A 
ATOM     16  C   UNL     1     113.588 127.672 139.767  0.00  0.00    +0.000 A 
ATOM     17  C   UNL     1     112.644 126.681 140.174  0.00  0.00    +0.000 A 
ATOM     18  C   UNL     1     113.328 127.118 140.320  0.00  0.00    +0.000 A 
BRANCH  18  19
ATOM     19  O   UNL     1     113.753 127.000 141.017  0.00  0.00    +0.000 OA
ATOM     20  C   UNL     1     114.577 127.035 141.009  0.00  0.00    +0.000 C 
ENDBRANCH  18  19
ENDBRANCH  10  13
BRANCH   4  21
ATOM     21  O   UNL     1     109.017 128.981 136.871  0.00  0.00    +0.000 OA
BRANCH  21  30
ATOM     22  O   UNL     1     109.605 130.284 136.857  0.00  0.00    +0.000 OA
ATOM     23  O   UNL     1     108.929 132.146 135.940  0.00  0.00    +0.000 OA
ATOM     24  O   UNL     1     107.711 131.123 135.504  0.00  0.00    +0.000 OA
ATOM     25  O   UNL     1     107.754 129.541 135.970  0.00  0.00    +0.000 OA
ATOM     26  C   UNL     1     108.952 131.355 136.173  0.00  0.00    +0.000 C 
ATOM     27  C   UNL     1     108.342 130.843 135.955  0.00  0.00    +0.000 C 
ATOM     28  C   UNL     1     109.584 131.075 136.624  0.00  0.00    +0.000 C 
ATOM     29  C   UNL     1     108.364 130.053 136.188  0.00  0.00    +0.000 C 
ATOM     30  C   UNL     1     108.996 129.773 136.639  0.00  0.00    +0.000 C 
BRANCH  28  31
ATOM     31  C   UNL     1     110.193 131.586 136.842  0.00  0.00    +0.000 C 
BRANCH  31  32
ATOM     32  O   UNL     1     110.976 131.395 136.666  0.00  0.00    +0.000 OA
BRANCH  32  34
ATOM     33  O   UNL     1     111.569 132.592 137.174  0.00  0.00    +0.000 OA
ATOM     34  C   UNL     1     111.592 131.774 137.061  0.00  0.00    +0.000 C 
BRANCH  34  35
ATOM     35  C   UNL     1     112.233 131.337 137.343  0.00  0.00    +0.000 C 
BRANCH  35  36
ATOM     36  C   UNL     1     112.954 131.357 136.944  0.00  0.00    +0.000 C 
BRANCH  36  39
ATOM     37  O   UNL     1     113.918 130.916 137.903  0.00  0.00    +0.000 OA
ATOM     38  O   UNL     1     113.811 130.256 136.641  0.00  0.00    +0.000 OA
ATOM     39  C   UNL     1     113.561 130.843 137.163  0.00  0.00    +0.000 C 
ENDBRANCH  36  39
ENDBRANCH  35  36
ENDBRANCH  34  35
ENDBRANCH  32  34
ENDBRANCH  31  32
ENDBRANCH  28  31
ENDBRANCH  21  30
ENDBRANCH   4  21
BRANCH   5  40
ATOM     40  O   UNL     1     113.055 126.759 137.498  0.00  0.00    +0.000 OA
BRANCH  40  49
ATOM     41  O   UNL     1     112.436 125.478 137.364  0.00  0.00    +0.000 OA
ATOM     42  O   UNL     1     114.406 124.654 136.113  0.00  0.00    +0.000 OA
ATOM     43  O   UNL     1     113.129 123.649 136.396  0.00  0.00    +0.000 OA
ATOM     44  O   UNL     1     114.369 126.210 136.664  0.00  0.00    +0.000 OA
ATOM     45  C   UNL     1     113.749 124.929 136.530  0.00  0.00    +0.000 C 
ATOM     46  C   UNL     1     113.111 124.426 136.671  0.00  0.00    +0.000 C 
ATOM     47  C   UNL     1     113.731 125.706 136.805  0.00  0.00    +0.000 C 
ATOM     48  C   UNL     1     112.454 124.701 137.088  0.00  0.00    +0.000 C 
ATOM     49  C   UNL     1     113.074 125.981 137.222  0.00  0.00    +0.000 C 
ATOM     50  C   UNL     1     111.815 124.198 137.230  0.00  0.00    +0.000 C 
ENDBRANCH  40  49
ENDBRANCH   5  40
TORSDOF 12
ENDMDL
MODEL 2
REMARK VINA RESULT:      -9.3      2.213      4.389
REMARK  Name = 44257993
REMARK  12 active torsions:
REMARK  status: ('A' for Active; 'I' for Inactive)
REMARK    1  A    between atoms: O_3  and  C_25
REMARK    2  A    between atoms: O_3  and  C_31
REMARK    3  A    between atoms: O_7  and  C_28
REMARK    4  A    between atoms: O_7  and  C_32
REMARK    5  A    between atoms: O_11  and  C_29
REMARK    6  A    between atoms: O_11  and  C_40
REMARK    7  A    between atoms: O_16  and  C_48
REMARK    8  A    between atoms: C_21  and  C_29
REMARK    9  A    between atoms: C_37  and  C_41
REMARK   10  A    between atoms: C_40  and  C_42
REMARK   11  A    between atoms: C_42  and  C_45
REMARK   12  A    between atoms: C_45  and  C_49
REMARK                            x       y       z     vdW  Elec       q    Type
REMARK                         _______ _______ _______ _____ _____    ______ ____
ROOT
ATOM      1  O   UNL     1     113.495 126.301 138.767  0.00  0.00    +0.000 OA
ATOM      2  O   UNL     1     111.098 125.831 138.371  0.00  0.00    +0.000 OA
ATOM      3  O   UNL     1     110.742 126.434 139.632  0.00  0.00    +0.000 OA
ATOM      4  C   UNL     1     112.612 127.153 140.633  0.00  0.00    +0.000 A 
ATOM      5  C   UNL     1     112.460 125.764 137.942  0.00  0.00    +0.000 A 
ATOM      6  C   UNL     1     112.134 126.367 139.196  0.00  0.00    +0.000 A 
ATOM      7  C   UNL     1     112.933 126.524 139.328  0.00  0.00    +0.000 A 
ATOM      8  C   UNL     1     113.192 126.919 140.046  0.00  0.00    +0.000 A 
ATOM      9  C   UNL     1     111.897 125.987 138.503  0.00  0.00    +0.000 A 
ATOM     10  C   UNL     1     113.258 125.921 138.074  0.00  0.00    +0.000 A 
ATOM     11  C   UNL     1     111.779 126.990 140.497  0.00  0.00    +0.000 A 
ATOM     12  C   UNL     1     111.539 126.595 139.773  0.00  0.00    +0.000 A 
ENDROOT
BRANCH  10  13
ATOM     13  C   UNL     1     113.820 125.698 137.513  0.00  0.00    +0.000 A 
ATOM     14  C   UNL     1     114.068 124.912 137.466  0.00  0.00    +0.000 A 
ATOM     15  C   UNL     1     114.135 126.260 136.998  0.00  0.00    +0.000 A 
ATOM     16  C   UNL     1     114.629 124.690 136.904  0.00  0.00    +0.000 A 
ATOM     17  C   UNL     1     114.697 126.038 136.437  0.00  0.00    +0.000 A 
ATOM     18  C   UNL     1     114.944 125.252 136.390  0.00  0.00    +0.000 A 
BRANCH  18  19
ATOM     19  O   UNL     1     115.507 125.029 135.829  0.00  0.00    +0.000 OA
ATOM     20  C   UNL     1     115.657 125.516 135.180  0.00  0.00    +0.000 C 
ENDBRANCH  18  19
ENDBRANCH  10  13
BRANCH   4  21
ATOM     21  O   UNL     1     112.852 127.533 141.326  0.00  0.00    +0.000 OA
BRANCH  21  30
ATOM     22  O   UNL     1     113.105 128.846 140.820  0.00  0.00    +0.000 OA
ATOM     23  O   UNL     1     112.552 130.808 141.600  0.00  0.00    +0.000 OA
ATOM     24  O   UNL     1     111.898 129.821 142.748  0.00  0.00    +0.000 OA
ATOM     25  O   UNL     1     112.048 128.184 142.612  0.00  0.00    +0.000 OA
ATOM     26  C   UNL     1     112.628 129.990 141.531  0.00  0.00    +0.000 C 
ATOM     27  C   UNL     1     112.300 129.496 142.106  0.00  0.00    +0.000 C 
ATOM     28  C   UNL     1     113.030 129.665 140.888  0.00  0.00    +0.000 C 
ATOM     29  C   UNL     1     112.375 128.678 142.037  0.00  0.00    +0.000 C 
ATOM     30  C   UNL     1     112.778 128.352 141.394  0.00  0.00    +0.000 C 
BRANCH  28  31
ATOM     31  C   UNL     1     113.357 130.158 140.314  0.00  0.00    +0.000 C 
BRANCH  31  32
ATOM     32  O   UNL     1     113.476 129.878 139.547  0.00  0.00    +0.000 OA
BRANCH  32  34
ATOM     33  O   UNL     1     114.377 130.923 139.176  0.00  0.00    +0.000 OA
ATOM     34  C   UNL     1     113.795 130.374 138.971  0.00  0.00    +0.000 C 
BRANCH  34  35
ATOM     35  C   UNL     1     113.533 130.323 138.191  0.00  0.00    +0.000 C 
BRANCH  35  36
ATOM     36  C   UNL     1     114.073 130.368 137.570  0.00  0.00    +0.000 C 
BRANCH  36  39
ATOM     37  O   UNL     1     114.176 129.688 136.317  0.00  0.00    +0.000 OA
ATOM     38  O   UNL     1     113.208 130.725 136.491  0.00  0.00    +0.000 OA
ATOM     39  C   UNL     1     113.819 130.261 136.793  0.00  0.00    +0.000 C 
ENDBRANCH  36  39
ENDBRANCH  35  36
ENDBRANCH  34  35
ENDBRANCH  32  34
ENDBRANCH  31  32
ENDBRANCH  28  31
ENDBRANCH  21  30
ENDBRANCH   4  21
BRANCH   5  40
ATOM     40  O   UNL     1     112.223 125.385 137.249  0.00  0.00    +0.000 OA
BRANCH  40  49
ATOM     41  O   UNL     1     111.706 126.584 136.668  0.00  0.00    +0.000 OA
ATOM     42  O   UNL     1     110.150 125.245 135.286  0.00  0.00    +0.000 OA
ATOM     43  O   UNL     1     110.153 126.891 135.166  0.00  0.00    +0.000 OA
ATOM     44  O   UNL     1     111.185 124.492 136.327  0.00  0.00    +0.000 OA
ATOM     45  C   UNL     1     110.669 125.692 135.746  0.00  0.00    +0.000 C 
ATOM     46  C   UNL     1     110.670 126.514 135.687  0.00  0.00    +0.000 C 
ATOM     47  C   UNL     1     111.186 125.315 136.267  0.00  0.00    +0.000 C 
ATOM     48  C   UNL     1     111.189 126.961 136.148  0.00  0.00    +0.000 C 
ATOM     49  C   UNL     1     111.705 125.761 136.728  0.00  0.00    +0.000 C 
ATOM     50  C   UNL     1     111.190 127.783 136.088  0.00  0.00    +0.000 C 
ENDBRANCH  40  49
ENDBRANCH   5  40
TORSDOF 12
ENDMDL
MODEL 3
REMARK VINA RESULT:      -9.3      1.821      5.924
REMARK  Name = 44257993
REMARK  12 active torsions:
REMARK  status: ('A' for Active; 'I' for Inactive)
REMARK    1  A    between atoms: O_3  and  C_25
REMARK    2  A    between atoms: O_3  and  C_31
REMARK    3  A    between atoms: O_7  and  C_28
REMARK    4  A    between atoms: O_7  and  C_32
REMARK    5  A    between atoms: O_11  and  C_29
REMARK    6  A    between atoms: O_11  and  C_40
REMARK    7  A    between atoms: O_16  and  C_48
REMARK    8  A    between atoms: C_21  and  C_29
REMARK    9  A    between atoms: C_37  and  C_41
REMARK   10  A    between atoms: C_40  and  C_42
REMARK   11  A    between atoms: C_42  and  C_45
REMARK   12  A    between atoms: C_45  and  C_49
REMARK                            x       y       z     vdW  Elec       q    Type
REMARK                         _______ _______ _______ _____ _____    ______ ____
ROOT
ATOM      1  O   UNL     1     112.549 128.789 137.466  0.00  0.00    +0.000 OA
ATOM      2  O   UNL     1     112.682 128.319 139.891  0.00  0.00    +0.000 OA
ATOM      3  O   UNL     1     113.171 126.986 139.635  0.00  0.00    +0.000 OA
ATOM      4  C   UNL     1     113.314 126.691 137.419  0.00  0.00    +0.000 A 
ATOM      5  C   UNL     1     112.374 129.211 138.819  0.00  0.00    +0.000 A 
ATOM      6  C   UNL     1     112.857 127.897 138.538  0.00  0.00    +0.000 A 
ATOM      7  C   UNL     1     112.813 128.053 137.729  0.00  0.00    +0.000 A 
ATOM      8  C   UNL     1     113.038 127.459 137.151  0.00  0.00    +0.000 A 
ATOM      9  C   UNL     1     112.637 128.476 139.083  0.00  0.00    +0.000 A 
ATOM     10  C   UNL     1     112.329 129.368 138.011  0.00  0.00    +0.000 A 
ATOM     11  C   UNL     1     113.360 126.527 138.261  0.00  0.00    +0.000 A 
ATOM     12  C   UNL     1     113.130 127.134 138.824  0.00  0.00    +0.000 A 
ENDROOT
BRANCH  10  13
ATOM     13  C   UNL     1     112.065 130.104 137.748  0.00  0.00    +0.000 A 
ATOM     14  C   UNL     1     111.265 130.299 137.798  0.00  0.00    +0.000 A 
ATOM     15  C   UNL     1     112.602 130.647 137.434  0.00  0.00    +0.000 A 
ATOM     16  C   UNL     1     111.002 131.035 137.535  0.00  0.00    +0.000 A 
ATOM     17  C   UNL     1     112.339 131.383 137.171  0.00  0.00    +0.000 A 
ATOM     18  C   UNL     1     111.539 131.577 137.221  0.00  0.00    +0.000 A 
BRANCH  18  19
ATOM     19  O   UNL     1     111.275 132.313 136.958  0.00  0.00    +0.000 OA
ATOM     20  C   UNL     1     110.648 132.688 137.342  0.00  0.00    +0.000 C 
ENDBRANCH  18  19
ENDBRANCH  10  13
BRANCH   4  21
ATOM     21  O   UNL     1     113.533 126.113 136.870  0.00  0.00    +0.000 OA
BRANCH  21  30
ATOM     22  O   UNL     1     112.258 125.650 136.419  0.00  0.00    +0.000 OA
ATOM     23  O   UNL     1     111.475 123.626 136.185  0.00  0.00    +0.000 OA
ATOM     24  O   UNL     1     112.994 123.310 136.745  0.00  0.00    +0.000 OA
ATOM     25  O   UNL     1     114.023 124.553 137.088  0.00  0.00    +0.000 OA
ATOM     26  C   UNL     1     111.989 124.248 136.356  0.00  0.00    +0.000 C 
ATOM     27  C   UNL     1     112.749 124.090 136.636  0.00  0.00    +0.000 C 
ATOM     28  C   UNL     1     111.743 125.029 136.247  0.00  0.00    +0.000 C 
ATOM     29  C   UNL     1     113.263 124.712 136.807  0.00  0.00    +0.000 C 
ATOM     30  C   UNL     1     113.017 125.492 136.699  0.00  0.00    +0.000 C 
BRANCH  28  31
ATOM     31  C   UNL     1     110.984 125.187 135.967  0.00  0.00    +0.000 C 
BRANCH  31  32
ATOM     32  O   UNL     1     110.771 125.957 135.764  0.00  0.00    +0.000 OA
BRANCH  32  34
ATOM     33  O   UNL     1     109.654 125.766 134.893  0.00  0.00    +0.000 OA
ATOM     34  C   UNL     1     109.992 126.129 135.554  0.00  0.00    +0.000 C 
BRANCH  34  35
ATOM     35  C   UNL     1     109.551 126.662 136.003  0.00  0.00    +0.000 C 
BRANCH  35  36
ATOM     36  C   UNL     1     109.268 127.356 135.659  0.00  0.00    +0.000 C 
BRANCH  36  39
ATOM     37  O   UNL     1     108.179 128.276 135.755  0.00  0.00    +0.000 OA
ATOM     38  O   UNL     1     108.996 128.013 136.897  0.00  0.00    +0.000 OA
ATOM     39  C   UNL     1     108.814 127.881 136.103  0.00  0.00    +0.000 C 
ENDBRANCH  36  39
ENDBRANCH  35  36
ENDBRANCH  34  35
ENDBRANCH  32  34
ENDBRANCH  31  32
ENDBRANCH  28  31
ENDBRANCH  21  30
ENDBRANCH   4  21
BRANCH   5  40
ATOM     40  O   UNL     1     112.154 129.790 139.364  0.00  0.00    +0.000 OA
BRANCH  40  49
ATOM     41  O   UNL     1     113.493 130.131 139.730  0.00  0.00    +0.000 OA
ATOM     42  O   UNL     1     112.730 130.685 142.018  0.00  0.00    +0.000 OA
ATOM     43  O   UNL     1     114.323 130.841 141.619  0.00  0.00    +0.000 OA
ATOM     44  O   UNL     1     111.645 130.159 140.890  0.00  0.00    +0.000 OA
ATOM     45  C   UNL     1     112.984 130.500 141.255  0.00  0.00    +0.000 C 
ATOM     46  C   UNL     1     113.781 130.578 141.056  0.00  0.00    +0.000 C 
ATOM     47  C   UNL     1     112.442 130.238 140.692  0.00  0.00    +0.000 C 
ATOM     48  C   UNL     1     114.035 130.393 140.293  0.00  0.00    +0.000 C 
ATOM     49  C   UNL     1     112.696 130.053 139.929  0.00  0.00    +0.000 C 
ATOM     50  C   UNL     1     114.832 130.471 140.094  0.00  0.00    +0.000 C 
ENDBRANCH  40  49
ENDBRANCH   5  40
TORSDOF 12
ENDMDL
MODEL 4
REMARK VINA RESULT:      -9.1      1.298      3.778
REMARK  Name = 44257993
REMARK  12 active torsions:
REMARK  status: ('A' for Active; 'I' for Inactive)
REMARK    1  A    between atoms: O_3  and  C_25
REMARK    2  A    between atoms: O_3  and  C_31
REMARK    3  A    between atoms: O_7  and  C_28
REMARK    4  A    between atoms: O_7  and  C_32
REMARK    5  A    between atoms: O_11  and  C_29
REMARK    6  A    between atoms: O_11  and  C_40
REMARK    7  A    between atoms: O_16  and  C_48
REMARK    8  A    between atoms: C_21  and  C_29
REMARK    9  A    between atoms: C_37  and  C_41
REMARK   10  A    between atoms: C_40  and  C_42
REMARK   11  A    between atoms: C_42  and  C_45
REMARK   12  A    between atoms: C_45  and  C_49
REMARK                            x       y       z     vdW  Elec       q    Type
REMARK                         _______ _______ _______ _____ _____    ______ ____
ROOT
ATOM      1  O   UNL     1     112.564 128.418 137.139  0.00  0.00    +0.000 OA
ATOM      2  O   UNL     1     112.602 128.673 139.600  0.00  0.00    +0.000 OA
ATOM      3  O   UNL     1     112.329 130.085 139.486  0.00  0.00    +0.000 OA
ATOM      4  C   UNL     1     112.154 130.607 137.315  0.00  0.00    +0.000 A 
ATOM      5  C   UNL     1     112.718 127.848 138.439  0.00  0.00    +0.000 A 
ATOM      6  C   UNL     1     112.448 129.244 138.299  0.00  0.00    +0.000 A 
ATOM      7  C   UNL     1     112.435 129.159 137.478  0.00  0.00    +0.000 A 
ATOM      8  C   UNL     1     112.289 129.834 136.967  0.00  0.00    +0.000 A 
ATOM      9  C   UNL     1     112.590 128.588 138.779  0.00  0.00    +0.000 A 
ATOM     10  C   UNL     1     112.706 127.763 137.619  0.00  0.00    +0.000 A 
ATOM     11  C   UNL     1     112.167 130.696 138.170  0.00  0.00    +0.000 A 
ATOM     12  C   UNL     1     112.315 130.010 138.665  0.00  0.00    +0.000 A 
ENDROOT
BRANCH  10  13
ATOM     13  C   UNL     1     112.835 127.022 137.280  0.00  0.00    +0.000 A 
ATOM     14  C   UNL     1     113.594 126.699 137.268  0.00  0.00    +0.000 A 
ATOM     15  C   UNL     1     112.204 126.603 136.951  0.00  0.00    +0.000 A 
ATOM     16  C   UNL     1     113.722 125.959 136.928  0.00  0.00    +0.000 A 
ATOM     17  C   UNL     1     112.333 125.863 136.612  0.00  0.00    +0.000 A 
ATOM     18  C   UNL     1     113.092 125.540 136.600  0.00  0.00    +0.000 A 
BRANCH  18  19
ATOM     19  O   UNL     1     113.221 124.799 136.260  0.00  0.00    +0.000 OA
ATOM     20  C   UNL     1     113.452 124.164 136.732  0.00  0.00    +0.000 C 
ENDBRANCH  18  19
ENDBRANCH  10  13
BRANCH   4  21
ATOM     21  O   UNL     1     112.012 131.261 136.831  0.00  0.00    +0.000 OA
BRANCH  21  30
ATOM     22  O   UNL     1     110.615 131.050 136.615  0.00  0.00    +0.000 OA
ATOM     23  O   UNL     1     108.953 132.462 136.535  0.00  0.00    +0.000 OA
ATOM     24  O   UNL     1     110.217 133.484 136.818  0.00  0.00    +0.000 OA
ATOM     25  O   UNL     1     111.746 132.884 136.966  0.00  0.00    +0.000 OA
ATOM     26  C   UNL     1     109.717 132.162 136.609  0.00  0.00    +0.000 C 
ATOM     27  C   UNL     1     110.350 132.673 136.750  0.00  0.00    +0.000 C 
ATOM     28  C   UNL     1     109.850 131.350 136.541  0.00  0.00    +0.000 C 
ATOM     29  C   UNL     1     111.114 132.372 136.824  0.00  0.00    +0.000 C 
ATOM     30  C   UNL     1     111.247 131.561 136.757  0.00  0.00    +0.000 C 
BRANCH  28  31
ATOM     31  C   UNL     1     109.219 130.840 136.400  0.00  0.00    +0.000 C 
BRANCH  31  32
ATOM     32  O   UNL     1     109.341 130.135 135.989  0.00  0.00    +0.000 OA
BRANCH  32  34
ATOM     33  O   UNL     1     107.982 129.771 135.736  0.00  0.00    +0.000 OA
ATOM     34  C   UNL     1     108.748 129.562 135.965  0.00  0.00    +0.000 C 
BRANCH  34  35
ATOM     35  C   UNL     1     108.919 128.781 136.168  0.00  0.00    +0.000 C 
BRANCH  35  36
ATOM     36  C   UNL     1     108.590 128.160 135.737  0.00  0.00    +0.000 C 
BRANCH  36  39
ATOM     37  O   UNL     1     109.170 126.913 135.352  0.00  0.00    +0.000 OA
ATOM     38  O   UNL     1     108.616 127.070 136.659  0.00  0.00    +0.000 OA
ATOM     39  C   UNL     1     108.792 127.381 135.916  0.00  0.00    +0.000 C 
ENDBRANCH  36  39
ENDBRANCH  35  36
ENDBRANCH  34  35
ENDBRANCH  32  34
ENDBRANCH  31  32
ENDBRANCH  28  31
ENDBRANCH  21  30
ENDBRANCH   4  21
BRANCH   5  40
ATOM     40  O   UNL     1     112.860 127.192 138.920  0.00  0.00    +0.000 OA
BRANCH  40  49
ATOM     41  O   UNL     1     111.499 127.009 139.316  0.00  0.00    +0.000 OA
ATOM     42  O   UNL     1     112.252 126.225 141.540  0.00  0.00    +0.000 OA
ATOM     43  O   UNL     1     110.640 126.303 141.195  0.00  0.00    +0.000 OA
ATOM     44  O   UNL     1     113.362 126.669 140.402  0.00  0.00    +0.000 OA
ATOM     45  C   UNL     1     112.001 126.486 140.799  0.00  0.00    +0.000 C 
ATOM     46  C   UNL     1     111.195 126.525 140.626  0.00  0.00    +0.000 C 
ATOM     47  C   UNL     1     112.556 126.708 140.230  0.00  0.00    +0.000 C 
ATOM     48  C   UNL     1     110.944 126.787 139.885  0.00  0.00    +0.000 C 
ATOM     49  C   UNL     1     112.305 126.970 139.489  0.00  0.00    +0.000 C 
ATOM     50  C   UNL     1     110.139 126.826 139.712  0.00  0.00    +0.000 C 
ENDBRANCH  40  49
ENDBRANCH   5  40
TORSDOF 12
ENDMDL
MODEL 5
REMARK VINA RESULT:      -9.0      1.897      5.864
REMARK  Name = 44257993
REMARK  12 active torsions:
REMARK  status: ('A' for Active; 'I' for Inactive)
REMARK    1  A    between atoms: O_3  and  C_25
REMARK    2  A    between atoms: O_3  and  C_31
REMARK    3  A    between atoms: O_7  and  C_28
REMARK    4  A    between atoms: O_7  and  C_32
REMARK    5  A    between atoms: O_11  and  C_29
REMARK    6  A    between atoms: O_11  and  C_40
REMARK    7  A    between atoms: O_16  and  C_48
REMARK    8  A    between atoms: C_21  and  C_29
REMARK    9  A    between atoms: C_37  and  C_41
REMARK   10  A    between atoms: C_40  and  C_42
REMARK   11  A    between atoms: C_42  and  C_45
REMARK   12  A    between atoms: C_45  and  C_49
REMARK                            x       y       z     vdW  Elec       q    Type
REMARK                         _______ _______ _______ _____ _____    ______ ____
ROOT
ATOM      1  O   UNL     1     112.364 129.015 137.235  0.00  0.00    +0.000 OA
ATOM      2  O   UNL     1     112.658 128.685 139.670  0.00  0.00    +0.000 OA
ATOM      3  O   UNL     1     113.236 127.381 139.453  0.00  0.00    +0.000 OA
ATOM      4  C   UNL     1     113.287 126.980 137.250  0.00  0.00    +0.000 A 
ATOM      5  C   UNL     1     112.226 129.494 138.574  0.00  0.00    +0.000 A 
ATOM      6  C   UNL     1     112.795 128.206 138.332  0.00  0.00    +0.000 A 
ATOM      7  C   UNL     1     112.698 128.316 137.519  0.00  0.00    +0.000 A 
ATOM      8  C   UNL     1     112.939 127.710 136.960  0.00  0.00    +0.000 A 
ATOM      9  C   UNL     1     112.560 128.796 138.858  0.00  0.00    +0.000 A 
ATOM     10  C   UNL     1     112.128 129.604 137.763  0.00  0.00    +0.000 A 
ATOM     11  C   UNL     1     113.389 126.865 138.095  0.00  0.00    +0.000 A 
ATOM     12  C   UNL     1     113.142 127.482 138.639  0.00  0.00    +0.000 A 
ENDROOT
BRANCH  10  13
ATOM     13  C   UNL     1     111.795 130.303 137.479  0.00  0.00    +0.000 A 
ATOM     14  C   UNL     1     112.241 130.997 137.462  0.00  0.00    +0.000 A 
ATOM     15  C   UNL     1     111.015 130.308 137.211  0.00  0.00    +0.000 A 
ATOM     16  C   UNL     1     111.907 131.695 137.178  0.00  0.00    +0.000 A 
ATOM     17  C   UNL     1     110.680 131.007 136.927  0.00  0.00    +0.000 A 
ATOM     18  C   UNL     1     111.126 131.701 136.910  0.00  0.00    +0.000 A 
BRANCH  18  19
ATOM     19  O   UNL     1     110.793 132.400 136.626  0.00  0.00    +0.000 OA
ATOM     20  C   UNL     1     110.406 132.912 137.144  0.00  0.00    +0.000 C 
ENDBRANCH  18  19
ENDBRANCH  10  13
BRANCH   4  21
ATOM     21  O   UNL     1     113.522 126.392 136.719  0.00  0.00    +0.000 OA
BRANCH  21  30
ATOM     22  O   UNL     1     112.262 125.822 136.358  0.00  0.00    +0.000 OA
ATOM     23  O   UNL     1     111.615 123.741 136.246  0.00  0.00    +0.000 OA
ATOM     24  O   UNL     1     113.180 123.556 136.732  0.00  0.00    +0.000 OA
ATOM     25  O   UNL     1     114.134 124.881 136.969  0.00  0.00    +0.000 OA
ATOM     26  C   UNL     1     112.091 124.404 136.364  0.00  0.00    +0.000 C 
ATOM     27  C   UNL     1     112.874 124.311 136.607  0.00  0.00    +0.000 C 
ATOM     28  C   UNL     1     111.785 125.160 136.239  0.00  0.00    +0.000 C 
ATOM     29  C   UNL     1     113.351 124.974 136.726  0.00  0.00    +0.000 C 
ATOM     30  C   UNL     1     113.044 125.730 136.601  0.00  0.00    +0.000 C 
BRANCH  28  31
ATOM     31  C   UNL     1     111.002 125.252 135.997  0.00  0.00    +0.000 C 
BRANCH  31  32
ATOM     32  O   UNL     1     110.751 125.970 135.676  0.00  0.00    +0.000 OA
BRANCH  32  34
ATOM     33  O   UNL     1     109.585 125.682 134.902  0.00  0.00    +0.000 OA
ATOM     34  C   UNL     1     109.952 126.094 135.517  0.00  0.00    +0.000 C 
BRANCH  34  35
ATOM     35  C   UNL     1     109.518 126.630 135.971  0.00  0.00    +0.000 C 
BRANCH  35  36
ATOM     36  C   UNL     1     109.073 127.217 135.602  0.00  0.00    +0.000 C 
BRANCH  36  39
ATOM     37  O   UNL     1     108.189 128.337 135.691  0.00  0.00    +0.000 OA
ATOM     38  O   UNL     1     108.765 127.785 136.876  0.00  0.00    +0.000 OA
ATOM     39  C   UNL     1     108.676 127.779 136.056  0.00  0.00    +0.000 C 
ENDBRANCH  36  39
ENDBRANCH  35  36
ENDBRANCH  34  35
ENDBRANCH  32  34
ENDBRANCH  31  32
ENDBRANCH  28  31
ENDBRANCH  21  30
ENDBRANCH   4  21
BRANCH   5  40
ATOM     40  O   UNL     1     111.991 130.083 139.101  0.00  0.00    +0.000 OA
BRANCH  40  49
ATOM     41  O   UNL     1     110.828 129.374 139.534  0.00  0.00    +0.000 OA
ATOM     42  O   UNL     1     110.962 130.495 141.736  0.00  0.00    +0.000 OA
ATOM     43  O   UNL     1     109.754 129.412 141.434  0.00  0.00    +0.000 OA
ATOM     44  O   UNL     1     112.080 130.830 140.569  0.00  0.00    +0.000 OA
ATOM     45  C   UNL     1     110.917 130.121 141.002  0.00  0.00    +0.000 C 
ATOM     46  C   UNL     1     110.314 129.580 140.851  0.00  0.00    +0.000 C 
ATOM     47  C   UNL     1     111.476 130.289 140.419  0.00  0.00    +0.000 C 
ATOM     48  C   UNL     1     110.269 129.206 140.117  0.00  0.00    +0.000 C 
ATOM     49  C   UNL     1     111.432 129.915 139.685  0.00  0.00    +0.000 C 
ATOM     50  C   UNL     1     109.665 128.664 139.966  0.00  0.00    +0.000 C 
ENDBRANCH  40  49
ENDBRANCH   5  40
TORSDOF 12
ENDMDL
MODEL 6
REMARK VINA RESULT:      -9.0      2.201      5.133
REMARK  Name = 44257993
REMARK  12 active torsions:
REMARK  status: ('A' for Active; 'I' for Inactive)
REMARK    1  A    between atoms: O_3  and  C_25
REMARK    2  A    between atoms: O_3  and  C_31
REMARK    3  A    between atoms: O_7  and  C_28
REMARK    4  A    between atoms: O_7  and  C_32
REMARK    5  A    between atoms: O_11  and  C_29
REMARK    6  A    between atoms: O_11  and  C_40
REMARK    7  A    between atoms: O_16  and  C_48
REMARK    8  A    between atoms: C_21  and  C_29
REMARK    9  A    between atoms: C_37  and  C_41
REMARK   10  A    between atoms: C_40  and  C_42
REMARK   11  A    between atoms: C_42  and  C_45
REMARK   12  A    between atoms: C_45  and  C_49
REMARK                            x       y       z     vdW  Elec       q    Type
REMARK                         _______ _______ _______ _____ _____    ______ ____
ROOT
ATOM      1  O   UNL     1     112.842 128.368 138.252  0.00  0.00    +0.000 OA
ATOM      2  O   UNL     1     112.564 126.048 139.069  0.00  0.00    +0.000 OA
ATOM      3  O   UNL     1     113.373 126.330 140.230  0.00  0.00    +0.000 OA
ATOM      4  C   UNL     1     114.036 128.468 140.138  0.00  0.00    +0.000 A 
ATOM      5  C   UNL     1     112.301 127.056 138.090  0.00  0.00    +0.000 A 
ATOM      6  C   UNL     1     113.105 127.360 139.231  0.00  0.00    +0.000 A 
ATOM      7  C   UNL     1     113.198 128.134 138.959  0.00  0.00    +0.000 A 
ATOM      8  C   UNL     1     113.663 128.705 139.402  0.00  0.00    +0.000 A 
ATOM      9  C   UNL     1     112.657 126.821 138.797  0.00  0.00    +0.000 A 
ATOM     10  C   UNL     1     112.394 127.828 137.818  0.00  0.00    +0.000 A 
ATOM     11  C   UNL     1     113.940 127.662 140.422  0.00  0.00    +0.000 A 
ATOM     12  C   UNL     1     113.471 127.105 139.966  0.00  0.00    +0.000 A 
ENDROOT
BRANCH  10  13
ATOM     13  C   UNL     1     112.038 128.062 137.112  0.00  0.00    +0.000 A 
ATOM     14  C   UNL     1     111.223 128.191 137.082  0.00  0.00    +0.000 A 
ATOM     15  C   UNL     1     112.496 128.166 136.434  0.00  0.00    +0.000 A 
ATOM     16  C   UNL     1     110.868 128.424 136.375  0.00  0.00    +0.000 A 
ATOM     17  C   UNL     1     112.141 128.400 135.727  0.00  0.00    +0.000 A 
ATOM     18  C   UNL     1     111.326 128.529 135.697  0.00  0.00    +0.000 A 
BRANCH  18  19
ATOM     19  O   UNL     1     110.970 128.762 134.991  0.00  0.00    +0.000 OA
ATOM     20  C   UNL     1     110.697 129.536 134.902  0.00  0.00    +0.000 C 
ENDBRANCH  18  19
ENDBRANCH  10  13
BRANCH   4  21
ATOM     21  O   UNL     1     114.484 129.010 140.570  0.00  0.00    +0.000 OA
BRANCH  21  30
ATOM     22  O   UNL     1     113.379 129.512 141.323  0.00  0.00    +0.000 OA
ATOM     23  O   UNL     1     112.995 131.496 142.148  0.00  0.00    +0.000 OA
ATOM     24  O   UNL     1     114.461 131.734 141.432  0.00  0.00    +0.000 OA
ATOM     25  O   UNL     1     115.207 130.492 140.643  0.00  0.00    +0.000 OA
ATOM     26  C   UNL     1     113.367 130.874 141.754  0.00  0.00    +0.000 C 
ATOM     27  C   UNL     1     114.101 130.994 141.395  0.00  0.00    +0.000 C 
ATOM     28  C   UNL     1     113.005 130.134 141.718  0.00  0.00    +0.000 C 
ATOM     29  C   UNL     1     114.473 130.372 141.001  0.00  0.00    +0.000 C 
ATOM     30  C   UNL     1     114.111 129.631 140.965  0.00  0.00    +0.000 C 
BRANCH  28  31
ATOM     31  C   UNL     1     112.273 130.015 142.076  0.00  0.00    +0.000 C 
BRANCH  31  32
ATOM     32  O   UNL     1     112.049 129.258 142.317  0.00  0.00    +0.000 OA
BRANCH  32  34
ATOM     33  O   UNL     1     110.911 129.372 143.175  0.00  0.00    +0.000 OA
ATOM     34  C   UNL     1     111.257 129.093 142.478  0.00  0.00    +0.000 C 
BRANCH  34  35
ATOM     35  C   UNL     1     110.810 128.650 141.945  0.00  0.00    +0.000 C 
BRANCH  35  36
ATOM     36  C   UNL     1     110.485 127.929 142.177  0.00  0.00    +0.000 C 
BRANCH  36  39
ATOM     37  O   UNL     1     110.386 126.575 141.732  0.00  0.00    +0.000 OA
ATOM     38  O   UNL     1     109.882 127.635 140.916  0.00  0.00    +0.000 OA
ATOM     39  C   UNL     1     110.251 127.380 141.609  0.00  0.00    +0.000 C 
ENDBRANCH  36  39
ENDBRANCH  35  36
ENDBRANCH  34  35
ENDBRANCH  32  34
ENDBRANCH  31  32
ENDBRANCH  28  31
ENDBRANCH  21  30
ENDBRANCH   4  21
BRANCH   5  40
ATOM     40  O   UNL     1     111.852 126.516 137.656  0.00  0.00    +0.000 OA
BRANCH  40  49
ATOM     41  O   UNL     1     112.984 125.809 137.145  0.00  0.00    +0.000 OA
ATOM     42  O   UNL     1     111.649 123.727 137.065  0.00  0.00    +0.000 OA
ATOM     43  O   UNL     1     113.226 123.715 136.580  0.00  0.00    +0.000 OA
ATOM     44  O   UNL     1     110.962 125.128 137.603  0.00  0.00    +0.000 OA
ATOM     45  C   UNL     1     112.094 124.421 137.092  0.00  0.00    +0.000 C 
ATOM     46  C   UNL     1     112.883 124.415 136.849  0.00  0.00    +0.000 C 
ATOM     47  C   UNL     1     111.750 125.121 137.361  0.00  0.00    +0.000 C 
ATOM     48  C   UNL     1     113.328 125.109 136.876  0.00  0.00    +0.000 C 
ATOM     49  C   UNL     1     112.196 125.815 137.387  0.00  0.00    +0.000 C 
ATOM     50  C   UNL     1     114.117 125.103 136.634  0.00  0.00    +0.000 C 
ENDBRANCH  40  49
ENDBRANCH   5  40
TORSDOF 12
ENDMDL
MODEL 7
REMARK VINA RESULT:      -8.9      1.692      5.473
REMARK  Name = 44257993
REMARK  12 active torsions:
REMARK  status: ('A' for Active; 'I' for Inactive)
REMARK    1  A    between atoms: O_3  and  C_25
REMARK    2  A    between atoms: O_3  and  C_31
REMARK    3  A    between atoms: O_7  and  C_28
REMARK    4  A    between atoms: O_7  and  C_32
REMARK    5  A    between atoms: O_11  and  C_29
REMARK    6  A    between atoms: O_11  and  C_40
REMARK    7  A    between atoms: O_16  and  C_48
REMARK    8  A    between atoms: C_21  and  C_29
REMARK    9  A    between atoms: C_37  and  C_41
REMARK   10  A    between atoms: C_40  and  C_42
REMARK   11  A    between atoms: C_42  and  C_45
REMARK   12  A    between atoms: C_45  and  C_49
REMARK                            x       y       z     vdW  Elec       q    Type
REMARK                         _______ _______ _______ _____ _____    ______ ____
ROOT
ATOM      1  O   UNL     1     113.085 128.104 138.634  0.00  0.00    +0.000 OA
ATOM      2  O   UNL     1     112.313 129.782 136.987  0.00  0.00    +0.000 OA
ATOM      3  O   UNL     1     112.574 128.873 135.897  0.00  0.00    +0.000 OA
ATOM      4  C   UNL     1     113.374 126.958 136.739  0.00  0.00    +0.000 A 
ATOM      5  C   UNL     1     112.565 129.402 138.341  0.00  0.00    +0.000 A 
ATOM      6  C   UNL     1     112.833 128.484 137.280  0.00  0.00    +0.000 A 
ATOM      7  C   UNL     1     113.090 127.924 137.829  0.00  0.00    +0.000 A 
ATOM      8  C   UNL     1     113.366 127.151 137.575  0.00  0.00    +0.000 A 
ATOM      9  C   UNL     1     112.570 129.222 137.537  0.00  0.00    +0.000 A 
ATOM     10  C   UNL     1     112.823 128.843 138.890  0.00  0.00    +0.000 A 
ATOM     11  C   UNL     1     113.106 127.540 136.166  0.00  0.00    +0.000 A 
ATOM     12  C   UNL     1     112.833 128.308 136.439  0.00  0.00    +0.000 A 
ENDROOT
BRANCH  10  13
ATOM     13  C   UNL     1     112.817 129.023 139.695  0.00  0.00    +0.000 A 
ATOM     14  C   UNL     1     113.365 129.558 140.003  0.00  0.00    +0.000 A 
ATOM     15  C   UNL     1     112.264 128.668 140.194  0.00  0.00    +0.000 A 
ATOM     16  C   UNL     1     113.359 129.737 140.807  0.00  0.00    +0.000 A 
ATOM     17  C   UNL     1     112.258 128.847 140.998  0.00  0.00    +0.000 A 
ATOM     18  C   UNL     1     112.806 129.382 141.306  0.00  0.00    +0.000 A 
BRANCH  18  19
ATOM     19  O   UNL     1     112.801 129.562 142.111  0.00  0.00    +0.000 OA
ATOM     20  C   UNL     1     112.329 130.178 142.393  0.00  0.00    +0.000 C 
ENDBRANCH  18  19
ENDBRANCH  10  13
BRANCH   4  21
ATOM     21  O   UNL     1     113.637 126.217 136.485  0.00  0.00    +0.000 OA
BRANCH  21  30
ATOM     22  O   UNL     1     112.367 125.638 136.181  0.00  0.00    +0.000 OA
ATOM     23  O   UNL     1     111.588 123.631 136.540  0.00  0.00    +0.000 OA
ATOM     24  O   UNL     1     113.104 123.497 137.176  0.00  0.00    +0.000 OA
ATOM     25  O   UNL     1     114.129 124.789 137.149  0.00  0.00    +0.000 OA
ATOM     26  C   UNL     1     112.100 124.277 136.526  0.00  0.00    +0.000 C 
ATOM     27  C   UNL     1     112.859 124.210 136.845  0.00  0.00    +0.000 C 
ATOM     28  C   UNL     1     111.854 124.992 136.194  0.00  0.00    +0.000 C 
ATOM     29  C   UNL     1     113.370 124.857 136.831  0.00  0.00    +0.000 C 
ATOM     30  C   UNL     1     113.124 125.571 136.499  0.00  0.00    +0.000 C 
BRANCH  28  31
ATOM     31  C   UNL     1     111.096 125.059 135.876  0.00  0.00    +0.000 C 
BRANCH  31  32
ATOM     32  O   UNL     1     110.864 125.759 135.506  0.00  0.00    +0.000 OA
BRANCH  32  34
ATOM     33  O   UNL     1     109.783 125.364 134.659  0.00  0.00    +0.000 OA
ATOM     34  C   UNL     1     110.086 125.853 135.252  0.00  0.00    +0.000 C 
BRANCH  34  35
ATOM     35  C   UNL     1     109.608 126.436 135.590  0.00  0.00    +0.000 C 
BRANCH  35  36
ATOM     36  C   UNL     1     109.381 127.092 135.146  0.00  0.00    +0.000 C 
BRANCH  36  39
ATOM     37  O   UNL     1     108.363 127.555 136.034  0.00  0.00    +0.000 OA
ATOM     38  O   UNL     1     109.183 128.494 135.336  0.00  0.00    +0.000 OA
ATOM     39  C   UNL     1     108.976 127.713 135.505  0.00  0.00    +0.000 C 
ENDBRANCH  36  39
ENDBRANCH  35  36
ENDBRANCH  34  35
ENDBRANCH  32  34
ENDBRANCH  31  32
ENDBRANCH  28  31
ENDBRANCH  21  30
ENDBRANCH   4  21
BRANCH   5  40
ATOM     40  O   UNL     1     112.303 130.141 138.597  0.00  0.00    +0.000 OA
BRANCH  40  49
ATOM     41  O   UNL     1     110.906 129.850 138.513  0.00  0.00    +0.000 OA
ATOM     42  O   UNL     1     110.464 132.178 137.796  0.00  0.00    +0.000 OA
ATOM     43  O   UNL     1     109.215 131.111 137.950  0.00  0.00    +0.000 OA
ATOM     44  O   UNL     1     112.008 131.692 138.119  0.00  0.00    +0.000 OA
ATOM     45  C   UNL     1     110.612 131.402 138.035  0.00  0.00    +0.000 C 
ATOM     46  C   UNL     1     109.987 130.868 138.112  0.00  0.00    +0.000 C 
ATOM     47  C   UNL     1     111.383 131.160 138.196  0.00  0.00    +0.000 C 
ATOM     48  C   UNL     1     110.134 130.093 138.351  0.00  0.00    +0.000 C 
ATOM     49  C   UNL     1     111.531 130.384 138.435  0.00  0.00    +0.000 C 
ATOM     50  C   UNL     1     109.510 129.559 138.429  0.00  0.00    +0.000 C 
ENDBRANCH  40  49
ENDBRANCH   5  40
TORSDOF 12
ENDMDL
MODEL 8
REMARK VINA RESULT:      -8.8      1.330      2.979
REMARK  Name = 44257993
REMARK  12 active torsions:
REMARK  status: ('A' for Active; 'I' for Inactive)
REMARK    1  A    between atoms: O_3  and  C_25
REMARK    2  A    between atoms: O_3  and  C_31
REMARK    3  A    between atoms: O_7  and  C_28
REMARK    4  A    between atoms: O_7  and  C_32
REMARK    5  A    between atoms: O_11  and  C_29
REMARK    6  A    between atoms: O_11  and  C_40
REMARK    7  A    between atoms: O_16  and  C_48
REMARK    8  A    between atoms: C_21  and  C_29
REMARK    9  A    between atoms: C_37  and  C_41
REMARK   10  A    between atoms: C_40  and  C_42
REMARK   11  A    between atoms: C_42  and  C_45
REMARK   12  A    between atoms: C_45  and  C_49
REMARK                            x       y       z     vdW  Elec       q    Type
REMARK                         _______ _______ _______ _____ _____    ______ ____
ROOT
ATOM      1  O   UNL     1     111.605 128.123 138.257  0.00  0.00    +0.000 OA
ATOM      2  O   UNL     1     112.444 126.832 136.320  0.00  0.00    +0.000 OA
ATOM      3  O   UNL     1     112.823 128.045 135.638  0.00  0.00    +0.000 OA
ATOM      4  C   UNL     1     112.302 129.790 136.943  0.00  0.00    +0.000 A 
ATOM      5  C   UNL     1     111.842 126.869 137.615  0.00  0.00    +0.000 A 
ATOM      6  C   UNL     1     112.208 128.086 136.962  0.00  0.00    +0.000 A 
ATOM      7  C   UNL     1     111.928 128.517 137.608  0.00  0.00    +0.000 A 
ATOM      8  C   UNL     1     111.967 129.375 137.616  0.00  0.00    +0.000 A 
ATOM      9  C   UNL     1     112.165 127.262 136.966  0.00  0.00    +0.000 A 
ATOM     10  C   UNL     1     111.562 127.299 138.260  0.00  0.00    +0.000 A 
ATOM     11  C   UNL     1     112.593 129.342 136.270  0.00  0.00    +0.000 A 
ATOM     12  C   UNL     1     112.546 128.485 136.280  0.00  0.00    +0.000 A 
ENDROOT
BRANCH  10  13
ATOM     13  C   UNL     1     111.240 126.905 138.910  0.00  0.00    +0.000 A 
ATOM     14  C   UNL     1     111.658 126.867 139.619  0.00  0.00    +0.000 A 
ATOM     15  C   UNL     1     110.498 126.550 138.849  0.00  0.00    +0.000 A 
ATOM     16  C   UNL     1     111.335 126.473 140.268  0.00  0.00    +0.000 A 
ATOM     17  C   UNL     1     110.175 126.156 139.498  0.00  0.00    +0.000 A 
ATOM     18  C   UNL     1     110.593 126.118 140.208  0.00  0.00    +0.000 A 
BRANCH  18  19
ATOM     19  O   UNL     1     110.270 125.724 140.857  0.00  0.00    +0.000 OA
ATOM     20  C   UNL     1     109.457 125.749 140.993  0.00  0.00    +0.000 C 
ENDBRANCH  18  19
ENDBRANCH  10  13
BRANCH   4  21
ATOM     21  O   UNL     1     112.343 130.615 136.942  0.00  0.00    +0.000 OA
BRANCH  21  30
ATOM     22  O   UNL     1     111.006 130.758 136.459  0.00  0.00    +0.000 OA
ATOM     23  O   UNL     1     109.587 132.406 136.647  0.00  0.00    +0.000 OA
ATOM     24  O   UNL     1     110.883 133.014 137.466  0.00  0.00    +0.000 OA
ATOM     25  O   UNL     1     112.261 132.120 137.614  0.00  0.00    +0.000 OA
ATOM     26  C   UNL     1     110.276 131.958 136.720  0.00  0.00    +0.000 C 
ATOM     27  C   UNL     1     110.924 132.263 137.130  0.00  0.00    +0.000 C 
ATOM     28  C   UNL     1     110.317 131.205 136.384  0.00  0.00    +0.000 C 
ATOM     29  C   UNL     1     111.613 131.815 137.204  0.00  0.00    +0.000 C 
ATOM     30  C   UNL     1     111.654 131.062 136.868  0.00  0.00    +0.000 C 
BRANCH  28  31
ATOM     31  C   UNL     1     109.669 130.901 135.975  0.00  0.00    +0.000 C 
BRANCH  31  32
ATOM     32  O   UNL     1     109.365 130.160 136.174  0.00  0.00    +0.000 OA
BRANCH  32  34
ATOM     33  O   UNL     1     108.187 130.166 135.366  0.00  0.00    +0.000 OA
ATOM     34  C   UNL     1     108.851 129.773 135.660  0.00  0.00    +0.000 C 
BRANCH  34  35
ATOM     35  C   UNL     1     108.999 128.992 135.437  0.00  0.00    +0.000 C 
BRANCH  35  36
ATOM     36  C   UNL     1     108.585 128.375 135.794  0.00  0.00    +0.000 C 
BRANCH  36  39
ATOM     37  O   UNL     1     109.333 127.409 135.053  0.00  0.00    +0.000 OA
ATOM     38  O   UNL     1     108.553 127.000 136.179  0.00  0.00    +0.000 OA
ATOM     39  C   UNL     1     108.824 127.595 135.675  0.00  0.00    +0.000 C 
ENDBRANCH  36  39
ENDBRANCH  35  36
ENDBRANCH  34  35
ENDBRANCH  32  34
ENDBRANCH  31  32
ENDBRANCH  28  31
ENDBRANCH  21  30
ENDBRANCH   4  21
BRANCH   5  40
ATOM     40  O   UNL     1     111.799 126.045 137.619  0.00  0.00    +0.000 OA
BRANCH  40  49
ATOM     41  O   UNL     1     113.191 125.842 137.869  0.00  0.00    +0.000 OA
ATOM     42  O   UNL     1     113.127 123.753 136.544  0.00  0.00    +0.000 OA
ATOM     43  O   UNL     1     114.540 124.248 137.236  0.00  0.00    +0.000 OA
ATOM     44  O   UNL     1     111.756 124.652 136.735  0.00  0.00    +0.000 OA
ATOM     45  C   UNL     1     113.148 124.449 136.985  0.00  0.00    +0.000 C 
ATOM     46  C   UNL     1     113.855 124.697 137.332  0.00  0.00    +0.000 C 
ATOM     47  C   UNL     1     112.463 124.899 137.081  0.00  0.00    +0.000 C 
ATOM     48  C   UNL     1     113.877 125.393 137.773  0.00  0.00    +0.000 C 
ATOM     49  C   UNL     1     112.484 125.595 137.523  0.00  0.00    +0.000 C 
ATOM     50  C   UNL     1     114.584 125.641 138.119  0.00  0.00    +0.000 C 
ENDBRANCH  40  49
ENDBRANCH   5  40
TORSDOF 12
ENDMDL
MODEL 9
REMARK VINA RESULT:      -8.7      1.881      5.827
REMARK  Name = 44257993
REMARK  12 active torsions:
REMARK  status: ('A' for Active; 'I' for Inactive)
REMARK    1  A    between atoms: O_3  and  C_25
REMARK    2  A    between atoms: O_3  and  C_31
REMARK    3  A    between atoms: O_7  and  C_28
REMARK    4  A    between atoms: O_7  and  C_32
REMARK    5  A    between atoms: O_11  and  C_29
REMARK    6  A    between atoms: O_11  and  C_40
REMARK    7  A    between atoms: O_16  and  C_48
REMARK    8  A    between atoms: C_21  and  C_29
REMARK    9  A    between atoms: C_37  and  C_41
REMARK   10  A    between atoms: C_40  and  C_42
REMARK   11  A    between atoms: C_42  and  C_45
REMARK   12  A    between atoms: C_45  and  C_49
REMARK                            x       y       z     vdW  Elec       q    Type
REMARK                         _______ _______ _______ _____ _____    ______ ____
ROOT
ATOM      1  O   UNL     1     109.928 128.068 136.388  0.00  0.00    +0.000 OA
ATOM      2  O   UNL     1     109.575 128.245 138.831  0.00  0.00    +0.000 OA
ATOM      3  O   UNL     1     110.081 126.908 139.030  0.00  0.00    +0.000 OA
ATOM      4  C   UNL     1     110.649 126.056 137.038  0.00  0.00    +0.000 A 
ATOM      5  C   UNL     1     109.499 128.819 137.525  0.00  0.00    +0.000 A 
ATOM      6  C   UNL     1     110.004 127.493 137.695  0.00  0.00    +0.000 A 
ATOM      7  C   UNL     1     110.122 127.434 136.880  0.00  0.00    +0.000 A 
ATOM      8  C   UNL     1     110.446 126.718 136.532  0.00  0.00    +0.000 A 
ATOM      9  C   UNL     1     109.692 128.186 138.017  0.00  0.00    +0.000 A 
ATOM     10  C   UNL     1     109.616 128.760 136.711  0.00  0.00    +0.000 A 
ATOM     11  C   UNL     1     110.527 126.117 137.887  0.00  0.00    +0.000 A 
ATOM     12  C   UNL     1     110.202 126.840 138.217  0.00  0.00    +0.000 A 
ENDROOT
BRANCH  10  13
ATOM     13  C   UNL     1     109.422 129.394 136.220  0.00  0.00    +0.000 A 
ATOM     14  C   UNL     1     108.631 129.580 136.078  0.00  0.00    +0.000 A 
ATOM     15  C   UNL     1     110.020 129.842 135.869  0.00  0.00    +0.000 A 
ATOM     16  C   UNL     1     108.438 130.213 135.586  0.00  0.00    +0.000 A 
ATOM     17  C   UNL     1     109.827 130.475 135.378  0.00  0.00    +0.000 A 
ATOM     18  C   UNL     1     109.036 130.661 135.236  0.00  0.00    +0.000 A 
BRANCH  18  19
ATOM     19  O   UNL     1     108.842 131.295 134.744  0.00  0.00    +0.000 OA
ATOM     20  C   UNL     1     108.532 131.988 135.068  0.00  0.00    +0.000 C 
ENDBRANCH  18  19
ENDBRANCH  10  13
BRANCH   4  21
ATOM     21  O   UNL     1     110.961 125.364 136.712  0.00  0.00    +0.000 OA
BRANCH  21  30
ATOM     22  O   UNL     1     112.306 125.839 136.626  0.00  0.00    +0.000 OA
ATOM     23  O   UNL     1     114.208 124.792 136.851  0.00  0.00    +0.000 OA
ATOM     24  O   UNL     1     113.142 123.557 137.092  0.00  0.00    +0.000 OA
ATOM     25  O   UNL     1     111.518 123.842 137.023  0.00  0.00    +0.000 OA
ATOM     26  C   UNL     1     113.397 124.936 136.816  0.00  0.00    +0.000 C 
ATOM     27  C   UNL     1     112.863 124.317 136.937  0.00  0.00    +0.000 C 
ATOM     28  C   UNL     1     113.118 125.697 136.661  0.00  0.00    +0.000 C 
ATOM     29  C   UNL     1     112.052 124.461 136.902  0.00  0.00    +0.000 C 
ATOM     30  C   UNL     1     111.773 125.222 136.747  0.00  0.00    +0.000 C 
BRANCH  28  31
ATOM     31  C   UNL     1     113.651 126.314 136.541  0.00  0.00    +0.000 C 
BRANCH  31  32
ATOM     32  O   UNL     1     113.384 127.040 136.253  0.00  0.00    +0.000 OA
BRANCH  32  34
ATOM     33  O   UNL     1     114.668 127.474 135.798  0.00  0.00    +0.000 OA
ATOM     34  C   UNL     1     113.921 127.648 136.105  0.00  0.00    +0.000 C 
BRANCH  34  35
ATOM     35  C   UNL     1     113.713 128.431 136.263  0.00  0.00    +0.000 C 
BRANCH  35  36
ATOM     36  C   UNL     1     114.109 129.048 135.886  0.00  0.00    +0.000 C 
BRANCH  36  39
ATOM     37  O   UNL     1     114.363 130.251 136.614  0.00  0.00    +0.000 OA
ATOM     38  O   UNL     1     113.279 130.192 135.686  0.00  0.00    +0.000 OA
ATOM     39  C   UNL     1     113.917 129.830 136.062  0.00  0.00    +0.000 C 
ENDBRANCH  36  39
ENDBRANCH  35  36
ENDBRANCH  34  35
ENDBRANCH  32  34
ENDBRANCH  31  32
ENDBRANCH  28  31
ENDBRANCH  21  30
ENDBRANCH   4  21
BRANCH   5  40
ATOM     40  O   UNL     1     109.187 129.511 137.848  0.00  0.00    +0.000 OA
BRANCH  40  49
ATOM     41  O   UNL     1     110.448 129.957 138.351  0.00  0.00    +0.000 OA
ATOM     42  O   UNL     1     109.291 131.216 140.140  0.00  0.00    +0.000 OA
ATOM     43  O   UNL     1     110.938 131.241 140.046  0.00  0.00    +0.000 OA
ATOM     44  O   UNL     1     108.416 130.351 139.040  0.00  0.00    +0.000 OA
ATOM     45  C   UNL     1     109.677 130.796 139.543  0.00  0.00    +0.000 C 
ATOM     46  C   UNL     1     110.500 130.809 139.497  0.00  0.00    +0.000 C 
ATOM     47  C   UNL     1     109.239 130.364 138.994  0.00  0.00    +0.000 C 
ATOM     48  C   UNL     1     110.886 130.389 138.900  0.00  0.00    +0.000 C 
ATOM     49  C   UNL     1     109.625 129.944 138.398  0.00  0.00    +0.000 C 
ATOM     50  C   UNL     1     111.710 130.402 138.853  0.00  0.00    +0.000 C 
ENDBRANCH  40  49
ENDBRANCH   5  40
TORSDOF 12
ENDMDL
MODEL 10
REMARK VINA RESULT:      -8.7      2.293      5.204
REMARK  Name = 44257993
REMARK  12 active torsions:
REMARK  status: ('A' for Active; 'I' for Inactive)
REMARK    1  A    between atoms: O_3  and  C_25
REMARK    2  A    between atoms: O_3  and  C_31
REMARK    3  A    between atoms: O_7  and  C_28
REMARK    4  A    between atoms: O_7  and  C_32
REMARK    5  A    between atoms: O_11  and  C_29
REMARK    6  A    between atoms: O_11  and  C_40
REMARK    7  A    between atoms: O_16  and  C_48
REMARK    8  A    between atoms: C_21  and  C_29
REMARK    9  A    between atoms: C_37  and  C_41
REMARK   10  A    between atoms: C_40  and  C_42
REMARK   11  A    between atoms: C_42  and  C_45
REMARK   12  A    between atoms: C_45  and  C_49
REMARK                            x       y       z     vdW  Elec       q    Type
REMARK                         _______ _______ _______ _____ _____    ______ ____
ROOT
ATOM      1  O   UNL     1     113.330 127.737 138.695  0.00  0.00    +0.000 OA
ATOM      2  O   UNL     1     112.400 129.415 137.131  0.00  0.00    +0.000 OA
ATOM      3  O   UNL     1     112.697 130.482 138.055  0.00  0.00    +0.000 OA
ATOM      4  C   UNL     1     113.651 129.602 139.881  0.00  0.00    +0.000 A 
ATOM      5  C   UNL     1     112.713 128.056 137.447  0.00  0.00    +0.000 A 
ATOM      6  C   UNL     1     113.017 129.095 138.379  0.00  0.00    +0.000 A 
ATOM      7  C   UNL     1     113.328 128.535 138.901  0.00  0.00    +0.000 A 
ATOM      8  C   UNL     1     113.651 128.772 139.661  0.00  0.00    +0.000 A 
ATOM      9  C   UNL     1     112.710 128.855 137.652  0.00  0.00    +0.000 A 
ATOM     10  C   UNL     1     113.022 127.497 137.967  0.00  0.00    +0.000 A 
ATOM     11  C   UNL     1     113.328 130.185 139.339  0.00  0.00    +0.000 A 
ATOM     12  C   UNL     1     113.009 129.930 138.583  0.00  0.00    +0.000 A 
ENDROOT
BRANCH  10  13
ATOM     13  C   UNL     1     113.025 126.699 137.761  0.00  0.00    +0.000 A 
ATOM     14  C   UNL     1     112.485 126.180 138.108  0.00  0.00    +0.000 A 
ATOM     15  C   UNL     1     113.568 126.417 137.207  0.00  0.00    +0.000 A 
ATOM     16  C   UNL     1     112.488 125.382 137.901  0.00  0.00    +0.000 A 
ATOM     17  C   UNL     1     113.571 125.619 137.000  0.00  0.00    +0.000 A 
ATOM     18  C   UNL     1     113.031 125.101 137.347  0.00  0.00    +0.000 A 
BRANCH  18  19
ATOM     19  O   UNL     1     113.033 124.302 137.141  0.00  0.00    +0.000 OA
ATOM     20  C   UNL     1     112.418 123.991 136.687  0.00  0.00    +0.000 C 
ENDBRANCH  18  19
ENDBRANCH  10  13
BRANCH   4  21
ATOM     21  O   UNL     1     113.959 129.838 140.610  0.00  0.00    +0.000 OA
BRANCH  21  30
ATOM     22  O   UNL     1     112.873 129.515 141.480  0.00  0.00    +0.000 OA
ATOM     23  O   UNL     1     111.924 130.669 143.071  0.00  0.00    +0.000 OA
ATOM     24  O   UNL     1     113.079 131.731 142.561  0.00  0.00    +0.000 OA
ATOM     25  O   UNL     1     114.097 131.316 141.331  0.00  0.00    +0.000 OA
ATOM     26  C   UNL     1     112.432 130.461 142.456  0.00  0.00    +0.000 C 
ATOM     27  C   UNL     1     113.010 130.993 142.201  0.00  0.00    +0.000 C 
ATOM     28  C   UNL     1     112.363 129.722 142.095  0.00  0.00    +0.000 C 
ATOM     29  C   UNL     1     113.519 130.784 141.586  0.00  0.00    +0.000 C 
ATOM     30  C   UNL     1     113.450 130.046 141.225  0.00  0.00    +0.000 C 
BRANCH  28  31
ATOM     31  C   UNL     1     111.786 129.192 142.350  0.00  0.00    +0.000 C 
BRANCH  31  32
ATOM     32  O   UNL     1     111.383 128.724 141.802  0.00  0.00    +0.000 OA
BRANCH  32  34
ATOM     33  O   UNL     1     110.419 128.198 142.715  0.00  0.00    +0.000 OA
ATOM     34  C   UNL     1     110.911 128.100 142.060  0.00  0.00    +0.000 C 
BRANCH  34  35
ATOM     35  C   UNL     1     110.930 127.376 141.663  0.00  0.00    +0.000 C 
BRANCH  35  36
ATOM     36  C   UNL     1     110.232 127.044 141.376  0.00  0.00    +0.000 C 
BRANCH  36  39
ATOM     37  O   UNL     1     109.750 126.196 140.332  0.00  0.00    +0.000 OA
ATOM     38  O   UNL     1     110.777 125.734 141.212  0.00  0.00    +0.000 OA
ATOM     39  C   UNL     1     110.253 126.325 140.973  0.00  0.00    +0.000 C 
ENDBRANCH  36  39
ENDBRANCH  35  36
ENDBRANCH  34  35
ENDBRANCH  32  34
ENDBRANCH  31  32
ENDBRANCH  28  31
ENDBRANCH  21  30
ENDBRANCH   4  21
BRANCH   5  40
ATOM     40  O   UNL     1     112.405 127.817 136.719  0.00  0.00    +0.000 OA
BRANCH  40  49
ATOM     41  O   UNL     1     111.043 127.981 137.118  0.00  0.00    +0.000 OA
ATOM     42  O   UNL     1     110.417 128.484 134.777  0.00  0.00    +0.000 OA
ATOM     43  O   UNL     1     109.263 128.480 135.957  0.00  0.00    +0.000 OA
ATOM     44  O   UNL     1     111.988 128.152 135.159  0.00  0.00    +0.000 OA
ATOM     45  C   UNL     1     110.626 128.316 135.557  0.00  0.00    +0.000 C 
ATOM     46  C   UNL     1     110.049 128.314 136.147  0.00  0.00    +0.000 C 
ATOM     47  C   UNL     1     111.411 128.151 135.748  0.00  0.00    +0.000 C 
ATOM     48  C   UNL     1     110.258 128.147 136.928  0.00  0.00    +0.000 C 
ATOM     49  C   UNL     1     111.620 127.983 136.528  0.00  0.00    +0.000 C 
ATOM     50  C   UNL     1     109.681 128.145 137.518  0.00  0.00    +0.000 C 
ENDBRANCH  40  49
ENDBRANCH   5  40
TORSDOF 12
ENDMDL
