MODEL 1
REMARK VINA RESULT:     -10.1      0.000      0.000
REMARK  Name = 44257651
REMARK  2 active torsions:
REMARK  status: ('A' for Active; 'I' for Inactive)
REMARK    1  A    between atoms: C_11  and  C_15
REMARK    2  A    between atoms: C_22  and  C_24
REMARK                            x       y       z     vdW  Elec       q    Type
REMARK                         _______ _______ _______ _____ _____    ______ ____
ROOT
ATOM      1  O   UNL     1     105.980 123.905 140.881  0.00  0.00    +0.000 OA
ATOM      2  O   UNL     1     104.202 124.540 138.687  0.00  0.00    +0.000 OA
ATOM      3  O   UNL     1     104.980 126.566 140.583  0.00  0.00    +0.000 OA
ATOM      4  O   UNL     1     105.614 122.862 139.952  0.00  0.00    +0.000 OA
ATOM      5  C   UNL     1     105.480 125.235 140.731  0.00  0.00    +0.000 A 
ATOM      6  C   UNL     1     105.521 124.454 140.470  0.00  0.00    +0.000 A 
ATOM      7  C   UNL     1     105.020 125.784 140.321  0.00  0.00    +0.000 A 
ATOM      8  C   UNL     1     105.102 124.221 139.798  0.00  0.00    +0.000 A 
ATOM      9  C   UNL     1     104.643 124.770 139.388  0.00  0.00    +0.000 A 
ATOM     10  C   UNL     1     104.602 125.551 139.650  0.00  0.00    +0.000 A 
ATOM     11  C   UNL     1     105.153 123.405 139.536  0.00  0.00    +0.000 A 
ATOM     12  C   UNL     1     104.240 123.727 138.409  0.00  0.00    +0.000 A 
ATOM     13  C   UNL     1     104.719 123.156 138.837  0.00  0.00    +0.000 A 
ENDROOT
BRANCH   5  19
ATOM     14  O   UNL     1     105.551 125.404 142.148  0.00  0.00    +0.000 OA
ATOM     15  O   UNL     1     107.013 125.828 140.584  0.00  0.00    +0.000 OA
ATOM     16  O   UNL     1     107.850 126.293 141.928  0.00  0.00    +0.000 OA
ATOM     17  O   UNL     1     107.154 126.165 143.419  0.00  0.00    +0.000 OA
ATOM     18  C   UNL     1     106.665 125.764 141.330  0.00  0.00    +0.000 C 
ATOM     19  C   UNL     1     105.899 125.468 141.403  0.00  0.00    +0.000 C 
ATOM     20  C   UNL     1     107.083 125.997 142.001  0.00  0.00    +0.000 C 
ATOM     21  C   UNL     1     106.736 125.933 142.746  0.00  0.00    +0.000 C 
ATOM     22  C   UNL     1     105.969 125.636 142.820  0.00  0.00    +0.000 C 
ENDBRANCH   5  19
BRANCH  12  24
ATOM     23  O   UNL     1     102.563 122.807 135.721  0.00  0.00    +0.000 OA
ATOM     24  C   UNL     1     103.821 123.497 137.737  0.00  0.00    +0.000 A 
ATOM     25  C   UNL     1     102.997 123.480 137.751  0.00  0.00    +0.000 A 
ATOM     26  C   UNL     1     104.226 123.285 137.051  0.00  0.00    +0.000 A 
ATOM     27  C   UNL     1     102.577 123.250 137.079  0.00  0.00    +0.000 A 
ATOM     28  C   UNL     1     103.807 123.055 136.379  0.00  0.00    +0.000 A 
ATOM     29  C   UNL     1     102.982 123.037 136.392  0.00  0.00    +0.000 A 
ENDBRANCH  12  24
TORSDOF 2
ENDMDL
MODEL 2
REMARK VINA RESULT:      -9.7      6.728      7.792
REMARK  Name = 44257651
REMARK  2 active torsions:
REMARK  status: ('A' for Active; 'I' for Inactive)
REMARK    1  A    between atoms: C_11  and  C_15
REMARK    2  A    between atoms: C_22  and  C_24
REMARK                            x       y       z     vdW  Elec       q    Type
REMARK                         _______ _______ _______ _____ _____    ______ ____
ROOT
ATOM      1  O   UNL     1     108.131 128.657 135.809  0.00  0.00    +0.000 OA
ATOM      2  O   UNL     1     110.638 127.325 136.371  0.00  0.00    +0.000 OA
ATOM      3  O   UNL     1     110.509 130.197 136.188  0.00  0.00    +0.000 OA
ATOM      4  O   UNL     1     108.154 127.217 135.893  0.00  0.00    +0.000 OA
ATOM      5  C   UNL     1     109.320 129.427 135.999  0.00  0.00    +0.000 A 
ATOM      6  C   UNL     1     108.940 128.695 135.965  0.00  0.00    +0.000 A 
ATOM      7  C   UNL     1     110.130 129.465 136.154  0.00  0.00    +0.000 A 
ATOM      8  C   UNL     1     109.370 128.001 136.087  0.00  0.00    +0.000 A 
ATOM      9  C   UNL     1     110.180 128.039 136.242  0.00  0.00    +0.000 A 
ATOM     10  C   UNL     1     110.559 128.772 136.276  0.00  0.00    +0.000 A 
ATOM     11  C   UNL     1     108.964 127.246 136.049  0.00  0.00    +0.000 A 
ATOM     12  C   UNL     1     110.248 126.559 136.338  0.00  0.00    +0.000 A 
ATOM     13  C   UNL     1     109.406 126.519 136.176  0.00  0.00    +0.000 A 
ENDROOT
BRANCH   5  19
ATOM     14  O   UNL     1     108.805 130.424 135.114  0.00  0.00    +0.000 OA
ATOM     15  O   UNL     1     108.631 130.206 137.279  0.00  0.00    +0.000 OA
ATOM     16  O   UNL     1     107.771 131.593 137.035  0.00  0.00    +0.000 OA
ATOM     17  O   UNL     1     107.601 132.201 135.510  0.00  0.00    +0.000 OA
ATOM     18  C   UNL     1     108.545 130.511 136.517  0.00  0.00    +0.000 C 
ATOM     19  C   UNL     1     108.890 130.121 135.876  0.00  0.00    +0.000 C 
ATOM     20  C   UNL     1     108.116 131.204 136.394  0.00  0.00    +0.000 C 
ATOM     21  C   UNL     1     108.031 131.507 135.633  0.00  0.00    +0.000 C 
ATOM     22  C   UNL     1     108.376 131.118 134.993  0.00  0.00    +0.000 C 
ENDBRANCH   5  19
BRANCH  12  24
ATOM     23  O   UNL     1     111.977 123.791 136.828  0.00  0.00    +0.000 OA
ATOM     24  C   UNL     1     110.680 125.867 136.460  0.00  0.00    +0.000 A 
ATOM     25  C   UNL     1     110.927 125.415 135.816  0.00  0.00    +0.000 A 
ATOM     26  C   UNL     1     110.866 125.627 137.227  0.00  0.00    +0.000 A 
ATOM     27  C   UNL     1     111.359 124.723 135.938  0.00  0.00    +0.000 A 
ATOM     28  C   UNL     1     111.298 124.936 137.350  0.00  0.00    +0.000 A 
ATOM     29  C   UNL     1     111.545 124.483 136.705  0.00  0.00    +0.000 A 
ENDBRANCH  12  24
TORSDOF 2
ENDMDL
MODEL 3
REMARK VINA RESULT:      -9.6      4.698      7.644
REMARK  Name = 44257651
REMARK  2 active torsions:
REMARK  status: ('A' for Active; 'I' for Inactive)
REMARK    1  A    between atoms: C_11  and  C_15
REMARK    2  A    between atoms: C_22  and  C_24
REMARK                            x       y       z     vdW  Elec       q    Type
REMARK                         _______ _______ _______ _____ _____    ______ ____
ROOT
ATOM      1  O   UNL     1     106.488 127.893 144.766  0.00  0.00    +0.000 OA
ATOM      2  O   UNL     1     106.601 125.370 146.180  0.00  0.00    +0.000 OA
ATOM      3  O   UNL     1     105.687 125.486 143.450  0.00  0.00    +0.000 OA
ATOM      4  O   UNL     1     106.952 127.877 146.132  0.00  0.00    +0.000 OA
ATOM      5  C   UNL     1     106.088 126.689 144.108  0.00  0.00    +0.000 A 
ATOM      6  C   UNL     1     106.373 127.076 144.778  0.00  0.00    +0.000 A 
ATOM      7  C   UNL     1     105.972 125.872 144.121  0.00  0.00    +0.000 A 
ATOM      8  C   UNL     1     106.543 126.645 145.462  0.00  0.00    +0.000 A 
ATOM      9  C   UNL     1     106.428 125.829 145.475  0.00  0.00    +0.000 A 
ATOM     10  C   UNL     1     106.143 125.442 144.804  0.00  0.00    +0.000 A 
ATOM     11  C   UNL     1     106.840 127.060 146.153  0.00  0.00    +0.000 A 
ATOM     12  C   UNL     1     106.899 125.767 146.882  0.00  0.00    +0.000 A 
ATOM     13  C   UNL     1     107.019 126.617 146.868  0.00  0.00    +0.000 A 
ENDROOT
BRANCH   5  19
ATOM     14  O   UNL     1     105.174 127.465 143.330  0.00  0.00    +0.000 OA
ATOM     15  O   UNL     1     107.233 126.857 142.932  0.00  0.00    +0.000 OA
ATOM     16  O   UNL     1     106.892 127.717 141.566  0.00  0.00    +0.000 OA
ATOM     17  O   UNL     1     105.406 128.410 141.376  0.00  0.00    +0.000 OA
ATOM     18  C   UNL     1     106.490 127.203 142.836  0.00  0.00    +0.000 C 
ATOM     19  C   UNL     1     105.917 127.119 143.425  0.00  0.00    +0.000 C 
ATOM     20  C   UNL     1     106.319 127.633 142.154  0.00  0.00    +0.000 C 
ATOM     21  C   UNL     1     105.577 127.979 142.059  0.00  0.00    +0.000 C 
ATOM     22  C   UNL     1     105.005 127.895 142.647  0.00  0.00    +0.000 C 
ENDBRANCH   5  19
BRANCH  12  24
ATOM     23  O   UNL     1     107.578 124.037 149.608  0.00  0.00    +0.000 OA
ATOM     24  C   UNL     1     107.069 125.334 147.563  0.00  0.00    +0.000 A 
ATOM     25  C   UNL     1     106.457 125.085 148.057  0.00  0.00    +0.000 A 
ATOM     26  C   UNL     1     107.851 125.151 147.752  0.00  0.00    +0.000 A 
ATOM     27  C   UNL     1     106.626 124.652 148.739  0.00  0.00    +0.000 A 
ATOM     28  C   UNL     1     108.020 124.719 148.433  0.00  0.00    +0.000 A 
ATOM     29  C   UNL     1     107.408 124.469 148.927  0.00  0.00    +0.000 A 
ENDBRANCH  12  24
TORSDOF 2
ENDMDL
MODEL 4
REMARK VINA RESULT:      -9.5      7.502      9.055
REMARK  Name = 44257651
REMARK  2 active torsions:
REMARK  status: ('A' for Active; 'I' for Inactive)
REMARK    1  A    between atoms: C_11  and  C_15
REMARK    2  A    between atoms: C_22  and  C_24
REMARK                            x       y       z     vdW  Elec       q    Type
REMARK                         _______ _______ _______ _____ _____    ______ ____
ROOT
ATOM      1  O   UNL     1     111.011 129.277 136.813  0.00  0.00    +0.000 OA
ATOM      2  O   UNL     1     112.185 126.723 136.124  0.00  0.00    +0.000 OA
ATOM      3  O   UNL     1     109.969 127.778 134.615  0.00  0.00    +0.000 OA
ATOM      4  O   UNL     1     112.120 128.784 137.594  0.00  0.00    +0.000 OA
ATOM      5  C   UNL     1     110.490 128.527 135.714  0.00  0.00    +0.000 A 
ATOM      6  C   UNL     1     111.030 128.607 136.333  0.00  0.00    +0.000 A 
ATOM      7  C   UNL     1     110.509 127.857 135.234  0.00  0.00    +0.000 A 
ATOM      8  C   UNL     1     111.589 128.016 136.471  0.00  0.00    +0.000 A 
ATOM      9  C   UNL     1     111.608 127.345 135.990  0.00  0.00    +0.000 A 
ATOM     10  C   UNL     1     111.068 127.266 135.372  0.00  0.00    +0.000 A 
ATOM     11  C   UNL     1     112.146 128.110 137.118  0.00  0.00    +0.000 A 
ATOM     12  C   UNL     1     112.750 126.800 136.767  0.00  0.00    +0.000 A 
ATOM     13  C   UNL     1     112.731 127.498 137.267  0.00  0.00    +0.000 A 
ENDROOT
BRANCH   5  19
ATOM     14  O   UNL     1     110.122 129.761 135.096  0.00  0.00    +0.000 OA
ATOM     15  O   UNL     1     108.993 128.423 136.399  0.00  0.00    +0.000 OA
ATOM     16  O   UNL     1     107.875 129.605 136.123  0.00  0.00    +0.000 OA
ATOM     17  O   UNL     1     108.255 130.892 135.162  0.00  0.00    +0.000 OA
ATOM     18  C   UNL     1     109.182 129.067 135.918  0.00  0.00    +0.000 C 
ATOM     19  C   UNL     1     109.931 129.119 135.576  0.00  0.00    +0.000 C 
ATOM     20  C   UNL     1     108.624 129.657 135.780  0.00  0.00    +0.000 C 
ATOM     21  C   UNL     1     108.814 130.300 135.300  0.00  0.00    +0.000 C 
ATOM     22  C   UNL     1     109.563 130.352 134.958  0.00  0.00    +0.000 C 
ENDBRANCH   5  19
BRANCH  12  24
ATOM     23  O   UNL     1     114.981 124.430 137.311  0.00  0.00    +0.000 OA
ATOM     24  C   UNL     1     113.308 126.207 136.903  0.00  0.00    +0.000 A 
ATOM     25  C   UNL     1     114.020 126.207 136.486  0.00  0.00    +0.000 A 
ATOM     26  C   UNL     1     113.154 125.615 137.456  0.00  0.00    +0.000 A 
ATOM     27  C   UNL     1     114.578 125.614 136.622  0.00  0.00    +0.000 A 
ATOM     28  C   UNL     1     113.711 125.023 137.592  0.00  0.00    +0.000 A 
ATOM     29  C   UNL     1     114.424 125.022 137.175  0.00  0.00    +0.000 A 
ENDBRANCH  12  24
TORSDOF 2
ENDMDL
MODEL 5
REMARK VINA RESULT:      -9.5      4.165      6.139
REMARK  Name = 44257651
REMARK  2 active torsions:
REMARK  status: ('A' for Active; 'I' for Inactive)
REMARK    1  A    between atoms: C_11  and  C_15
REMARK    2  A    between atoms: C_22  and  C_24
REMARK                            x       y       z     vdW  Elec       q    Type
REMARK                         _______ _______ _______ _____ _____    ______ ____
ROOT
ATOM      1  O   UNL     1     104.533 127.689 141.037  0.00  0.00    +0.000 OA
ATOM      2  O   UNL     1     103.558 130.079 142.348  0.00  0.00    +0.000 OA
ATOM      3  O   UNL     1     105.554 128.423 143.604  0.00  0.00    +0.000 OA
ATOM      4  O   UNL     1     103.533 128.492 140.375  0.00  0.00    +0.000 OA
ATOM      5  C   UNL     1     105.043 128.057 142.321  0.00  0.00    +0.000 A 
ATOM      6  C   UNL     1     104.543 128.205 141.682  0.00  0.00    +0.000 A 
ATOM      7  C   UNL     1     105.053 128.572 142.965  0.00  0.00    +0.000 A 
ATOM      8  C   UNL     1     104.053 128.869 141.687  0.00  0.00    +0.000 A 
ATOM      9  C   UNL     1     104.063 129.384 142.331  0.00  0.00    +0.000 A 
ATOM     10  C   UNL     1     104.563 129.235 142.970  0.00  0.00    +0.000 A 
ATOM     11  C   UNL     1     103.537 129.012 141.015  0.00  0.00    +0.000 A 
ATOM     12  C   UNL     1     103.034 130.239 141.685  0.00  0.00    +0.000 A 
ATOM     13  C   UNL     1     103.024 129.702 141.015  0.00  0.00    +0.000 A 
ENDROOT
BRANCH   5  19
ATOM     14  O   UNL     1     105.258 126.676 142.617  0.00  0.00    +0.000 OA
ATOM     15  O   UNL     1     106.571 128.164 141.708  0.00  0.00    +0.000 OA
ATOM     16  O   UNL     1     107.551 126.836 141.698  0.00  0.00    +0.000 OA
ATOM     17  O   UNL     1     107.002 125.401 142.301  0.00  0.00    +0.000 OA
ATOM     18  C   UNL     1     106.297 127.446 142.010  0.00  0.00    +0.000 C 
ATOM     19  C   UNL     1     105.533 127.392 142.316  0.00  0.00    +0.000 C 
ATOM     20  C   UNL     1     106.787 126.783 142.005  0.00  0.00    +0.000 C 
ATOM     21  C   UNL     1     106.513 126.066 142.305  0.00  0.00    +0.000 C 
ATOM     22  C   UNL     1     105.748 126.012 142.612  0.00  0.00    +0.000 C 
ENDBRANCH   5  19
BRANCH  12  24
ATOM     23  O   UNL     1     101.080 132.897 141.715  0.00  0.00    +0.000 OA
ATOM     24  C   UNL     1     102.545 130.903 141.693  0.00  0.00    +0.000 A 
ATOM     25  C   UNL     1     101.752 130.830 141.903  0.00  0.00    +0.000 A 
ATOM     26  C   UNL     1     102.851 131.643 141.490  0.00  0.00    +0.000 A 
ATOM     27  C   UNL     1     101.263 131.494 141.911  0.00  0.00    +0.000 A 
ATOM     28  C   UNL     1     102.363 132.307 141.497  0.00  0.00    +0.000 A 
ATOM     29  C   UNL     1     101.568 132.233 141.708  0.00  0.00    +0.000 A 
ENDBRANCH  12  24
TORSDOF 2
ENDMDL
MODEL 6
REMARK VINA RESULT:      -9.5      5.043      6.692
REMARK  Name = 44257651
REMARK  2 active torsions:
REMARK  status: ('A' for Active; 'I' for Inactive)
REMARK    1  A    between atoms: C_11  and  C_15
REMARK    2  A    between atoms: C_22  and  C_24
REMARK                            x       y       z     vdW  Elec       q    Type
REMARK                         _______ _______ _______ _____ _____    ______ ____
ROOT
ATOM      1  O   UNL     1     106.520 124.720 145.928  0.00  0.00    +0.000 OA
ATOM      2  O   UNL     1     106.152 127.342 144.758  0.00  0.00    +0.000 OA
ATOM      3  O   UNL     1     106.624 127.047 147.585  0.00  0.00    +0.000 OA
ATOM      4  O   UNL     1     106.286 124.826 144.508  0.00  0.00    +0.000 OA
ATOM      5  C   UNL     1     106.572 125.884 146.756  0.00  0.00    +0.000 A 
ATOM      6  C   UNL     1     106.477 125.540 146.012  0.00  0.00    +0.000 A 
ATOM      7  C   UNL     1     106.529 126.703 146.840  0.00  0.00    +0.000 A 
ATOM      8  C   UNL     1     106.339 126.016 145.352  0.00  0.00    +0.000 A 
ATOM      9  C   UNL     1     106.295 126.835 145.437  0.00  0.00    +0.000 A 
ATOM     10  C   UNL     1     106.390 127.179 146.181  0.00  0.00    +0.000 A 
ATOM     11  C   UNL     1     106.241 125.646 144.583  0.00  0.00    +0.000 A 
ATOM     12  C   UNL     1     106.052 126.990 143.980  0.00  0.00    +0.000 A 
ATOM     13  C   UNL     1     106.097 126.136 143.892  0.00  0.00    +0.000 A 
ENDROOT
BRANCH   5  19
ATOM     14  O   UNL     1     106.076 125.072 147.822  0.00  0.00    +0.000 OA
ATOM     15  O   UNL     1     108.117 125.605 147.263  0.00  0.00    +0.000 OA
ATOM     16  O   UNL     1     108.393 124.653 148.582  0.00  0.00    +0.000 OA
ATOM     17  O   UNL     1     107.125 123.980 149.394  0.00  0.00    +0.000 OA
ATOM     18  C   UNL     1     107.483 125.268 147.669  0.00  0.00    +0.000 C 
ATOM     19  C   UNL     1     106.710 125.408 147.416  0.00  0.00    +0.000 C 
ATOM     20  C   UNL     1     107.621 124.792 148.328  0.00  0.00    +0.000 C 
ATOM     21  C   UNL     1     106.987 124.456 148.734  0.00  0.00    +0.000 C 
ATOM     22  C   UNL     1     106.214 124.596 148.481  0.00  0.00    +0.000 C 
ENDBRANCH   5  19
BRANCH  12  24
ATOM     23  O   UNL     1     105.500 128.902 141.348  0.00  0.00    +0.000 OA
ATOM     24  C   UNL     1     105.914 127.468 143.322  0.00  0.00    +0.000 A 
ATOM     25  C   UNL     1     105.151 127.735 143.159  0.00  0.00    +0.000 A 
ATOM     26  C   UNL     1     106.539 127.678 142.826  0.00  0.00    +0.000 A 
ATOM     27  C   UNL     1     105.013 128.213 142.501  0.00  0.00    +0.000 A 
ATOM     28  C   UNL     1     106.401 128.156 142.169  0.00  0.00    +0.000 A 
ATOM     29  C   UNL     1     105.638 128.424 142.005  0.00  0.00    +0.000 A 
ENDBRANCH  12  24
TORSDOF 2
ENDMDL
MODEL 7
REMARK VINA RESULT:      -9.3      7.520      8.893
REMARK  Name = 44257651
REMARK  2 active torsions:
REMARK  status: ('A' for Active; 'I' for Inactive)
REMARK    1  A    between atoms: C_11  and  C_15
REMARK    2  A    between atoms: C_22  and  C_24
REMARK                            x       y       z     vdW  Elec       q    Type
REMARK                         _______ _______ _______ _____ _____    ______ ____
ROOT
ATOM      1  O   UNL     1     113.090 129.095 138.910  0.00  0.00    +0.000 OA
ATOM      2  O   UNL     1     113.156 126.202 138.889  0.00  0.00    +0.000 OA
ATOM      3  O   UNL     1     114.241 127.681 141.110  0.00  0.00    +0.000 OA
ATOM      4  O   UNL     1     112.536 128.391 137.778  0.00  0.00    +0.000 OA
ATOM      5  C   UNL     1     113.666 128.387 140.010  0.00  0.00    +0.000 A 
ATOM      6  C   UNL     1     113.293 128.383 139.274  0.00  0.00    +0.000 A 
ATOM      7  C   UNL     1     113.869 127.676 140.374  0.00  0.00    +0.000 A 
ATOM      8  C   UNL     1     113.124 127.666 138.901  0.00  0.00    +0.000 A 
ATOM      9  C   UNL     1     113.327 126.954 139.266  0.00  0.00    +0.000 A 
ATOM     10  C   UNL     1     113.700 126.960 140.002  0.00  0.00    +0.000 A 
ATOM     11  C   UNL     1     112.736 127.674 138.135  0.00  0.00    +0.000 A 
ATOM     12  C   UNL     1     112.768 126.190 138.121  0.00  0.00    +0.000 A 
ATOM     13  C   UNL     1     112.557 126.931 137.742  0.00  0.00    +0.000 A 
ENDROOT
BRANCH   5  19
ATOM     14  O   UNL     1     114.539 129.501 140.212  0.00  0.00    +0.000 OA
ATOM     15  O   UNL     1     112.597 129.028 141.092  0.00  0.00    +0.000 OA
ATOM     16  O   UNL     1     112.936 130.462 141.835  0.00  0.00    +0.000 OA
ATOM     17  O   UNL     1     114.343 131.254 141.497  0.00  0.00    +0.000 OA
ATOM     18  C   UNL     1     113.301 129.425 140.923  0.00  0.00    +0.000 C 
ATOM     19  C   UNL     1     113.835 129.105 140.382  0.00  0.00    +0.000 C 
ATOM     20  C   UNL     1     113.470 130.141 141.294  0.00  0.00    +0.000 C 
ATOM     21  C   UNL     1     114.173 130.537 141.125  0.00  0.00    +0.000 C 
ATOM     22  C   UNL     1     114.707 130.217 140.584  0.00  0.00    +0.000 C 
ENDBRANCH   5  19
BRANCH  12  24
ATOM     23  O   UNL     1     112.095 123.318 136.643  0.00  0.00    +0.000 OA
ATOM     24  C   UNL     1     112.600 125.472 137.752  0.00  0.00    +0.000 A 
ATOM     25  C   UNL     1     113.185 125.083 137.320  0.00  0.00    +0.000 A 
ATOM     26  C   UNL     1     111.846 125.142 137.814  0.00  0.00    +0.000 A 
ATOM     27  C   UNL     1     113.017 124.365 136.950  0.00  0.00    +0.000 A 
ATOM     28  C   UNL     1     111.678 124.425 137.444  0.00  0.00    +0.000 A 
ATOM     29  C   UNL     1     112.263 124.035 137.012  0.00  0.00    +0.000 A 
ENDBRANCH  12  24
TORSDOF 2
ENDMDL
MODEL 8
REMARK VINA RESULT:      -9.3      8.662     10.295
REMARK  Name = 44257651
REMARK  2 active torsions:
REMARK  status: ('A' for Active; 'I' for Inactive)
REMARK    1  A    between atoms: C_11  and  C_15
REMARK    2  A    between atoms: C_22  and  C_24
REMARK                            x       y       z     vdW  Elec       q    Type
REMARK                         _______ _______ _______ _____ _____    ______ ____
ROOT
ATOM      1  O   UNL     1     111.849 126.628 136.009  0.00  0.00    +0.000 OA
ATOM      2  O   UNL     1     114.275 128.205 136.084  0.00  0.00    +0.000 OA
ATOM      3  O   UNL     1     114.206 125.558 137.219  0.00  0.00    +0.000 OA
ATOM      4  O   UNL     1     111.842 127.949 135.429  0.00  0.00    +0.000 OA
ATOM      5  C   UNL     1     113.028 126.093 136.614  0.00  0.00    +0.000 A 
ATOM      6  C   UNL     1     112.641 126.708 136.223  0.00  0.00    +0.000 A 
ATOM      7  C   UNL     1     113.821 126.174 136.829  0.00  0.00    +0.000 A 
ATOM      8  C   UNL     1     113.048 127.405 136.047  0.00  0.00    +0.000 A 
ATOM      9  C   UNL     1     113.841 127.485 136.262  0.00  0.00    +0.000 A 
ATOM     10  C   UNL     1     114.226 126.869 136.652  0.00  0.00    +0.000 A 
ATOM     11  C   UNL     1     112.635 128.038 135.640  0.00  0.00    +0.000 A 
ATOM     12  C   UNL     1     113.878 128.850 135.677  0.00  0.00    +0.000 A 
ATOM     13  C   UNL     1     113.053 128.766 135.454  0.00  0.00    +0.000 A 
ENDROOT
BRANCH   5  19
ATOM     14  O   UNL     1     112.634 124.766 136.258  0.00  0.00    +0.000 OA
ATOM     15  O   UNL     1     112.190 125.962 138.030  0.00  0.00    +0.000 OA
ATOM     16  O   UNL     1     111.378 124.570 138.381  0.00  0.00    +0.000 OA
ATOM     17  O   UNL     1     111.403 123.309 137.318  0.00  0.00    +0.000 OA
ATOM     18  C   UNL     1     112.203 125.331 137.498  0.00  0.00    +0.000 C 
ATOM     19  C   UNL     1     112.621 125.396 136.790  0.00  0.00    +0.000 C 
ATOM     20  C   UNL     1     111.797 124.635 137.674  0.00  0.00    +0.000 C 
ATOM     21  C   UNL     1     111.809 124.005 137.142  0.00  0.00    +0.000 C 
ATOM     22  C   UNL     1     112.228 124.071 136.434  0.00  0.00    +0.000 C 
ENDBRANCH   5  19
BRANCH  12  24
ATOM     23  O   UNL     1     115.512 131.630 134.979  0.00  0.00    +0.000 OA
ATOM     24  C   UNL     1     114.286 129.545 135.502  0.00  0.00    +0.000 A 
ATOM     25  C   UNL     1     114.690 129.618 134.787  0.00  0.00    +0.000 A 
ATOM     26  C   UNL     1     114.292 130.168 136.044  0.00  0.00    +0.000 A 
ATOM     27  C   UNL     1     115.099 130.313 134.612  0.00  0.00    +0.000 A 
ATOM     28  C   UNL     1     114.700 130.862 135.869  0.00  0.00    +0.000 A 
ATOM     29  C   UNL     1     115.104 130.936 135.153  0.00  0.00    +0.000 A 
ENDBRANCH  12  24
TORSDOF 2
ENDMDL
MODEL 9
REMARK VINA RESULT:      -9.1      7.220     10.028
REMARK  Name = 44257651
REMARK  2 active torsions:
REMARK  status: ('A' for Active; 'I' for Inactive)
REMARK    1  A    between atoms: C_11  and  C_15
REMARK    2  A    between atoms: C_22  and  C_24
REMARK                            x       y       z     vdW  Elec       q    Type
REMARK                         _______ _______ _______ _____ _____    ______ ____
ROOT
ATOM      1  O   UNL     1     112.948 125.928 139.549  0.00  0.00    +0.000 OA
ATOM      2  O   UNL     1     113.479 128.765 139.335  0.00  0.00    +0.000 OA
ATOM      3  O   UNL     1     112.487 127.280 137.074  0.00  0.00    +0.000 OA
ATOM      4  O   UNL     1     113.444 126.636 140.704  0.00  0.00    +0.000 OA
ATOM      5  C   UNL     1     112.717 126.605 138.311  0.00  0.00    +0.000 A 
ATOM      6  C   UNL     1     112.958 126.620 139.100  0.00  0.00    +0.000 A 
ATOM      7  C   UNL     1     112.728 127.297 137.863  0.00  0.00    +0.000 A 
ATOM      8  C   UNL     1     113.209 127.329 139.441  0.00  0.00    +0.000 A 
ATOM      9  C   UNL     1     113.220 128.022 138.992  0.00  0.00    +0.000 A 
ATOM     10  C   UNL     1     112.979 128.005 138.203  0.00  0.00    +0.000 A 
ATOM     11  C   UNL     1     113.457 127.333 140.263  0.00  0.00    +0.000 A 
ATOM     12  C   UNL     1     113.731 128.789 140.156  0.00  0.00    +0.000 A 
ATOM     13  C   UNL     1     113.720 128.068 140.623  0.00  0.00    +0.000 A 
ENDROOT
BRANCH   5  19
ATOM     14  O   UNL     1     111.676 125.668 138.030  0.00  0.00    +0.000 OA
ATOM     15  O   UNL     1     113.796 125.645 137.513  0.00  0.00    +0.000 OA
ATOM     16  O   UNL     1     113.294 124.228 136.833  0.00  0.00    +0.000 OA
ATOM     17  O   UNL     1     111.712 123.771 136.951  0.00  0.00    +0.000 OA
ATOM     18  C   UNL     1     113.006 125.416 137.572  0.00  0.00    +0.000 C 
ATOM     19  C   UNL     1     112.466 125.896 137.971  0.00  0.00    +0.000 C 
ATOM     20  C   UNL     1     112.754 124.708 137.232  0.00  0.00    +0.000 C 
ATOM     21  C   UNL     1     111.964 124.480 137.291  0.00  0.00    +0.000 C 
ATOM     22  C   UNL     1     111.425 124.960 137.690  0.00  0.00    +0.000 C 
ENDBRANCH   5  19
BRANCH  12  24
ATOM     23  O   UNL     1     114.732 131.627 141.508  0.00  0.00    +0.000 OA
ATOM     24  C   UNL     1     113.982 129.498 140.494  0.00  0.00    +0.000 A 
ATOM     25  C   UNL     1     114.712 129.820 140.285  0.00  0.00    +0.000 A 
ATOM     26  C   UNL     1     113.502 129.887 141.042  0.00  0.00    +0.000 A 
ATOM     27  C   UNL     1     114.962 130.530 140.623  0.00  0.00    +0.000 A 
ATOM     28  C   UNL     1     113.752 130.596 141.379  0.00  0.00    +0.000 A 
ATOM     29  C   UNL     1     114.482 130.918 141.171  0.00  0.00    +0.000 A 
ENDBRANCH  12  24
TORSDOF 2
ENDMDL
