MODEL 1
REMARK VINA RESULT:      -8.8      0.000      0.000
REMARK  Name = 44259575
REMARK  5 active torsions:
REMARK  status: ('A' for Active; 'I' for Inactive)
REMARK    1  A    between atoms: S_1  and  O_3
REMARK    2  A    between atoms: O_3  and  C_14
REMARK    3  A    between atoms: O_4  and  C_19
REMARK    4  A    between atoms: O_7  and  C_25
REMARK    5  A    between atoms: C_13  and  C_16
REMARK                            x       y       z     vdW  Elec       q    Type
REMARK                         _______ _______ _______ _____ _____    ______ ____
ROOT
ATOM      1  O   UNL     1     105.100 124.359 147.446  0.00  0.00    +0.000 OA
ATOM      2  O   UNL     1     107.525 125.561 146.434  0.00  0.00    +0.000 OA
ATOM      3  O   UNL     1     106.410 125.287 145.562  0.00  0.00    +0.000 OA
ATOM      4  C   UNL     1     106.300 124.953 146.946  0.00  0.00    +0.000 A 
ATOM      5  C   UNL     1     105.864 124.644 147.574  0.00  0.00    +0.000 A 
ATOM      6  C   UNL     1     104.773 124.384 146.688  0.00  0.00    +0.000 A 
ATOM      7  C   UNL     1     105.210 124.693 146.060  0.00  0.00    +0.000 A 
ATOM      8  C   UNL     1     105.973 124.978 146.190  0.00  0.00    +0.000 A 
ATOM      9  C   UNL     1     107.097 125.253 147.068  0.00  0.00    +0.000 A 
ATOM     10  C   UNL     1     106.193 124.613 148.368  0.00  0.00    +0.000 A 
ATOM     11  C   UNL     1     106.988 124.908 148.508  0.00  0.00    +0.000 A 
ATOM     12  C   UNL     1     107.442 125.230 147.854  0.00  0.00    +0.000 A 
ENDROOT
BRANCH   6  13
ATOM     13  C   UNL     1     104.010 124.099 146.560  0.00  0.00    +0.000 A 
ATOM     14  C   UNL     1     103.360 124.598 146.667  0.00  0.00    +0.000 A 
ATOM     15  C   UNL     1     103.895 123.316 146.326  0.00  0.00    +0.000 A 
ATOM     16  C   UNL     1     102.597 124.313 146.538  0.00  0.00    +0.000 A 
ATOM     17  C   UNL     1     103.131 123.032 146.197  0.00  0.00    +0.000 A 
ATOM     18  C   UNL     1     102.482 123.530 146.304  0.00  0.00    +0.000 A 
BRANCH  18  19
ATOM     19  O   UNL     1     101.718 123.246 146.176  0.00  0.00    +0.000 OA
ATOM     20  C   UNL     1     101.313 123.449 145.486  0.00  0.00    +0.000 C 
ENDBRANCH  18  19
ENDBRANCH   6  13
BRANCH  11  21
ATOM     21  O   UNL     1     107.312 124.882 149.267  0.00  0.00    +0.000 OA
ATOM     22  C   UNL     1     107.503 124.155 149.608  0.00  0.00    +0.000 C 
ENDBRANCH  11  21
BRANCH   7  23
ATOM     23  O   UNL     1     104.883 124.718 145.304  0.00  0.00    +0.000 OA
BRANCH  23  24
ATOM     24  S   UNL     1     105.374 124.780 144.644  0.00  0.00    +0.000 S 
ATOM     25  O   UNL     1     105.865 124.842 143.985  0.00  0.00    +0.000 OA
ATOM     26  O   UNL     1     105.559 123.978 144.706  0.00  0.00    +0.000 OA
ATOM     27  O   UNL     1     105.189 125.581 144.582  0.00  0.00    +0.000 OA
ENDBRANCH  23  24
ENDBRANCH   7  23
TORSDOF 5
ENDMDL
MODEL 2
REMARK VINA RESULT:      -8.2      7.174      8.164
REMARK  Name = 44259575
REMARK  5 active torsions:
REMARK  status: ('A' for Active; 'I' for Inactive)
REMARK    1  A    between atoms: S_1  and  O_3
REMARK    2  A    between atoms: O_3  and  C_14
REMARK    3  A    between atoms: O_4  and  C_19
REMARK    4  A    between atoms: O_7  and  C_25
REMARK    5  A    between atoms: C_13  and  C_16
REMARK                            x       y       z     vdW  Elec       q    Type
REMARK                         _______ _______ _______ _____ _____    ______ ____
ROOT
ATOM      1  O   UNL     1     103.362 130.265 142.331  0.00  0.00    +0.000 OA
ATOM      2  O   UNL     1     104.266 127.886 140.963  0.00  0.00    +0.000 OA
ATOM      3  O   UNL     1     103.253 128.736 140.388  0.00  0.00    +0.000 OA
ATOM      4  C   UNL     1     103.810 129.088 141.655  0.00  0.00    +0.000 A 
ATOM      5  C   UNL     1     103.846 129.598 142.303  0.00  0.00    +0.000 A 
ATOM      6  C   UNL     1     102.841 130.422 141.710  0.00  0.00    +0.000 A 
ATOM      7  C   UNL     1     102.805 129.913 141.063  0.00  0.00    +0.000 A 
ATOM      8  C   UNL     1     103.289 129.245 141.036  0.00  0.00    +0.000 A 
ATOM      9  C   UNL     1     104.310 128.390 141.615  0.00  0.00    +0.000 A 
ATOM     10  C   UNL     1     104.385 129.444 142.955  0.00  0.00    +0.000 A 
ATOM     11  C   UNL     1     104.892 128.751 142.932  0.00  0.00    +0.000 A 
ATOM     12  C   UNL     1     104.854 128.221 142.258  0.00  0.00    +0.000 A 
ENDROOT
BRANCH   6  13
ATOM     13  C   UNL     1     102.357 131.090 141.738  0.00  0.00    +0.000 A 
ATOM     14  C   UNL     1     102.650 131.822 141.495  0.00  0.00    +0.000 A 
ATOM     15  C   UNL     1     101.580 131.025 142.010  0.00  0.00    +0.000 A 
ATOM     16  C   UNL     1     102.166 132.489 141.523  0.00  0.00    +0.000 A 
ATOM     17  C   UNL     1     101.097 131.694 142.037  0.00  0.00    +0.000 A 
ATOM     18  C   UNL     1     101.389 132.425 141.794  0.00  0.00    +0.000 A 
BRANCH  18  19
ATOM     19  O   UNL     1     100.906 133.093 141.822  0.00  0.00    +0.000 OA
ATOM     20  C   UNL     1     101.244 133.846 141.847  0.00  0.00    +0.000 C 
ENDBRANCH  18  19
ENDBRANCH   6  13
BRANCH  11  21
ATOM     21  O   UNL     1     105.412 128.597 143.554  0.00  0.00    +0.000 OA
ATOM     22  C   UNL     1     105.160 128.150 144.200  0.00  0.00    +0.000 C 
ENDBRANCH  11  21
BRANCH   7  23
ATOM     23  O   UNL     1     102.284 130.070 140.443  0.00  0.00    +0.000 OA
BRANCH  23  24
ATOM     24  S   UNL     1     102.392 129.705 139.711  0.00  0.00    +0.000 S 
ATOM     25  O   UNL     1     102.500 129.340 138.979  0.00  0.00    +0.000 OA
ATOM     26  O   UNL     1     102.964 130.267 139.515  0.00  0.00    +0.000 OA
ATOM     27  O   UNL     1     101.820 129.144 139.907  0.00  0.00    +0.000 OA
ENDBRANCH  23  24
ENDBRANCH   7  23
TORSDOF 5
ENDMDL
MODEL 3
REMARK VINA RESULT:      -8.1      1.321      4.118
REMARK  Name = 44259575
REMARK  5 active torsions:
REMARK  status: ('A' for Active; 'I' for Inactive)
REMARK    1  A    between atoms: S_1  and  O_3
REMARK    2  A    between atoms: O_3  and  C_14
REMARK    3  A    between atoms: O_4  and  C_19
REMARK    4  A    between atoms: O_7  and  C_25
REMARK    5  A    between atoms: C_13  and  C_16
REMARK                            x       y       z     vdW  Elec       q    Type
REMARK                         _______ _______ _______ _____ _____    ______ ____
ROOT
ATOM      1  O   UNL     1     103.679 124.740 147.885  0.00  0.00    +0.000 OA
ATOM      2  O   UNL     1     101.828 123.737 145.905  0.00  0.00    +0.000 OA
ATOM      3  O   UNL     1     103.242 123.809 145.633  0.00  0.00    +0.000 OA
ATOM      4  C   UNL     1     102.762 124.244 146.906  0.00  0.00    +0.000 A 
ATOM      5  C   UNL     1     102.908 124.555 147.657  0.00  0.00    +0.000 A 
ATOM      6  C   UNL     1     104.305 124.615 147.361  0.00  0.00    +0.000 A 
ATOM      7  C   UNL     1     104.159 124.304 146.611  0.00  0.00    +0.000 A 
ATOM      8  C   UNL     1     103.388 124.119 146.384  0.00  0.00    +0.000 A 
ATOM      9  C   UNL     1     101.963 124.047 146.658  0.00  0.00    +0.000 A 
ATOM     10  C   UNL     1     102.264 124.690 148.210  0.00  0.00    +0.000 A 
ATOM     11  C   UNL     1     101.459 124.499 147.979  0.00  0.00    +0.000 A 
ATOM     12  C   UNL     1     101.308 124.176 147.198  0.00  0.00    +0.000 A 
ENDROOT
BRANCH   6  13
ATOM     13  C   UNL     1     105.076 124.800 147.589  0.00  0.00    +0.000 A 
ATOM     14  C   UNL     1     105.376 125.556 147.448  0.00  0.00    +0.000 A 
ATOM     15  C   UNL     1     105.546 124.231 147.957  0.00  0.00    +0.000 A 
ATOM     16  C   UNL     1     106.147 125.741 147.676  0.00  0.00    +0.000 A 
ATOM     17  C   UNL     1     106.317 124.417 148.185  0.00  0.00    +0.000 A 
ATOM     18  C   UNL     1     106.617 125.172 148.044  0.00  0.00    +0.000 A 
BRANCH  18  19
ATOM     19  O   UNL     1     107.388 125.359 148.272  0.00  0.00    +0.000 OA
ATOM     20  C   UNL     1     108.005 125.295 147.728  0.00  0.00    +0.000 C 
ENDBRANCH  18  19
ENDBRANCH   6  13
BRANCH  11  21
ATOM     21  O   UNL     1     100.836 124.626 148.505  0.00  0.00    +0.000 OA
ATOM     22  C   UNL     1     100.710 124.100 149.129  0.00  0.00    +0.000 C 
ENDBRANCH  11  21
BRANCH   7  23
ATOM     23  O   UNL     1     104.785 124.179 146.088  0.00  0.00    +0.000 OA
BRANCH  23  24
ATOM     24  S   UNL     1     104.633 123.942 145.313  0.00  0.00    +0.000 S 
ATOM     25  O   UNL     1     104.481 123.704 144.538  0.00  0.00    +0.000 OA
ATOM     26  O   UNL     1     104.704 123.152 145.541  0.00  0.00    +0.000 OA
ATOM     27  O   UNL     1     104.561 124.731 145.085  0.00  0.00    +0.000 OA
ENDBRANCH  23  24
ENDBRANCH   7  23
TORSDOF 5
ENDMDL
MODEL 4
REMARK VINA RESULT:      -7.9      1.670      3.897
REMARK  Name = 44259575
REMARK  5 active torsions:
REMARK  status: ('A' for Active; 'I' for Inactive)
REMARK    1  A    between atoms: S_1  and  O_3
REMARK    2  A    between atoms: O_3  and  C_14
REMARK    3  A    between atoms: O_4  and  C_19
REMARK    4  A    between atoms: O_7  and  C_25
REMARK    5  A    between atoms: C_13  and  C_16
REMARK                            x       y       z     vdW  Elec       q    Type
REMARK                         _______ _______ _______ _____ _____    ______ ____
ROOT
ATOM      1  O   UNL     1     103.705 124.856 147.067  0.00  0.00    +0.000 OA
ATOM      2  O   UNL     1     104.137 122.810 145.073  0.00  0.00    +0.000 OA
ATOM      3  O   UNL     1     105.091 123.874 145.268  0.00  0.00    +0.000 OA
ATOM      4  C   UNL     1     103.918 123.844 146.081  0.00  0.00    +0.000 A 
ATOM      5  C   UNL     1     103.456 124.171 146.681  0.00  0.00    +0.000 A 
ATOM      6  C   UNL     1     104.417 125.214 146.853  0.00  0.00    +0.000 A 
ATOM      7  C   UNL     1     104.880 124.887 146.253  0.00  0.00    +0.000 A 
ATOM      8  C   UNL     1     104.629 124.201 145.867  0.00  0.00    +0.000 A 
ATOM      9  C   UNL     1     103.668 123.130 145.671  0.00  0.00    +0.000 A 
ATOM     10  C   UNL     1     102.712 123.808 146.912  0.00  0.00    +0.000 A 
ATOM     11  C   UNL     1     102.447 123.094 146.514  0.00  0.00    +0.000 A 
ATOM     12  C   UNL     1     102.928 122.753 145.890  0.00  0.00    +0.000 A 
ENDROOT
BRANCH   6  13
ATOM     13  C   UNL     1     104.666 125.899 147.239  0.00  0.00    +0.000 A 
ATOM     14  C   UNL     1     104.398 126.637 146.984  0.00  0.00    +0.000 A 
ATOM     15  C   UNL     1     105.184 125.847 147.880  0.00  0.00    +0.000 A 
ATOM     16  C   UNL     1     104.647 127.322 147.370  0.00  0.00    +0.000 A 
ATOM     17  C   UNL     1     105.432 126.533 148.265  0.00  0.00    +0.000 A 
ATOM     18  C   UNL     1     105.164 127.270 148.011  0.00  0.00    +0.000 A 
BRANCH  18  19
ATOM     19  O   UNL     1     105.412 127.956 148.396  0.00  0.00    +0.000 OA
ATOM     20  C   UNL     1     104.855 128.475 148.714  0.00  0.00    +0.000 C 
ENDBRANCH  18  19
ENDBRANCH   6  13
BRANCH  11  21
ATOM     21  O   UNL     1     101.734 122.739 146.731  0.00  0.00    +0.000 OA
ATOM     22  C   UNL     1     101.024 123.011 146.410  0.00  0.00    +0.000 C 
ENDBRANCH  11  21
BRANCH   7  23
ATOM     23  O   UNL     1     105.591 125.244 146.039  0.00  0.00    +0.000 OA
BRANCH  23  24
ATOM     24  S   UNL     1     105.921 125.095 145.298  0.00  0.00    +0.000 S 
ATOM     25  O   UNL     1     106.251 124.946 144.557  0.00  0.00    +0.000 OA
ATOM     26  O   UNL     1     105.354 125.582 144.948  0.00  0.00    +0.000 OA
ATOM     27  O   UNL     1     106.488 124.609 145.648  0.00  0.00    +0.000 OA
ENDBRANCH  23  24
ENDBRANCH   7  23
TORSDOF 5
ENDMDL
MODEL 5
REMARK VINA RESULT:      -7.7     12.171     12.839
REMARK  Name = 44259575
REMARK  5 active torsions:
REMARK  status: ('A' for Active; 'I' for Inactive)
REMARK    1  A    between atoms: S_1  and  O_3
REMARK    2  A    between atoms: O_3  and  C_14
REMARK    3  A    between atoms: O_4  and  C_19
REMARK    4  A    between atoms: O_7  and  C_25
REMARK    5  A    between atoms: C_13  and  C_16
REMARK                            x       y       z     vdW  Elec       q    Type
REMARK                         _______ _______ _______ _____ _____    ______ ____
ROOT
ATOM      1  O   UNL     1     112.609 126.540 136.600  0.00  0.00    +0.000 OA
ATOM      2  O   UNL     1     111.661 123.842 136.189  0.00  0.00    +0.000 OA
ATOM      3  O   UNL     1     110.862 124.979 135.803  0.00  0.00    +0.000 OA
ATOM      4  C   UNL     1     112.141 125.205 136.397  0.00  0.00    +0.000 A 
ATOM      5  C   UNL     1     112.724 125.726 136.662  0.00  0.00    +0.000 A 
ATOM      6  C   UNL     1     111.911 126.835 136.271  0.00  0.00    +0.000 A 
ATOM      7  C   UNL     1     111.329 126.314 136.006  0.00  0.00    +0.000 A 
ATOM      8  C   UNL     1     111.444 125.499 136.069  0.00  0.00    +0.000 A 
ATOM      9  C   UNL     1     112.249 124.355 136.457  0.00  0.00    +0.000 A 
ATOM     10  C   UNL     1     113.454 125.432 137.006  0.00  0.00    +0.000 A 
ATOM     11  C   UNL     1     113.580 124.585 137.074  0.00  0.00    +0.000 A 
ATOM     12  C   UNL     1     112.973 124.043 136.798  0.00  0.00    +0.000 A 
ENDROOT
BRANCH   6  13
ATOM     13  C   UNL     1     111.797 127.649 136.209  0.00  0.00    +0.000 A 
ATOM     14  C   UNL     1     111.428 128.062 136.821  0.00  0.00    +0.000 A 
ATOM     15  C   UNL     1     112.051 128.051 135.535  0.00  0.00    +0.000 A 
ATOM     16  C   UNL     1     111.313 128.876 136.759  0.00  0.00    +0.000 A 
ATOM     17  C   UNL     1     111.936 128.866 135.473  0.00  0.00    +0.000 A 
ATOM     18  C   UNL     1     111.567 129.278 136.085  0.00  0.00    +0.000 A 
BRANCH  18  19
ATOM     19  O   UNL     1     111.452 130.093 136.023  0.00  0.00    +0.000 OA
ATOM     20  C   UNL     1     110.690 130.406 136.069  0.00  0.00    +0.000 C 
ENDBRANCH  18  19
ENDBRANCH   6  13
BRANCH  11  21
ATOM     21  O   UNL     1     114.279 124.294 137.403  0.00  0.00    +0.000 OA
ATOM     22  C   UNL     1     114.995 124.675 137.251  0.00  0.00    +0.000 C 
ENDBRANCH  11  21
BRANCH   7  23
ATOM     23  O   UNL     1     110.632 126.608 135.678  0.00  0.00    +0.000 OA
BRANCH  23  24
ATOM     24  S   UNL     1     110.100 126.095 135.311  0.00  0.00    +0.000 S 
ATOM     25  O   UNL     1     109.569 125.582 134.943  0.00  0.00    +0.000 OA
ATOM     26  O   UNL     1     109.664 126.048 136.009  0.00  0.00    +0.000 OA
ATOM     27  O   UNL     1     110.537 126.142 134.612  0.00  0.00    +0.000 OA
ENDBRANCH  23  24
ENDBRANCH   7  23
TORSDOF 5
ENDMDL
MODEL 6
REMARK VINA RESULT:      -7.7     11.031     12.588
REMARK  Name = 44259575
REMARK  5 active torsions:
REMARK  status: ('A' for Active; 'I' for Inactive)
REMARK    1  A    between atoms: S_1  and  O_3
REMARK    2  A    between atoms: O_3  and  C_14
REMARK    3  A    between atoms: O_4  and  C_19
REMARK    4  A    between atoms: O_7  and  C_25
REMARK    5  A    between atoms: C_13  and  C_16
REMARK                            x       y       z     vdW  Elec       q    Type
REMARK                         _______ _______ _______ _____ _____    ______ ____
ROOT
ATOM      1  O   UNL     1     111.863 126.849 136.792  0.00  0.00    +0.000 OA
ATOM      2  O   UNL     1     110.473 125.127 134.935  0.00  0.00    +0.000 OA
ATOM      3  O   UNL     1     111.240 124.580 136.026  0.00  0.00    +0.000 OA
ATOM      4  C   UNL     1     111.175 125.998 135.873  0.00  0.00    +0.000 A 
ATOM      5  C   UNL     1     111.383 126.755 136.128  0.00  0.00    +0.000 A 
ATOM      6  C   UNL     1     112.136 126.186 137.201  0.00  0.00    +0.000 A 
ATOM      7  C   UNL     1     111.928 125.430 136.946  0.00  0.00    +0.000 A 
ATOM      8  C   UNL     1     111.448 125.336 136.282  0.00  0.00    +0.000 A 
ATOM      9  C   UNL     1     110.675 125.888 135.183  0.00  0.00    +0.000 A 
ATOM     10  C   UNL     1     111.105 127.453 135.711  0.00  0.00    +0.000 A 
ATOM     11  C   UNL     1     110.605 127.362 135.019  0.00  0.00    +0.000 A 
ATOM     12  C   UNL     1     110.388 126.574 134.753  0.00  0.00    +0.000 A 
ENDROOT
BRANCH   6  13
ATOM     13  C   UNL     1     112.617 126.280 137.865  0.00  0.00    +0.000 A 
ATOM     14  C   UNL     1     113.437 126.325 137.777  0.00  0.00    +0.000 A 
ATOM     15  C   UNL     1     112.279 126.330 138.616  0.00  0.00    +0.000 A 
ATOM     16  C   UNL     1     113.917 126.420 138.441  0.00  0.00    +0.000 A 
ATOM     17  C   UNL     1     112.760 126.425 139.279  0.00  0.00    +0.000 A 
ATOM     18  C   UNL     1     113.579 126.469 139.192  0.00  0.00    +0.000 A 
BRANCH  18  19
ATOM     19  O   UNL     1     114.061 126.564 139.855  0.00  0.00    +0.000 OA
ATOM     20  C   UNL     1     113.949 127.209 140.357  0.00  0.00    +0.000 C 
ENDBRANCH  18  19
ENDBRANCH   6  13
BRANCH  11  21
ATOM     21  O   UNL     1     110.334 128.027 134.612  0.00  0.00    +0.000 OA
ATOM     22  C   UNL     1     109.758 128.511 134.952  0.00  0.00    +0.000 C 
ENDBRANCH  11  21
BRANCH   7  23
ATOM     23  O   UNL     1     112.201 124.767 137.355  0.00  0.00    +0.000 OA
BRANCH  23  24
ATOM     24  S   UNL     1     112.101 124.014 137.033  0.00  0.00    +0.000 S 
ATOM     25  O   UNL     1     112.001 123.261 136.711  0.00  0.00    +0.000 OA
ATOM     26  O   UNL     1     111.422 123.909 137.490  0.00  0.00    +0.000 OA
ATOM     27  O   UNL     1     112.779 124.119 136.576  0.00  0.00    +0.000 OA
ENDBRANCH  23  24
ENDBRANCH   7  23
TORSDOF 5
ENDMDL
MODEL 7
REMARK VINA RESULT:      -7.7     10.423     11.734
REMARK  Name = 44259575
REMARK  5 active torsions:
REMARK  status: ('A' for Active; 'I' for Inactive)
REMARK    1  A    between atoms: S_1  and  O_3
REMARK    2  A    between atoms: O_3  and  C_14
REMARK    3  A    between atoms: O_4  and  C_19
REMARK    4  A    between atoms: O_7  and  C_25
REMARK    5  A    between atoms: C_13  and  C_16
REMARK                            x       y       z     vdW  Elec       q    Type
REMARK                         _______ _______ _______ _____ _____    ______ ____
ROOT
ATOM      1  O   UNL     1     111.887 126.422 138.186  0.00  0.00    +0.000 OA
ATOM      2  O   UNL     1     114.396 126.326 139.616  0.00  0.00    +0.000 OA
ATOM      3  O   UNL     1     114.283 125.808 138.275  0.00  0.00    +0.000 OA
ATOM      4  C   UNL     1     113.128 126.375 138.894  0.00  0.00    +0.000 A 
ATOM      5  C   UNL     1     112.329 126.580 138.864  0.00  0.00    +0.000 A 
ATOM      6  C   UNL     1     112.245 126.059 137.536  0.00  0.00    +0.000 A 
ATOM      7  C   UNL     1     113.044 125.854 137.566  0.00  0.00    +0.000 A 
ATOM      8  C   UNL     1     113.485 126.012 138.245  0.00  0.00    +0.000 A 
ATOM      9  C   UNL     1     113.598 126.535 139.596  0.00  0.00    +0.000 A 
ATOM     10  C   UNL     1     111.946 126.959 139.534  0.00  0.00    +0.000 A 
ATOM     11  C   UNL     1     112.400 127.126 140.243  0.00  0.00    +0.000 A 
ATOM     12  C   UNL     1     113.231 126.913 140.275  0.00  0.00    +0.000 A 
ENDROOT
BRANCH   6  13
ATOM     13  C   UNL     1     111.803 125.901 136.858  0.00  0.00    +0.000 A 
ATOM     14  C   UNL     1     111.770 126.457 136.249  0.00  0.00    +0.000 A 
ATOM     15  C   UNL     1     111.394 125.188 136.788  0.00  0.00    +0.000 A 
ATOM     16  C   UNL     1     111.329 126.300 135.570  0.00  0.00    +0.000 A 
ATOM     17  C   UNL     1     110.953 125.031 136.109  0.00  0.00    +0.000 A 
ATOM     18  C   UNL     1     110.920 125.586 135.500  0.00  0.00    +0.000 A 
BRANCH  18  19
ATOM     19  O   UNL     1     110.478 125.430 134.821  0.00  0.00    +0.000 OA
ATOM     20  C   UNL     1     109.749 125.800 134.709  0.00  0.00    +0.000 C 
ENDBRANCH  18  19
ENDBRANCH   6  13
BRANCH  11  21
ATOM     21  O   UNL     1     112.039 127.489 140.891  0.00  0.00    +0.000 OA
ATOM     22  C   UNL     1     111.541 127.053 141.383  0.00  0.00    +0.000 C 
ENDBRANCH  11  21
BRANCH   7  23
ATOM     23  O   UNL     1     113.400 125.491 136.918  0.00  0.00    +0.000 OA
BRANCH  23  24
ATOM     24  S   UNL     1     114.148 125.151 136.995  0.00  0.00    +0.000 S 
ATOM     25  O   UNL     1     114.895 124.810 137.073  0.00  0.00    +0.000 OA
ATOM     26  O   UNL     1     113.805 124.468 137.307  0.00  0.00    +0.000 OA
ATOM     27  O   UNL     1     114.491 125.833 136.683  0.00  0.00    +0.000 OA
ENDBRANCH  23  24
ENDBRANCH   7  23
TORSDOF 5
ENDMDL
MODEL 8
REMARK VINA RESULT:      -7.7      9.290     11.076
REMARK  Name = 44259575
REMARK  5 active torsions:
REMARK  status: ('A' for Active; 'I' for Inactive)
REMARK    1  A    between atoms: S_1  and  O_3
REMARK    2  A    between atoms: O_3  and  C_14
REMARK    3  A    between atoms: O_4  and  C_19
REMARK    4  A    between atoms: O_7  and  C_25
REMARK    5  A    between atoms: C_13  and  C_16
REMARK                            x       y       z     vdW  Elec       q    Type
REMARK                         _______ _______ _______ _____ _____    ______ ____
ROOT
ATOM      1  O   UNL     1     111.876 131.420 145.135  0.00  0.00    +0.000 OA
ATOM      2  O   UNL     1     111.485 132.341 142.425  0.00  0.00    +0.000 OA
ATOM      3  O   UNL     1     111.779 133.267 143.491  0.00  0.00    +0.000 OA
ATOM      4  C   UNL     1     111.682 131.874 143.794  0.00  0.00    +0.000 A 
ATOM      5  C   UNL     1     111.715 131.259 144.343  0.00  0.00    +0.000 A 
ATOM      6  C   UNL     1     112.005 132.197 145.380  0.00  0.00    +0.000 A 
ATOM      7  C   UNL     1     111.973 132.813 144.832  0.00  0.00    +0.000 A 
ATOM      8  C   UNL     1     111.812 132.651 144.039  0.00  0.00    +0.000 A 
ATOM      9  C   UNL     1     111.515 131.719 142.966  0.00  0.00    +0.000 A 
ATOM     10  C   UNL     1     111.582 130.445 144.100  0.00  0.00    +0.000 A 
ATOM     11  C   UNL     1     111.413 130.270 143.276  0.00  0.00    +0.000 A 
ATOM     12  C   UNL     1     111.380 130.912 142.705  0.00  0.00    +0.000 A 
ENDROOT
BRANCH   6  13
ATOM     13  C   UNL     1     112.167 132.358 146.173  0.00  0.00    +0.000 A 
ATOM     14  C   UNL     1     111.556 132.588 146.679  0.00  0.00    +0.000 A 
ATOM     15  C   UNL     1     112.937 132.290 146.460  0.00  0.00    +0.000 A 
ATOM     16  C   UNL     1     111.718 132.748 147.472  0.00  0.00    +0.000 A 
ATOM     17  C   UNL     1     113.097 132.451 147.253  0.00  0.00    +0.000 A 
ATOM     18  C   UNL     1     112.488 132.680 147.759  0.00  0.00    +0.000 A 
BRANCH  18  19
ATOM     19  O   UNL     1     112.648 132.842 148.552  0.00  0.00    +0.000 OA
ATOM     20  C   UNL     1     112.068 133.183 149.028  0.00  0.00    +0.000 C 
ENDBRANCH  18  19
ENDBRANCH   6  13
BRANCH  11  21
ATOM     21  O   UNL     1     111.284 129.492 143.035  0.00  0.00    +0.000 OA
ATOM     22  C   UNL     1     111.924 129.014 142.827  0.00  0.00    +0.000 C 
ENDBRANCH  11  21
BRANCH   7  23
ATOM     23  O   UNL     1     112.102 133.590 145.076  0.00  0.00    +0.000 OA
BRANCH  23  24
ATOM     24  S   UNL     1     111.889 134.218 144.585  0.00  0.00    +0.000 S 
ATOM     25  O   UNL     1     111.676 134.845 144.094  0.00  0.00    +0.000 OA
ATOM     26  O   UNL     1     111.102 134.130 144.815  0.00  0.00    +0.000 OA
ATOM     27  O   UNL     1     112.677 134.305 144.355  0.00  0.00    +0.000 OA
ENDBRANCH  23  24
ENDBRANCH   7  23
TORSDOF 5
ENDMDL
MODEL 9
REMARK VINA RESULT:      -7.7     12.317     13.535
REMARK  Name = 44259575
REMARK  5 active torsions:
REMARK  status: ('A' for Active; 'I' for Inactive)
REMARK    1  A    between atoms: S_1  and  O_3
REMARK    2  A    between atoms: O_3  and  C_14
REMARK    3  A    between atoms: O_4  and  C_19
REMARK    4  A    between atoms: O_7  and  C_25
REMARK    5  A    between atoms: C_13  and  C_16
REMARK                            x       y       z     vdW  Elec       q    Type
REMARK                         _______ _______ _______ _____ _____    ______ ____
ROOT
ATOM      1  O   UNL     1     112.045 127.174 135.903  0.00  0.00    +0.000 OA
ATOM      2  O   UNL     1     111.852 124.354 136.505  0.00  0.00    +0.000 OA
ATOM      3  O   UNL     1     112.928 125.156 137.033  0.00  0.00    +0.000 OA
ATOM      4  C   UNL     1     111.949 125.779 136.200  0.00  0.00    +0.000 A 
ATOM      5  C   UNL     1     111.655 126.452 135.823  0.00  0.00    +0.000 A 
ATOM      6  C   UNL     1     112.731 127.223 136.360  0.00  0.00    +0.000 A 
ATOM      7  C   UNL     1     113.025 126.551 136.736  0.00  0.00    +0.000 A 
ATOM      8  C   UNL     1     112.634 125.829 136.656  0.00  0.00    +0.000 A 
ATOM      9  C   UNL     1     111.550 125.021 136.124  0.00  0.00    +0.000 A 
ATOM     10  C   UNL     1     110.941 126.413 135.345  0.00  0.00    +0.000 A 
ATOM     11  C   UNL     1     110.530 125.664 135.258  0.00  0.00    +0.000 A 
ATOM     12  C   UNL     1     110.836 124.964 135.650  0.00  0.00    +0.000 A 
ENDROOT
BRANCH   6  13
ATOM     13  C   UNL     1     113.122 127.945 136.439  0.00  0.00    +0.000 A 
ATOM     14  C   UNL     1     113.669 128.183 135.868  0.00  0.00    +0.000 A 
ATOM     15  C   UNL     1     112.967 128.429 137.089  0.00  0.00    +0.000 A 
ATOM     16  C   UNL     1     114.059 128.905 135.947  0.00  0.00    +0.000 A 
ATOM     17  C   UNL     1     113.358 129.152 137.167  0.00  0.00    +0.000 A 
ATOM     18  C   UNL     1     113.904 129.389 136.597  0.00  0.00    +0.000 A 
BRANCH  18  19
ATOM     19  O   UNL     1     114.296 130.112 136.675  0.00  0.00    +0.000 OA
ATOM     20  C   UNL     1     113.862 130.809 136.756  0.00  0.00    +0.000 C 
ENDBRANCH  18  19
ENDBRANCH   6  13
BRANCH  11  21
ATOM     21  O   UNL     1     109.844 125.618 134.801  0.00  0.00    +0.000 OA
ATOM     22  C   UNL     1     109.184 126.070 135.002  0.00  0.00    +0.000 C 
ENDBRANCH  11  21
BRANCH   7  23
ATOM     23  O   UNL     1     113.710 126.600 137.192  0.00  0.00    +0.000 OA
BRANCH  23  24
ATOM     24  S   UNL     1     114.104 125.912 137.422  0.00  0.00    +0.000 S 
ATOM     25  O   UNL     1     114.497 125.224 137.652  0.00  0.00    +0.000 OA
ATOM     26  O   UNL     1     114.464 125.871 136.681  0.00  0.00    +0.000 OA
ATOM     27  O   UNL     1     113.743 125.953 138.163  0.00  0.00    +0.000 OA
ENDBRANCH  23  24
ENDBRANCH   7  23
TORSDOF 5
ENDMDL
MODEL 10
REMARK VINA RESULT:      -7.6     12.535     14.264
REMARK  Name = 44259575
REMARK  5 active torsions:
REMARK  status: ('A' for Active; 'I' for Inactive)
REMARK    1  A    between atoms: S_1  and  O_3
REMARK    2  A    between atoms: O_3  and  C_14
REMARK    3  A    between atoms: O_4  and  C_19
REMARK    4  A    between atoms: O_7  and  C_25
REMARK    5  A    between atoms: C_13  and  C_16
REMARK                            x       y       z     vdW  Elec       q    Type
REMARK                         _______ _______ _______ _____ _____    ______ ____
ROOT
ATOM      1  O   UNL     1     113.700 127.724 136.298  0.00  0.00    +0.000 OA
ATOM      2  O   UNL     1     111.051 126.579 136.158  0.00  0.00    +0.000 OA
ATOM      3  O   UNL     1     111.314 127.910 135.669  0.00  0.00    +0.000 OA
ATOM      4  C   UNL     1     112.390 127.157 136.229  0.00  0.00    +0.000 A 
ATOM      5  C   UNL     1     113.186 127.095 136.439  0.00  0.00    +0.000 A 
ATOM      6  C   UNL     1     113.419 128.416 135.947  0.00  0.00    +0.000 A 
ATOM      7  C   UNL     1     112.623 128.478 135.737  0.00  0.00    +0.000 A 
ATOM      8  C   UNL     1     112.110 127.848 135.878  0.00  0.00    +0.000 A 
ATOM      9  C   UNL     1     111.845 126.508 136.371  0.00  0.00    +0.000 A 
ATOM     10  C   UNL     1     113.491 126.379 136.805  0.00  0.00    +0.000 A 
ATOM     11  C   UNL     1     112.960 125.721 136.954  0.00  0.00    +0.000 A 
ATOM     12  C   UNL     1     112.132 125.785 136.736  0.00  0.00    +0.000 A 
ENDROOT
BRANCH   6  13
ATOM     13  C   UNL     1     113.934 129.045 135.806  0.00  0.00    +0.000 A 
ATOM     14  C   UNL     1     114.068 129.608 136.395  0.00  0.00    +0.000 A 
ATOM     15  C   UNL     1     114.314 129.112 135.077  0.00  0.00    +0.000 A 
ATOM     16  C   UNL     1     114.582 130.237 136.255  0.00  0.00    +0.000 A 
ATOM     17  C   UNL     1     114.829 129.742 134.938  0.00  0.00    +0.000 A 
ATOM     18  C   UNL     1     114.963 130.304 135.526  0.00  0.00    +0.000 A 
BRANCH  18  19
ATOM     19  O   UNL     1     115.477 130.934 135.386  0.00  0.00    +0.000 OA
ATOM     20  C   UNL     1     115.674 131.141 134.612  0.00  0.00    +0.000 C 
ENDBRANCH  18  19
ENDBRANCH   6  13
BRANCH  11  21
ATOM     21  O   UNL     1     113.245 125.030 137.306  0.00  0.00    +0.000 OA
ATOM     22  C   UNL     1     113.410 124.369 136.840  0.00  0.00    +0.000 C 
ENDBRANCH  11  21
BRANCH   7  23
ATOM     23  O   UNL     1     112.343 129.169 135.386  0.00  0.00    +0.000 OA
BRANCH  23  24
ATOM     24  S   UNL     1     111.536 129.342 135.402  0.00  0.00    +0.000 S 
ATOM     25  O   UNL     1     110.729 129.514 135.418  0.00  0.00    +0.000 OA
ATOM     26  O   UNL     1     111.606 129.598 136.183  0.00  0.00    +0.000 OA
ATOM     27  O   UNL     1     111.466 129.085 134.621  0.00  0.00    +0.000 OA
ENDBRANCH  23  24
ENDBRANCH   7  23
TORSDOF 5
ENDMDL
