MODEL 1
REMARK VINA RESULT:     -10.2      0.000      0.000
REMARK  Name = 156269
REMARK  3 active torsions:
REMARK  status: ('A' for Active; 'I' for Inactive)
REMARK    1  A    between atoms: O_1  and  C_12
REMARK    2  A    between atoms: O_1  and  C_14
REMARK    3  A    between atoms: C_13  and  C_22
REMARK                            x       y       z     vdW  Elec       q    Type
REMARK                         _______ _______ _______ _____ _____    ______ ____
ROOT
ATOM      1  O   UNL     1     105.639 124.417 147.686  0.00  0.00    +0.000 OA
ATOM      2  O   UNL     1     107.050 125.618 146.046  0.00  0.00    +0.000 OA
ATOM      3  O   UNL     1     108.165 125.617 146.960  0.00  0.00    +0.000 OA
ATOM      4  O   UNL     1     107.846 124.375 149.585  0.00  0.00    +0.000 OA
ATOM      5  C   UNL     1     105.800 125.025 146.402  0.00  0.00    +0.000 C 
ATOM      6  C   UNL     1     105.330 124.625 146.949  0.00  0.00    +0.000 C 
ATOM      7  C   UNL     1     106.580 125.218 146.592  0.00  0.00    +0.000 C 
ATOM      8  C   UNL     1     106.889 125.010 147.328  0.00  0.00    +0.000 A 
ATOM      9  C   UNL     1     106.418 124.609 147.875  0.00  0.00    +0.000 A 
ATOM     10  C   UNL     1     107.702 125.216 147.513  0.00  0.00    +0.000 A 
ATOM     11  C   UNL     1     106.729 124.387 148.645  0.00  0.00    +0.000 A 
ATOM     12  C   UNL     1     108.030 125.002 148.278  0.00  0.00    +0.000 A 
ATOM     13  C   UNL     1     107.540 124.585 148.848  0.00  0.00    +0.000 A 
ENDROOT
BRANCH   6  16
ATOM     14  O   UNL     1     103.453 122.972 145.566  0.00  0.00    +0.000 OA
ATOM     15  O   UNL     1     102.210 123.856 146.196  0.00  0.00    +0.000 OA
ATOM     16  C   UNL     1     104.550 124.432 146.760  0.00  0.00    +0.000 A 
ATOM     17  C   UNL     1     104.392 123.798 146.257  0.00  0.00    +0.000 A 
ATOM     18  C   UNL     1     103.928 124.874 147.076  0.00  0.00    +0.000 A 
ATOM     19  C   UNL     1     103.611 123.606 146.069  0.00  0.00    +0.000 A 
ATOM     20  C   UNL     1     103.149 124.682 146.887  0.00  0.00    +0.000 A 
ATOM     21  C   UNL     1     102.990 124.047 146.384  0.00  0.00    +0.000 A 
ENDBRANCH   6  16
BRANCH   5  22
ATOM     22  O   UNL     1     105.491 125.233 145.667  0.00  0.00    +0.000 OA
BRANCH  22  27
ATOM     23  O   UNL     1     105.406 126.620 146.002  0.00  0.00    +0.000 OA
ATOM     24  O   UNL     1     105.597 125.627 144.068  0.00  0.00    +0.000 OA
ATOM     25  O   UNL     1     105.565 127.210 143.604  0.00  0.00    +0.000 OA
ATOM     26  O   UNL     1     105.427 128.399 144.740  0.00  0.00    +0.000 OA
ATOM     27  C   UNL     1     105.475 126.025 145.435  0.00  0.00    +0.000 C 
ATOM     28  C   UNL     1     105.528 126.222 144.635  0.00  0.00    +0.000 C 
ATOM     29  C   UNL     1     105.512 127.013 144.403  0.00  0.00    +0.000 C 
ATOM     30  C   UNL     1     105.443 127.608 144.971  0.00  0.00    +0.000 C 
ATOM     31  C   UNL     1     105.390 127.411 145.770  0.00  0.00    +0.000 C 
ENDBRANCH  22  27
ENDBRANCH   5  22
TORSDOF 3
ENDMDL
MODEL 2
REMARK VINA RESULT:      -9.9      1.620      4.152
REMARK  Name = 156269
REMARK  3 active torsions:
REMARK  status: ('A' for Active; 'I' for Inactive)
REMARK    1  A    between atoms: O_1  and  C_12
REMARK    2  A    between atoms: O_1  and  C_14
REMARK    3  A    between atoms: C_13  and  C_22
REMARK                            x       y       z     vdW  Elec       q    Type
REMARK                         _______ _______ _______ _____ _____    ______ ____
ROOT
ATOM      1  O   UNL     1     103.716 125.731 147.312  0.00  0.00    +0.000 OA
ATOM      2  O   UNL     1     105.633 124.398 146.492  0.00  0.00    +0.000 OA
ATOM      3  O   UNL     1     104.758 123.310 146.128  0.00  0.00    +0.000 OA
ATOM      4  O   UNL     1     101.888 123.578 146.603  0.00  0.00    +0.000 OA
ATOM      5  C   UNL     1     105.120 125.596 147.078  0.00  0.00    +0.000 C 
ATOM      6  C   UNL     1     104.481 126.040 147.351  0.00  0.00    +0.000 C 
ATOM      7  C   UNL     1     104.994 124.842 146.766  0.00  0.00    +0.000 C 
ATOM      8  C   UNL     1     104.230 124.534 146.726  0.00  0.00    +0.000 A 
ATOM      9  C   UNL     1     103.591 124.978 147.000  0.00  0.00    +0.000 A 
ATOM     10  C   UNL     1     104.113 123.748 146.399  0.00  0.00    +0.000 A 
ATOM     11  C   UNL     1     102.791 124.667 146.964  0.00  0.00    +0.000 A 
ATOM     12  C   UNL     1     103.319 123.421 146.355  0.00  0.00    +0.000 A 
ATOM     13  C   UNL     1     102.654 123.884 146.640  0.00  0.00    +0.000 A 
ENDROOT
BRANCH   6  16
ATOM     14  O   UNL     1     104.665 127.786 149.607  0.00  0.00    +0.000 OA
ATOM     15  O   UNL     1     104.979 129.054 148.599  0.00  0.00    +0.000 OA
ATOM     16  C   UNL     1     104.605 126.793 147.664  0.00  0.00    +0.000 A 
ATOM     17  C   UNL     1     104.573 126.912 148.480  0.00  0.00    +0.000 A 
ATOM     18  C   UNL     1     104.762 127.428 147.160  0.00  0.00    +0.000 A 
ATOM     19  C   UNL     1     104.697 127.666 148.791  0.00  0.00    +0.000 A 
ATOM     20  C   UNL     1     104.886 128.181 147.472  0.00  0.00    +0.000 A 
ATOM     21  C   UNL     1     104.854 128.300 148.288  0.00  0.00    +0.000 A 
ENDBRANCH   6  16
BRANCH   5  22
ATOM     22  O   UNL     1     105.883 125.904 147.117  0.00  0.00    +0.000 OA
BRANCH  22  27
ATOM     23  O   UNL     1     106.244 125.080 148.228  0.00  0.00    +0.000 OA
ATOM     24  O   UNL     1     107.472 126.018 146.686  0.00  0.00    +0.000 OA
ATOM     25  O   UNL     1     108.626 125.251 147.581  0.00  0.00    +0.000 OA
ATOM     26  O   UNL     1     108.192 124.370 148.907  0.00  0.00    +0.000 OA
ATOM     27  C   UNL     1     106.460 125.521 147.565  0.00  0.00    +0.000 C 
ATOM     28  C   UNL     1     107.255 125.577 147.349  0.00  0.00    +0.000 C 
ATOM     29  C   UNL     1     107.833 125.194 147.796  0.00  0.00    +0.000 C 
ATOM     30  C   UNL     1     107.615 124.754 148.459  0.00  0.00    +0.000 C 
ATOM     31  C   UNL     1     106.821 124.697 148.675  0.00  0.00    +0.000 C 
ENDBRANCH  22  27
ENDBRANCH   5  22
TORSDOF 3
ENDMDL
MODEL 3
REMARK VINA RESULT:      -9.7      1.711      4.137
REMARK  Name = 156269
REMARK  3 active torsions:
REMARK  status: ('A' for Active; 'I' for Inactive)
REMARK    1  A    between atoms: O_1  and  C_12
REMARK    2  A    between atoms: O_1  and  C_14
REMARK    3  A    between atoms: C_13  and  C_22
REMARK                            x       y       z     vdW  Elec       q    Type
REMARK                         _______ _______ _______ _____ _____    ______ ____
ROOT
ATOM      1  O   UNL     1     104.959 124.135 147.002  0.00  0.00    +0.000 OA
ATOM      2  O   UNL     1     103.352 125.692 148.060  0.00  0.00    +0.000 OA
ATOM      3  O   UNL     1     102.247 125.057 147.386  0.00  0.00    +0.000 OA
ATOM      4  O   UNL     1     102.777 122.802 145.606  0.00  0.00    +0.000 OA
ATOM      5  C   UNL     1     104.694 125.238 147.872  0.00  0.00    +0.000 C 
ATOM      6  C   UNL     1     105.229 124.719 147.519  0.00  0.00    +0.000 C 
ATOM      7  C   UNL     1     103.888 125.173 147.708  0.00  0.00    +0.000 C 
ATOM      8  C   UNL     1     103.617 124.590 147.191  0.00  0.00    +0.000 A 
ATOM      9  C   UNL     1     104.153 124.071 146.838  0.00  0.00    +0.000 A 
ATOM     10  C   UNL     1     102.775 124.533 147.028  0.00  0.00    +0.000 A 
ATOM     11  C   UNL     1     103.883 123.459 146.298  0.00  0.00    +0.000 A 
ATOM     12  C   UNL     1     102.487 123.928 146.491  0.00  0.00    +0.000 A 
ATOM     13  C   UNL     1     103.045 123.387 146.124  0.00  0.00    +0.000 A 
ENDROOT
BRANCH   6  16
ATOM     14  O   UNL     1     107.860 125.513 146.734  0.00  0.00    +0.000 OA
ATOM     15  O   UNL     1     108.453 124.972 148.176  0.00  0.00    +0.000 OA
ATOM     16  C   UNL     1     106.035 124.783 147.683  0.00  0.00    +0.000 A 
ATOM     17  C   UNL     1     106.545 125.116 147.126  0.00  0.00    +0.000 A 
ATOM     18  C   UNL     1     106.332 124.512 148.404  0.00  0.00    +0.000 A 
ATOM     19  C   UNL     1     107.351 125.179 147.291  0.00  0.00    +0.000 A 
ATOM     20  C   UNL     1     107.138 124.576 148.568  0.00  0.00    +0.000 A 
ATOM     21  C   UNL     1     107.647 124.909 148.011  0.00  0.00    +0.000 A 
ENDBRANCH   6  16
BRANCH   5  22
ATOM     22  O   UNL     1     104.965 125.821 148.388  0.00  0.00    +0.000 OA
BRANCH  22  27
ATOM     23  O   UNL     1     104.775 126.865 147.431  0.00  0.00    +0.000 OA
ATOM     24  O   UNL     1     104.826 126.919 149.612  0.00  0.00    +0.000 OA
ATOM     25  O   UNL     1     104.568 128.512 149.266  0.00  0.00    +0.000 OA
ATOM     26  O   UNL     1     104.448 129.006 147.696  0.00  0.00    +0.000 OA
ATOM     27  C   UNL     1     104.835 126.617 148.215  0.00  0.00    +0.000 C 
ATOM     28  C   UNL     1     104.766 127.167 148.828  0.00  0.00    +0.000 C 
ATOM     29  C   UNL     1     104.637 127.963 148.655  0.00  0.00    +0.000 C 
ATOM     30  C   UNL     1     104.577 128.210 147.869  0.00  0.00    +0.000 C 
ATOM     31  C   UNL     1     104.646 127.661 147.258  0.00  0.00    +0.000 C 
ENDBRANCH  22  27
ENDBRANCH   5  22
TORSDOF 3
ENDMDL
MODEL 4
REMARK VINA RESULT:      -9.6      1.166      3.662
REMARK  Name = 156269
REMARK  3 active torsions:
REMARK  status: ('A' for Active; 'I' for Inactive)
REMARK    1  A    between atoms: O_1  and  C_12
REMARK    2  A    between atoms: O_1  and  C_14
REMARK    3  A    between atoms: C_13  and  C_22
REMARK                            x       y       z     vdW  Elec       q    Type
REMARK                         _______ _______ _______ _____ _____    ______ ____
ROOT
ATOM      1  O   UNL     1     103.850 124.206 147.889  0.00  0.00    +0.000 OA
ATOM      2  O   UNL     1     104.280 124.028 145.458  0.00  0.00    +0.000 OA
ATOM      3  O   UNL     1     102.937 123.557 145.225  0.00  0.00    +0.000 OA
ATOM      4  O   UNL     1     101.124 123.260 147.497  0.00  0.00    +0.000 OA
ATOM      5  C   UNL     1     104.734 124.350 146.774  0.00  0.00    +0.000 C 
ATOM      6  C   UNL     1     104.591 124.409 147.584  0.00  0.00    +0.000 C 
ATOM      7  C   UNL     1     104.137 124.088 146.268  0.00  0.00    +0.000 C 
ATOM      8  C   UNL     1     103.398 123.885 146.572  0.00  0.00    +0.000 A 
ATOM      9  C   UNL     1     103.254 123.944 147.382  0.00  0.00    +0.000 A 
ATOM     10  C   UNL     1     102.784 123.613 146.034  0.00  0.00    +0.000 A 
ATOM     11  C   UNL     1     102.488 123.736 147.711  0.00  0.00    +0.000 A 
ATOM     12  C   UNL     1     102.012 123.401 146.345  0.00  0.00    +0.000 A 
ATOM     13  C   UNL     1     101.863 123.462 147.189  0.00  0.00    +0.000 A 
ENDROOT
BRANCH   6  16
ATOM     14  O   UNL     1     105.701 126.441 149.259  0.00  0.00    +0.000 OA
ATOM     15  O   UNL     1     106.976 125.455 149.611  0.00  0.00    +0.000 OA
ATOM     16  C   UNL     1     105.186 124.671 148.091  0.00  0.00    +0.000 A 
ATOM     17  C   UNL     1     105.145 125.426 148.422  0.00  0.00    +0.000 A 
ATOM     18  C   UNL     1     105.825 124.177 148.266  0.00  0.00    +0.000 A 
ATOM     19  C   UNL     1     105.742 125.686 148.928  0.00  0.00    +0.000 A 
ATOM     20  C   UNL     1     106.420 124.439 148.773  0.00  0.00    +0.000 A 
ATOM     21  C   UNL     1     106.379 125.194 149.104  0.00  0.00    +0.000 A 
ENDBRANCH   6  16
BRANCH   5  22
ATOM     22  O   UNL     1     105.473 124.552 146.470  0.00  0.00    +0.000 OA
BRANCH  22  27
ATOM     23  O   UNL     1     105.011 125.805 145.959  0.00  0.00    +0.000 OA
ATOM     24  O   UNL     1     106.669 124.530 145.334  0.00  0.00    +0.000 OA
ATOM     25  O   UNL     1     106.805 125.771 144.255  0.00  0.00    +0.000 OA
ATOM     26  O   UNL     1     105.745 127.035 144.313  0.00  0.00    +0.000 OA
ATOM     27  C   UNL     1     105.541 125.173 145.931  0.00  0.00    +0.000 C 
ATOM     28  C   UNL     1     106.139 125.162 145.362  0.00  0.00    +0.000 C 
ATOM     29  C   UNL     1     106.208 125.783 144.823  0.00  0.00    +0.000 C 
ATOM     30  C   UNL     1     105.677 126.414 144.852  0.00  0.00    +0.000 C 
ATOM     31  C   UNL     1     105.080 126.425 145.420  0.00  0.00    +0.000 C 
ENDBRANCH  22  27
ENDBRANCH   5  22
TORSDOF 3
ENDMDL
MODEL 5
REMARK VINA RESULT:      -9.5     11.853     12.994
REMARK  Name = 156269
REMARK  3 active torsions:
REMARK  status: ('A' for Active; 'I' for Inactive)
REMARK    1  A    between atoms: O_1  and  C_12
REMARK    2  A    between atoms: O_1  and  C_14
REMARK    3  A    between atoms: C_13  and  C_22
REMARK                            x       y       z     vdW  Elec       q    Type
REMARK                         _______ _______ _______ _____ _____    ______ ____
ROOT
ATOM      1  O   UNL     1     111.812 125.904 136.136  0.00  0.00    +0.000 OA
ATOM      2  O   UNL     1     111.485 128.357 136.188  0.00  0.00    +0.000 OA
ATOM      3  O   UNL     1     110.261 128.239 135.435  0.00  0.00    +0.000 OA
ATOM      4  O   UNL     1     109.351 125.588 134.612  0.00  0.00    +0.000 OA
ATOM      5  C   UNL     1     112.254 127.204 136.536  0.00  0.00    +0.000 C 
ATOM      6  C   UNL     1     112.363 126.386 136.519  0.00  0.00    +0.000 C 
ATOM      7  C   UNL     1     111.594 127.540 136.171  0.00  0.00    +0.000 C 
ATOM      8  C   UNL     1     111.044 127.059 135.789  0.00  0.00    +0.000 A 
ATOM      9  C   UNL     1     111.154 126.241 135.771  0.00  0.00    +0.000 A 
ATOM     10  C   UNL     1     110.361 127.420 135.412  0.00  0.00    +0.000 A 
ATOM     11  C   UNL     1     110.587 125.729 135.376  0.00  0.00    +0.000 A 
ATOM     12  C   UNL     1     109.785 126.924 135.012  0.00  0.00    +0.000 A 
ATOM     13  C   UNL     1     109.899 126.073 134.994  0.00  0.00    +0.000 A 
ENDROOT
BRANCH   6  16
ATOM     14  O   UNL     1     114.938 125.162 136.336  0.00  0.00    +0.000 OA
ATOM     15  O   UNL     1     114.998 125.040 137.980  0.00  0.00    +0.000 OA
ATOM     16  C   UNL     1     113.022 126.050 136.883  0.00  0.00    +0.000 A 
ATOM     17  C   UNL     1     113.651 125.774 136.426  0.00  0.00    +0.000 A 
ATOM     18  C   UNL     1     113.051 125.989 137.706  0.00  0.00    +0.000 A 
ATOM     19  C   UNL     1     114.309 125.438 136.792  0.00  0.00    +0.000 A 
ATOM     20  C   UNL     1     113.710 125.652 138.071  0.00  0.00    +0.000 A 
ATOM     21  C   UNL     1     114.339 125.377 137.614  0.00  0.00    +0.000 A 
ENDBRANCH   6  16
BRANCH   5  22
ATOM     22  O   UNL     1     112.803 127.685 136.918  0.00  0.00    +0.000 OA
BRANCH  22  27
ATOM     23  O   UNL     1     113.349 128.189 135.698  0.00  0.00    +0.000 OA
ATOM     24  O   UNL     1     113.250 129.073 137.691  0.00  0.00    +0.000 OA
ATOM     25  O   UNL     1     114.020 130.270 136.856  0.00  0.00    +0.000 OA
ATOM     26  O   UNL     1     114.342 130.080 135.249  0.00  0.00    +0.000 OA
ATOM     27  C   UNL     1     113.188 128.284 136.501  0.00  0.00    +0.000 C 
ATOM     28  C   UNL     1     113.412 128.978 136.887  0.00  0.00    +0.000 C 
ATOM     29  C   UNL     1     113.796 129.577 136.470  0.00  0.00    +0.000 C 
ATOM     30  C   UNL     1     113.957 129.481 135.666  0.00  0.00    +0.000 C 
ATOM     31  C   UNL     1     113.734 128.788 135.280  0.00  0.00    +0.000 C 
ENDBRANCH  22  27
ENDBRANCH   5  22
TORSDOF 3
ENDMDL
MODEL 6
REMARK VINA RESULT:      -9.4     10.125     12.149
REMARK  Name = 156269
REMARK  3 active torsions:
REMARK  status: ('A' for Active; 'I' for Inactive)
REMARK    1  A    between atoms: O_1  and  C_12
REMARK    2  A    between atoms: O_1  and  C_14
REMARK    3  A    between atoms: C_13  and  C_22
REMARK                            x       y       z     vdW  Elec       q    Type
REMARK                         _______ _______ _______ _____ _____    ______ ____
ROOT
ATOM      1  O   UNL     1     113.537 127.191 136.427  0.00  0.00    +0.000 OA
ATOM      2  O   UNL     1     112.395 128.310 138.315  0.00  0.00    +0.000 OA
ATOM      3  O   UNL     1     112.713 129.610 137.776  0.00  0.00    +0.000 OA
ATOM      4  O   UNL     1     114.216 129.779 135.277  0.00  0.00    +0.000 OA
ATOM      5  C   UNL     1     112.801 127.113 137.650  0.00  0.00    +0.000 C 
ATOM      6  C   UNL     1     113.182 126.740 137.021  0.00  0.00    +0.000 C 
ATOM      7  C   UNL     1     112.775 127.937 137.686  0.00  0.00    +0.000 C 
ATOM      8  C   UNL     1     113.130 128.388 137.093  0.00  0.00    +0.000 A 
ATOM      9  C   UNL     1     113.511 128.014 136.464  0.00  0.00    +0.000 A 
ATOM     10  C   UNL     1     113.096 129.245 137.142  0.00  0.00    +0.000 A 
ATOM     11  C   UNL     1     113.884 128.473 135.840  0.00  0.00    +0.000 A 
ATOM     12  C   UNL     1     113.463 129.720 136.528  0.00  0.00    +0.000 A 
ATOM     13  C   UNL     1     113.860 129.331 135.872  0.00  0.00    +0.000 A 
ENDROOT
BRANCH   6  16
ATOM     14  O   UNL     1     114.610 124.290 137.378  0.00  0.00    +0.000 OA
ATOM     15  O   UNL     1     113.286 123.445 136.872  0.00  0.00    +0.000 OA
ATOM     16  C   UNL     1     113.209 125.916 136.984  0.00  0.00    +0.000 A 
ATOM     17  C   UNL     1     113.897 125.515 137.199  0.00  0.00    +0.000 A 
ATOM     18  C   UNL     1     112.546 125.494 136.731  0.00  0.00    +0.000 A 
ATOM     19  C   UNL     1     113.922 124.691 137.162  0.00  0.00    +0.000 A 
ATOM     20  C   UNL     1     112.573 124.670 136.694  0.00  0.00    +0.000 A 
ATOM     21  C   UNL     1     113.261 124.269 136.909  0.00  0.00    +0.000 A 
ENDBRANCH   6  16
BRANCH   5  22
ATOM     22  O   UNL     1     112.447 126.663 138.243  0.00  0.00    +0.000 OA
BRANCH  22  27
ATOM     23  O   UNL     1     113.469 126.985 139.189  0.00  0.00    +0.000 OA
ATOM     24  O   UNL     1     111.410 126.323 139.480  0.00  0.00    +0.000 OA
ATOM     25  O   UNL     1     111.913 126.475 141.044  0.00  0.00    +0.000 OA
ATOM     26  O   UNL     1     113.454 126.968 141.371  0.00  0.00    +0.000 OA
ATOM     27  C   UNL     1     112.699 126.739 139.025  0.00  0.00    +0.000 C 
ATOM     28  C   UNL     1     112.180 126.569 139.644  0.00  0.00    +0.000 C 
ATOM     29  C   UNL     1     112.431 126.645 140.426  0.00  0.00    +0.000 C 
ATOM     30  C   UNL     1     113.202 126.892 140.589  0.00  0.00    +0.000 C 
ATOM     31  C   UNL     1     113.720 127.062 139.971  0.00  0.00    +0.000 C 
ENDBRANCH  22  27
ENDBRANCH   5  22
TORSDOF 3
ENDMDL
MODEL 7
REMARK VINA RESULT:      -9.4     10.620     11.961
REMARK  Name = 156269
REMARK  3 active torsions:
REMARK  status: ('A' for Active; 'I' for Inactive)
REMARK    1  A    between atoms: O_1  and  C_12
REMARK    2  A    between atoms: O_1  and  C_14
REMARK    3  A    between atoms: C_13  and  C_22
REMARK                            x       y       z     vdW  Elec       q    Type
REMARK                         _______ _______ _______ _____ _____    ______ ____
ROOT
ATOM      1  O   UNL     1     111.034 125.263 136.521  0.00  0.00    +0.000 OA
ATOM      2  O   UNL     1     113.252 126.307 136.179  0.00  0.00    +0.000 OA
ATOM      3  O   UNL     1     113.917 125.074 136.522  0.00  0.00    +0.000 OA
ATOM      4  O   UNL     1     112.307 122.740 137.224  0.00  0.00    +0.000 OA
ATOM      5  C   UNL     1     111.826 126.403 136.178  0.00  0.00    +0.000 C 
ATOM      6  C   UNL     1     111.087 126.055 136.292  0.00  0.00    +0.000 C 
ATOM      7  C   UNL     1     112.513 125.959 136.293  0.00  0.00    +0.000 C 
ATOM      8  C   UNL     1     112.460 125.169 136.522  0.00  0.00    +0.000 A 
ATOM      9  C   UNL     1     111.721 124.821 136.636  0.00  0.00    +0.000 A 
ATOM     10  C   UNL     1     113.182 124.718 136.638  0.00  0.00    +0.000 A 
ATOM     11  C   UNL     1     111.653 123.998 136.874  0.00  0.00    +0.000 A 
ATOM     12  C   UNL     1     113.134 123.894 136.877  0.00  0.00    +0.000 A 
ATOM     13  C   UNL     1     112.364 123.532 136.995  0.00  0.00    +0.000 A 
ENDROOT
BRANCH   6  16
ATOM     14  O   UNL     1     108.870 127.507 137.362  0.00  0.00    +0.000 OA
ATOM     15  O   UNL     1     108.340 127.825 135.831  0.00  0.00    +0.000 OA
ATOM     16  C   UNL     1     110.400 126.497 136.178  0.00  0.00    +0.000 A 
ATOM     17  C   UNL     1     109.979 126.781 136.828  0.00  0.00    +0.000 A 
ATOM     18  C   UNL     1     110.135 126.656 135.412  0.00  0.00    +0.000 A 
ATOM     19  C   UNL     1     109.292 127.224 136.712  0.00  0.00    +0.000 A 
ATOM     20  C   UNL     1     109.449 127.099 135.298  0.00  0.00    +0.000 A 
ATOM     21  C   UNL     1     109.027 127.382 135.947  0.00  0.00    +0.000 A 
ENDBRANCH   6  16
BRANCH   5  22
ATOM     22  O   UNL     1     111.879 127.193 135.950  0.00  0.00    +0.000 OA
BRANCH  22  27
ATOM     23  O   UNL     1     112.314 127.622 137.242  0.00  0.00    +0.000 OA
ATOM     24  O   UNL     1     112.621 128.499 135.267  0.00  0.00    +0.000 OA
ATOM     25  O   UNL     1     113.427 129.581 136.218  0.00  0.00    +0.000 OA
ATOM     26  O   UNL     1     113.490 129.356 137.851  0.00  0.00    +0.000 OA
ATOM     27  C   UNL     1     112.282 127.734 136.425  0.00  0.00    +0.000 C 
ATOM     28  C   UNL     1     112.653 128.387 136.084  0.00  0.00    +0.000 C 
ATOM     29  C   UNL     1     113.056 128.928 136.559  0.00  0.00    +0.000 C 
ATOM     30  C   UNL     1     113.087 128.815 137.376  0.00  0.00    +0.000 C 
ATOM     31  C   UNL     1     112.716 128.163 137.717  0.00  0.00    +0.000 C 
ENDBRANCH  22  27
ENDBRANCH   5  22
TORSDOF 3
ENDMDL
MODEL 8
REMARK VINA RESULT:      -9.3     10.264     12.376
REMARK  Name = 156269
REMARK  3 active torsions:
REMARK  status: ('A' for Active; 'I' for Inactive)
REMARK    1  A    between atoms: O_1  and  C_12
REMARK    2  A    between atoms: O_1  and  C_14
REMARK    3  A    between atoms: C_13  and  C_22
REMARK                            x       y       z     vdW  Elec       q    Type
REMARK                         _______ _______ _______ _____ _____    ______ ____
ROOT
ATOM      1  O   UNL     1     113.542 126.812 136.775  0.00  0.00    +0.000 OA
ATOM      2  O   UNL     1     111.599 125.477 136.020  0.00  0.00    +0.000 OA
ATOM      3  O   UNL     1     112.279 124.248 136.347  0.00  0.00    +0.000 OA
ATOM      4  O   UNL     1     114.977 124.372 137.460  0.00  0.00    +0.000 OA
ATOM      5  C   UNL     1     112.221 126.746 136.231  0.00  0.00    +0.000 C 
ATOM      6  C   UNL     1     112.869 127.191 136.483  0.00  0.00    +0.000 C 
ATOM      7  C   UNL     1     112.247 125.922 136.272  0.00  0.00    +0.000 C 
ATOM      8  C   UNL     1     112.918 125.543 136.564  0.00  0.00    +0.000 A 
ATOM      9  C   UNL     1     113.566 125.988 136.816  0.00  0.00    +0.000 A 
ATOM     10  C   UNL     1     112.932 124.685 136.601  0.00  0.00    +0.000 A 
ATOM     11  C   UNL     1     114.272 125.605 137.122  0.00  0.00    +0.000 A 
ATOM     12  C   UNL     1     113.629 124.285 136.905  0.00  0.00    +0.000 A 
ATOM     13  C   UNL     1     114.303 124.748 137.167  0.00  0.00    +0.000 A 
ENDROOT
BRANCH   6  16
ATOM     14  O   UNL     1     112.587 129.726 137.772  0.00  0.00    +0.000 OA
ATOM     15  O   UNL     1     112.773 130.485 136.319  0.00  0.00    +0.000 OA
ATOM     16  C   UNL     1     112.845 128.014 136.443  0.00  0.00    +0.000 A 
ATOM     17  C   UNL     1     112.728 128.458 137.128  0.00  0.00    +0.000 A 
ATOM     18  C   UNL     1     112.938 128.394 135.715  0.00  0.00    +0.000 A 
ATOM     19  C   UNL     1     112.704 129.282 137.086  0.00  0.00    +0.000 A 
ATOM     20  C   UNL     1     112.914 129.218 135.675  0.00  0.00    +0.000 A 
ATOM     21  C   UNL     1     112.797 129.661 136.360  0.00  0.00    +0.000 A 
ENDBRANCH   6  16
BRANCH   5  22
ATOM     22  O   UNL     1     111.550 127.124 135.939  0.00  0.00    +0.000 OA
BRANCH  22  27
ATOM     23  O   UNL     1     110.786 126.850 137.115  0.00  0.00    +0.000 OA
ATOM     24  O   UNL     1     110.158 127.222 135.058  0.00  0.00    +0.000 OA
ATOM     25  O   UNL     1     108.698 126.997 135.795  0.00  0.00    +0.000 OA
ATOM     26  O   UNL     1     108.631 126.674 137.411  0.00  0.00    +0.000 OA
ATOM     27  C   UNL     1     110.820 127.012 136.307  0.00  0.00    +0.000 C 
ATOM     28  C   UNL     1     110.123 127.061 135.867  0.00  0.00    +0.000 C 
ATOM     29  C   UNL     1     109.394 126.948 136.235  0.00  0.00    +0.000 C 
ATOM     30  C   UNL     1     109.361 126.787 137.043  0.00  0.00    +0.000 C 
ATOM     31  C   UNL     1     110.056 126.738 137.483  0.00  0.00    +0.000 C 
ENDBRANCH  22  27
ENDBRANCH   5  22
TORSDOF 3
ENDMDL
MODEL 9
REMARK VINA RESULT:      -9.3      9.163     11.071
REMARK  Name = 156269
REMARK  3 active torsions:
REMARK  status: ('A' for Active; 'I' for Inactive)
REMARK    1  A    between atoms: O_1  and  C_12
REMARK    2  A    between atoms: O_1  and  C_14
REMARK    3  A    between atoms: C_13  and  C_22
REMARK                            x       y       z     vdW  Elec       q    Type
REMARK                         _______ _______ _______ _____ _____    ______ ____
ROOT
ATOM      1  O   UNL     1     113.817 126.225 138.291  0.00  0.00    +0.000 OA
ATOM      2  O   UNL     1     111.759 124.917 137.870  0.00  0.00    +0.000 OA
ATOM      3  O   UNL     1     112.378 124.247 136.753  0.00  0.00    +0.000 OA
ATOM      4  O   UNL     1     115.133 124.914 136.049  0.00  0.00    +0.000 OA
ATOM      5  C   UNL     1     112.468 125.895 138.632  0.00  0.00    +0.000 C 
ATOM      6  C   UNL     1     113.154 126.331 138.772  0.00  0.00    +0.000 C 
ATOM      7  C   UNL     1     112.445 125.353 138.011  0.00  0.00    +0.000 C 
ATOM      8  C   UNL     1     113.106 125.247 137.530  0.00  0.00    +0.000 A 
ATOM      9  C   UNL     1     113.792 125.683 137.670  0.00  0.00    +0.000 A 
ATOM     10  C   UNL     1     113.068 124.679 136.886  0.00  0.00    +0.000 A 
ATOM     11  C   UNL     1     114.488 125.581 137.176  0.00  0.00    +0.000 A 
ATOM     12  C   UNL     1     113.754 124.564 136.382  0.00  0.00    +0.000 A 
ATOM     13  C   UNL     1     114.469 125.018 136.528  0.00  0.00    +0.000 A 
ENDROOT
BRANCH   6  16
ATOM     14  O   UNL     1     113.095 129.032 139.705  0.00  0.00    +0.000 OA
ATOM     15  O   UNL     1     113.254 128.499 141.259  0.00  0.00    +0.000 OA
ATOM     16  C   UNL     1     113.179 126.874 139.393  0.00  0.00    +0.000 A 
ATOM     17  C   UNL     1     113.125 127.682 139.238  0.00  0.00    +0.000 A 
ATOM     18  C   UNL     1     113.259 126.607 140.171  0.00  0.00    +0.000 A 
ATOM     19  C   UNL     1     113.150 128.224 139.860  0.00  0.00    +0.000 A 
ATOM     20  C   UNL     1     113.284 127.149 140.792  0.00  0.00    +0.000 A 
ATOM     21  C   UNL     1     113.229 127.958 140.636  0.00  0.00    +0.000 A 
ENDBRANCH   6  16
BRANCH   5  22
ATOM     22  O   UNL     1     111.807 126.002 139.113  0.00  0.00    +0.000 OA
BRANCH  22  27
ATOM     23  O   UNL     1     111.090 126.709 138.099  0.00  0.00    +0.000 OA
ATOM     24  O   UNL     1     110.380 125.566 139.818  0.00  0.00    +0.000 OA
ATOM     25  O   UNL     1     108.950 126.055 139.156  0.00  0.00    +0.000 OA
ATOM     26  O   UNL     1     108.947 126.980 137.790  0.00  0.00    +0.000 OA
ATOM     27  C   UNL     1     111.092 126.246 138.782  0.00  0.00    +0.000 C 
ATOM     28  C   UNL     1     110.378 126.028 139.135  0.00  0.00    +0.000 C 
ATOM     29  C   UNL     1     109.663 126.273 138.804  0.00  0.00    +0.000 C 
ATOM     30  C   UNL     1     109.662 126.736 138.121  0.00  0.00    +0.000 C 
ATOM     31  C   UNL     1     110.374 126.953 137.768  0.00  0.00    +0.000 C 
ENDBRANCH  22  27
ENDBRANCH   5  22
TORSDOF 3
ENDMDL
MODEL 10
REMARK VINA RESULT:      -9.3      9.881     11.664
REMARK  Name = 156269
REMARK  3 active torsions:
REMARK  status: ('A' for Active; 'I' for Inactive)
REMARK    1  A    between atoms: O_1  and  C_12
REMARK    2  A    between atoms: O_1  and  C_14
REMARK    3  A    between atoms: C_13  and  C_22
REMARK                            x       y       z     vdW  Elec       q    Type
REMARK                         _______ _______ _______ _____ _____    ______ ____
ROOT
ATOM      1  O   UNL     1     113.481 126.212 138.734  0.00  0.00    +0.000 OA
ATOM      2  O   UNL     1     111.087 125.711 138.355  0.00  0.00    +0.000 OA
ATOM      3  O   UNL     1     110.738 126.258 139.643  0.00  0.00    +0.000 OA
ATOM      4  O   UNL     1     112.852 127.333 141.347  0.00  0.00    +0.000 OA
ATOM      5  C   UNL     1     112.442 125.687 137.904  0.00  0.00    +0.000 C 
ATOM      6  C   UNL     1     113.240 125.855 138.030  0.00  0.00    +0.000 C 
ATOM      7  C   UNL     1     111.885 125.878 138.481  0.00  0.00    +0.000 C 
ATOM      8  C   UNL     1     112.125 126.235 139.184  0.00  0.00    +0.000 A 
ATOM      9  C   UNL     1     112.922 126.403 139.311  0.00  0.00    +0.000 A 
ATOM     10  C   UNL     1     111.534 126.429 139.778  0.00  0.00    +0.000 A 
ATOM     11  C   UNL     1     113.185 126.775 140.040  0.00  0.00    +0.000 A 
ATOM     12  C   UNL     1     111.778 126.801 140.513  0.00  0.00    +0.000 A 
ATOM     13  C   UNL     1     112.609 126.976 140.645  0.00  0.00    +0.000 A 
ENDROOT
BRANCH   6  16
ATOM     14  O   UNL     1     114.938 126.645 135.871  0.00  0.00    +0.000 OA
ATOM     15  O   UNL     1     115.474 125.091 135.724  0.00  0.00    +0.000 OA
ATOM     16  C   UNL     1     113.799 125.664 137.453  0.00  0.00    +0.000 A 
ATOM     17  C   UNL     1     114.089 126.250 136.950  0.00  0.00    +0.000 A 
ATOM     18  C   UNL     1     114.067 124.887 137.380  0.00  0.00    +0.000 A 
ATOM     19  C   UNL     1     114.647 126.059 136.374  0.00  0.00    +0.000 A 
ATOM     20  C   UNL     1     114.625 124.697 136.803  0.00  0.00    +0.000 A 
ATOM     21  C   UNL     1     114.915 125.283 136.300  0.00  0.00    +0.000 A 
ENDBRANCH   6  16
BRANCH   5  22
ATOM     22  O   UNL     1     112.203 125.330 137.200  0.00  0.00    +0.000 OA
BRANCH  22  27
ATOM     23  O   UNL     1     111.628 126.540 136.704  0.00  0.00    +0.000 OA
ATOM     24  O   UNL     1     111.227 124.455 136.198  0.00  0.00    +0.000 OA
ATOM     25  O   UNL     1     110.164 125.229 135.200  0.00  0.00    +0.000 OA
ATOM     26  O   UNL     1     110.077 126.876 135.205  0.00  0.00    +0.000 OA
ATOM     27  C   UNL     1     111.671 125.717 136.702  0.00  0.00    +0.000 C 
ATOM     28  C   UNL     1     111.183 125.279 136.200  0.00  0.00    +0.000 C 
ATOM     29  C   UNL     1     110.651 125.666 135.701  0.00  0.00    +0.000 C 
ATOM     30  C   UNL     1     110.608 126.490 135.704  0.00  0.00    +0.000 C 
ATOM     31  C   UNL     1     111.096 126.927 136.205  0.00  0.00    +0.000 C 
ENDBRANCH  22  27
ENDBRANCH   5  22
TORSDOF 3
ENDMDL
