MODEL 1
REMARK VINA RESULT:      -9.0      0.000      0.000
REMARK  Name = 12303943
REMARK  6 active torsions:
REMARK  status: ('A' for Active; 'I' for Inactive)
REMARK    1  A    between atoms: O_4  and  C_15
REMARK    2  A    between atoms: O_4  and  C_17
REMARK    3  A    between atoms: C_13  and  C_16
REMARK    4  A    between atoms: C_22  and  C_23
REMARK    5  A    between atoms: C_23  and  C_24
REMARK    6  A    between atoms: C_25  and  C_26
REMARK                            x       y       z     vdW  Elec       q    Type
REMARK                         _______ _______ _______ _____ _____    ______ ____
ROOT
ATOM      1  O   UNL     1     108.557 126.759 136.246  0.00  0.00    +0.000 OA
ATOM      2  C   UNL     1     109.120 128.647 135.307  0.00  0.00    +0.000 A 
ATOM      3  C   UNL     1     108.724 128.100 135.780  0.00  0.00    +0.000 A 
ATOM      4  C   UNL     1     109.745 128.403 134.828  0.00  0.00    +0.000 A 
ATOM      5  C   UNL     1     108.953 127.307 135.774  0.00  0.00    +0.000 A 
ATOM      6  C   UNL     1     109.975 127.610 134.822  0.00  0.00    +0.000 A 
ATOM      7  C   UNL     1     109.579 127.062 135.294  0.00  0.00    +0.000 A 
ENDROOT
BRANCH   7   9
ATOM      8  O   UNL     1     109.370 125.717 134.859  0.00  0.00    +0.000 OA
ATOM      9  C   UNL     1     109.808 126.269 135.288  0.00  0.00    +0.000 C 
BRANCH   9  10
ATOM     10  C   UNL     1     110.474 126.030 135.710  0.00  0.00    +0.000 C 
ATOM     11  C   UNL     1     110.792 125.279 135.587  0.00  0.00    +0.000 C 
BRANCH  11  14
ATOM     12  O   UNL     1     112.167 123.302 137.126  0.00  0.00    +0.000 OA
ATOM     13  O   UNL     1     113.459 124.317 137.276  0.00  0.00    +0.000 OA
ATOM     14  C   UNL     1     111.459 125.038 136.010  0.00  0.00    +0.000 A 
ATOM     15  C   UNL     1     111.480 124.290 136.357  0.00  0.00    +0.000 A 
ATOM     16  C   UNL     1     112.105 125.546 136.085  0.00  0.00    +0.000 A 
ATOM     17  C   UNL     1     112.147 124.050 136.779  0.00  0.00    +0.000 A 
ATOM     18  C   UNL     1     112.771 125.306 136.507  0.00  0.00    +0.000 A 
ATOM     19  C   UNL     1     112.793 124.558 136.854  0.00  0.00    +0.000 A 
ENDBRANCH  11  14
ENDBRANCH   9  10
ENDBRANCH   7   9
BRANCH   2  20
ATOM     20  O   UNL     1     108.891 129.440 135.313  0.00  0.00    +0.000 OA
BRANCH  20  29
ATOM     21  O   UNL     1     109.838 129.920 136.270  0.00  0.00    +0.000 OA
ATOM     22  O   UNL     1     109.616 131.346 137.908  0.00  0.00    +0.000 OA
ATOM     23  O   UNL     1     108.085 131.338 137.292  0.00  0.00    +0.000 OA
ATOM     24  O   UNL     1     107.723 130.384 135.995  0.00  0.00    +0.000 OA
ATOM     25  C   UNL     1     109.434 130.870 137.259  0.00  0.00    +0.000 C 
ATOM     26  C   UNL     1     108.669 130.865 136.951  0.00  0.00    +0.000 C 
ATOM     27  C   UNL     1     110.018 130.397 136.918  0.00  0.00    +0.000 C 
ATOM     28  C   UNL     1     108.488 130.389 136.303  0.00  0.00    +0.000 C 
ATOM     29  C   UNL     1     109.072 129.917 135.962  0.00  0.00    +0.000 C 
BRANCH  27  31
ATOM     30  O   UNL     1     111.429 130.524 136.727  0.00  0.00    +0.000 OA
ATOM     31  C   UNL     1     110.784 130.401 137.226  0.00  0.00    +0.000 C 
ENDBRANCH  27  31
ENDBRANCH  20  29
ENDBRANCH   2  20
TORSDOF 6
ENDMDL
MODEL 2
REMARK VINA RESULT:      -8.9      1.470      5.635
REMARK  Name = 12303943
REMARK  6 active torsions:
REMARK  status: ('A' for Active; 'I' for Inactive)
REMARK    1  A    between atoms: O_4  and  C_15
REMARK    2  A    between atoms: O_4  and  C_17
REMARK    3  A    between atoms: C_13  and  C_16
REMARK    4  A    between atoms: C_22  and  C_23
REMARK    5  A    between atoms: C_23  and  C_24
REMARK    6  A    between atoms: C_25  and  C_26
REMARK                            x       y       z     vdW  Elec       q    Type
REMARK                         _______ _______ _______ _____ _____    ______ ____
ROOT
ATOM      1  O   UNL     1     108.221 128.457 136.250  0.00  0.00    +0.000 OA
ATOM      2  C   UNL     1     109.860 127.925 134.911  0.00  0.00    +0.000 A 
ATOM      3  C   UNL     1     109.230 127.853 135.439  0.00  0.00    +0.000 A 
ATOM      4  C   UNL     1     110.109 128.671 134.664  0.00  0.00    +0.000 A 
ATOM      5  C   UNL     1     108.850 128.528 135.722  0.00  0.00    +0.000 A 
ATOM      6  C   UNL     1     109.728 129.347 134.947  0.00  0.00    +0.000 A 
ATOM      7  C   UNL     1     109.099 129.276 135.475  0.00  0.00    +0.000 A 
ENDROOT
BRANCH   7   9
ATOM      8  O   UNL     1     107.948 130.122 135.515  0.00  0.00    +0.000 OA
ATOM      9  C   UNL     1     108.719 129.951 135.758  0.00  0.00    +0.000 C 
BRANCH   9  10
ATOM     10  C   UNL     1     109.108 130.455 136.281  0.00  0.00    +0.000 C 
ATOM     11  C   UNL     1     108.799 131.203 136.440  0.00  0.00    +0.000 C 
BRANCH  11  14
ATOM     12  O   UNL     1     110.495 133.455 136.908  0.00  0.00    +0.000 OA
ATOM     13  O   UNL     1     110.357 133.221 138.535  0.00  0.00    +0.000 OA
ATOM     14  C   UNL     1     109.189 131.708 136.965  0.00  0.00    +0.000 A 
ATOM     15  C   UNL     1     109.647 132.329 136.674  0.00  0.00    +0.000 A 
ATOM     16  C   UNL     1     109.120 131.591 137.778  0.00  0.00    +0.000 A 
ATOM     17  C   UNL     1     110.037 132.834 137.198  0.00  0.00    +0.000 A 
ATOM     18  C   UNL     1     109.509 132.095 138.301  0.00  0.00    +0.000 A 
ATOM     19  C   UNL     1     109.968 132.717 138.012  0.00  0.00    +0.000 A 
ENDBRANCH  11  14
ENDBRANCH   9  10
ENDBRANCH   7   9
BRANCH   2  20
ATOM     20  O   UNL     1     110.240 127.250 134.628  0.00  0.00    +0.000 OA
BRANCH  20  29
ATOM     21  O   UNL     1     111.323 127.195 135.559  0.00  0.00    +0.000 OA
ATOM     22  O   UNL     1     112.207 125.507 136.625  0.00  0.00    +0.000 OA
ATOM     23  O   UNL     1     111.025 124.746 135.762  0.00  0.00    +0.000 OA
ATOM     24  O   UNL     1     110.041 125.617 134.763  0.00  0.00    +0.000 OA
ATOM     25  C   UNL     1     111.715 125.942 136.125  0.00  0.00    +0.000 C 
ATOM     26  C   UNL     1     111.124 125.562 135.694  0.00  0.00    +0.000 C 
ATOM     27  C   UNL     1     111.814 126.758 136.058  0.00  0.00    +0.000 C 
ATOM     28  C   UNL     1     110.633 125.997 135.195  0.00  0.00    +0.000 C 
ATOM     29  C   UNL     1     110.732 126.813 135.128  0.00  0.00    +0.000 C 
BRANCH  27  31
ATOM     30  O   UNL     1     112.927 127.655 136.111  0.00  0.00    +0.000 OA
ATOM     31  C   UNL     1     112.406 127.140 136.490  0.00  0.00    +0.000 C 
ENDBRANCH  27  31
ENDBRANCH  20  29
ENDBRANCH   2  20
TORSDOF 6
ENDMDL
MODEL 3
REMARK VINA RESULT:      -8.7      1.243      5.653
REMARK  Name = 12303943
REMARK  6 active torsions:
REMARK  status: ('A' for Active; 'I' for Inactive)
REMARK    1  A    between atoms: O_4  and  C_15
REMARK    2  A    between atoms: O_4  and  C_17
REMARK    3  A    between atoms: C_13  and  C_16
REMARK    4  A    between atoms: C_22  and  C_23
REMARK    5  A    between atoms: C_23  and  C_24
REMARK    6  A    between atoms: C_25  and  C_26
REMARK                            x       y       z     vdW  Elec       q    Type
REMARK                         _______ _______ _______ _____ _____    ______ ____
ROOT
ATOM      1  O   UNL     1     110.790 125.733 134.700  0.00  0.00    +0.000 OA
ATOM      2  C   UNL     1     111.261 125.063 136.723  0.00  0.00    +0.000 A 
ATOM      3  C   UNL     1     111.293 125.148 135.903  0.00  0.00    +0.000 A 
ATOM      4  C   UNL     1     110.696 125.475 137.160  0.00  0.00    +0.000 A 
ATOM      5  C   UNL     1     110.759 125.647 135.520  0.00  0.00    +0.000 A 
ATOM      6  C   UNL     1     110.162 125.974 136.776  0.00  0.00    +0.000 A 
ATOM      7  C   UNL     1     110.193 126.060 135.957  0.00  0.00    +0.000 A 
ENDROOT
BRANCH   7   9
ATOM      8  O   UNL     1     109.052 126.238 135.116  0.00  0.00    +0.000 OA
ATOM      9  C   UNL     1     109.659 126.559 135.574  0.00  0.00    +0.000 C 
BRANCH   9  10
ATOM     10  C   UNL     1     109.733 127.376 135.648  0.00  0.00    +0.000 C 
ATOM     11  C   UNL     1     109.134 127.871 135.370  0.00  0.00    +0.000 C 
BRANCH  11  14
ATOM     12  O   UNL     1     108.359 130.323 136.617  0.00  0.00    +0.000 OA
ATOM     13  O   UNL     1     109.429 131.145 135.667  0.00  0.00    +0.000 OA
ATOM     14  C   UNL     1     109.208 128.690 135.444  0.00  0.00    +0.000 A 
ATOM     15  C   UNL     1     108.747 129.097 135.993  0.00  0.00    +0.000 A 
ATOM     16  C   UNL     1     109.743 129.101 134.969  0.00  0.00    +0.000 A 
ATOM     17  C   UNL     1     108.820 129.916 136.068  0.00  0.00    +0.000 A 
ATOM     18  C   UNL     1     109.816 129.919 135.043  0.00  0.00    +0.000 A 
ATOM     19  C   UNL     1     109.355 130.327 135.592  0.00  0.00    +0.000 A 
ENDBRANCH  11  14
ENDBRANCH   9  10
ENDBRANCH   7   9
BRANCH   2  20
ATOM     20  O   UNL     1     111.795 124.564 137.106  0.00  0.00    +0.000 OA
BRANCH  20  29
ATOM     21  O   UNL     1     112.560 125.516 137.849  0.00  0.00    +0.000 OA
ATOM     22  O   UNL     1     114.717 125.729 138.104  0.00  0.00    +0.000 OA
ATOM     23  O   UNL     1     114.648 124.407 137.119  0.00  0.00    +0.000 OA
ATOM     24  O   UNL     1     113.188 123.825 136.620  0.00  0.00    +0.000 OA
ATOM     25  C   UNL     1     113.986 125.437 137.855  0.00  0.00    +0.000 C 
ATOM     26  C   UNL     1     113.952 124.777 137.362  0.00  0.00    +0.000 C 
ATOM     27  C   UNL     1     113.290 125.807 138.098  0.00  0.00    +0.000 C 
ATOM     28  C   UNL     1     113.222 124.486 137.113  0.00  0.00    +0.000 C 
ATOM     29  C   UNL     1     112.526 124.855 137.356  0.00  0.00    +0.000 C 
BRANCH  27  31
ATOM     30  O   UNL     1     112.936 126.460 139.319  0.00  0.00    +0.000 OA
ATOM     31  C   UNL     1     113.324 126.468 138.591  0.00  0.00    +0.000 C 
ENDBRANCH  27  31
ENDBRANCH  20  29
ENDBRANCH   2  20
TORSDOF 6
ENDMDL
MODEL 4
REMARK VINA RESULT:      -8.6     10.179     11.724
REMARK  Name = 12303943
REMARK  6 active torsions:
REMARK  status: ('A' for Active; 'I' for Inactive)
REMARK    1  A    between atoms: O_4  and  C_15
REMARK    2  A    between atoms: O_4  and  C_17
REMARK    3  A    between atoms: C_13  and  C_16
REMARK    4  A    between atoms: C_22  and  C_23
REMARK    5  A    between atoms: C_23  and  C_24
REMARK    6  A    between atoms: C_25  and  C_26
REMARK                            x       y       z     vdW  Elec       q    Type
REMARK                         _______ _______ _______ _____ _____    ______ ____
ROOT
ATOM      1  O   UNL     1     106.711 125.363 144.652  0.00  0.00    +0.000 OA
ATOM      2  C   UNL     1     105.265 125.139 146.271  0.00  0.00    +0.000 A 
ATOM      3  C   UNL     1     105.858 124.962 145.727  0.00  0.00    +0.000 A 
ATOM      4  C   UNL     1     104.930 125.892 146.287  0.00  0.00    +0.000 A 
ATOM      5  C   UNL     1     106.117 125.539 145.197  0.00  0.00    +0.000 A 
ATOM      6  C   UNL     1     105.188 126.469 145.757  0.00  0.00    +0.000 A 
ATOM      7  C   UNL     1     105.782 126.294 145.212  0.00  0.00    +0.000 A 
ENDROOT
BRANCH   7   9
ATOM      8  O   UNL     1     106.824 127.127 144.702  0.00  0.00    +0.000 OA
ATOM      9  C   UNL     1     106.040 126.871 144.682  0.00  0.00    +0.000 C 
BRANCH   9  10
ATOM     10  C   UNL     1     105.515 127.191 144.133  0.00  0.00    +0.000 C 
ATOM     11  C   UNL     1     105.782 127.744 143.582  0.00  0.00    +0.000 C 
BRANCH  11  14
ATOM     12  O   UNL     1     104.585 127.704 140.987  0.00  0.00    +0.000 OA
ATOM     13  O   UNL     1     103.681 129.026 141.383  0.00  0.00    +0.000 OA
ATOM     14  C   UNL     1     105.256 128.065 143.032  0.00  0.00    +0.000 A 
ATOM     15  C   UNL     1     105.183 127.724 142.284  0.00  0.00    +0.000 A 
ATOM     16  C   UNL     1     104.804 128.726 143.230  0.00  0.00    +0.000 A 
ATOM     17  C   UNL     1     104.658 128.045 141.734  0.00  0.00    +0.000 A 
ATOM     18  C   UNL     1     104.280 129.046 142.681  0.00  0.00    +0.000 A 
ATOM     19  C   UNL     1     104.206 128.706 141.933  0.00  0.00    +0.000 A 
ENDBRANCH  11  14
ENDBRANCH   9  10
ENDBRANCH   7   9
BRANCH   2  20
ATOM     20  O   UNL     1     105.006 124.562 146.801  0.00  0.00    +0.000 OA
BRANCH  20  29
ATOM     21  O   UNL     1     104.326 123.651 145.935  0.00  0.00    +0.000 OA
ATOM     22  O   UNL     1     102.349 122.739 146.088  0.00  0.00    +0.000 OA
ATOM     23  O   UNL     1     102.380 123.650 147.463  0.00  0.00    +0.000 OA
ATOM     24  O   UNL     1     103.708 124.562 147.820  0.00  0.00    +0.000 OA
ATOM     25  C   UNL     1     103.013 123.195 146.267  0.00  0.00    +0.000 C 
ATOM     26  C   UNL     1     103.029 123.650 146.954  0.00  0.00    +0.000 C 
ATOM     27  C   UNL     1     103.662 123.195 145.758  0.00  0.00    +0.000 C 
ATOM     28  C   UNL     1     103.692 124.106 147.132  0.00  0.00    +0.000 C 
ATOM     29  C   UNL     1     104.341 124.106 146.623  0.00  0.00    +0.000 C 
BRANCH  27  31
ATOM     30  O   UNL     1     103.798 123.091 144.338  0.00  0.00    +0.000 OA
ATOM     31  C   UNL     1     103.647 122.739 145.069  0.00  0.00    +0.000 C 
ENDBRANCH  27  31
ENDBRANCH  20  29
ENDBRANCH   2  20
TORSDOF 6
ENDMDL
MODEL 5
REMARK VINA RESULT:      -8.6      4.029      5.306
REMARK  Name = 12303943
REMARK  6 active torsions:
REMARK  status: ('A' for Active; 'I' for Inactive)
REMARK    1  A    between atoms: O_4  and  C_15
REMARK    2  A    between atoms: O_4  and  C_17
REMARK    3  A    between atoms: C_13  and  C_16
REMARK    4  A    between atoms: C_22  and  C_23
REMARK    5  A    between atoms: C_23  and  C_24
REMARK    6  A    between atoms: C_25  and  C_26
REMARK                            x       y       z     vdW  Elec       q    Type
REMARK                         _______ _______ _______ _____ _____    ______ ____
ROOT
ATOM      1  O   UNL     1     112.266 126.193 140.852  0.00  0.00    +0.000 OA
ATOM      2  C   UNL     1     113.377 128.003 140.351  0.00  0.00    +0.000 A 
ATOM      3  C   UNL     1     113.119 127.336 140.762  0.00  0.00    +0.000 A 
ATOM      4  C   UNL     1     113.043 128.195 139.623  0.00  0.00    +0.000 A 
ATOM      5  C   UNL     1     112.525 126.860 140.443  0.00  0.00    +0.000 A 
ATOM      6  C   UNL     1     112.450 127.719 139.303  0.00  0.00    +0.000 A 
ATOM      7  C   UNL     1     112.190 127.052 139.712  0.00  0.00    +0.000 A 
ENDROOT
BRANCH   7   9
ATOM      8  O   UNL     1     110.846 126.569 139.735  0.00  0.00    +0.000 OA
ATOM      9  C   UNL     1     111.597 126.576 139.393  0.00  0.00    +0.000 C 
BRANCH   9  10
ATOM     10  C   UNL     1     111.755 126.108 138.733  0.00  0.00    +0.000 C 
ATOM     11  C   UNL     1     111.140 125.710 138.353  0.00  0.00    +0.000 C 
BRANCH  11  14
ATOM     12  O   UNL     1     110.863 125.206 135.554  0.00  0.00    +0.000 OA
ATOM     13  O   UNL     1     111.769 123.837 135.711  0.00  0.00    +0.000 OA
ATOM     14  C   UNL     1     111.297 125.241 137.692  0.00  0.00    +0.000 A 
ATOM     15  C   UNL     1     111.001 125.458 136.954  0.00  0.00    +0.000 A 
ATOM     16  C   UNL     1     111.751 124.556 137.771  0.00  0.00    +0.000 A 
ATOM     17  C   UNL     1     111.159 124.989 136.292  0.00  0.00    +0.000 A 
ATOM     18  C   UNL     1     111.908 124.088 137.110  0.00  0.00    +0.000 A 
ATOM     19  C   UNL     1     111.612 124.304 136.371  0.00  0.00    +0.000 A 
ENDBRANCH  11  14
ENDBRANCH   9  10
ENDBRANCH   7   9
BRANCH   2  20
ATOM     20  O   UNL     1     113.971 128.479 140.671  0.00  0.00    +0.000 OA
BRANCH  20  29
ATOM     21  O   UNL     1     113.116 129.298 141.472  0.00  0.00    +0.000 OA
ATOM     22  O   UNL     1     113.214 131.425 141.951  0.00  0.00    +0.000 OA
ATOM     23  O   UNL     1     114.545 131.260 140.990  0.00  0.00    +0.000 OA
ATOM     24  O   UNL     1     114.923 129.787 140.350  0.00  0.00    +0.000 OA
ATOM     25  C   UNL     1     113.404 130.689 141.631  0.00  0.00    +0.000 C 
ATOM     26  C   UNL     1     114.069 130.606 141.151  0.00  0.00    +0.000 C 
ATOM     27  C   UNL     1     112.928 130.034 141.791  0.00  0.00    +0.000 C 
ATOM     28  C   UNL     1     114.258 129.870 140.831  0.00  0.00    +0.000 C 
ATOM     29  C   UNL     1     113.782 129.216 140.991  0.00  0.00    +0.000 C 
BRANCH  27  31
ATOM     30  O   UNL     1     112.178 129.646 142.945  0.00  0.00    +0.000 OA
ATOM     31  C   UNL     1     112.261 130.117 142.272  0.00  0.00    +0.000 C 
ENDBRANCH  27  31
ENDBRANCH  20  29
ENDBRANCH   2  20
TORSDOF 6
ENDMDL
MODEL 6
REMARK VINA RESULT:      -8.6      3.464      6.019
REMARK  Name = 12303943
REMARK  6 active torsions:
REMARK  status: ('A' for Active; 'I' for Inactive)
REMARK    1  A    between atoms: O_4  and  C_15
REMARK    2  A    between atoms: O_4  and  C_17
REMARK    3  A    between atoms: C_13  and  C_16
REMARK    4  A    between atoms: C_22  and  C_23
REMARK    5  A    between atoms: C_23  and  C_24
REMARK    6  A    between atoms: C_25  and  C_26
REMARK                            x       y       z     vdW  Elec       q    Type
REMARK                         _______ _______ _______ _____ _____    ______ ____
ROOT
ATOM      1  O   UNL     1     111.574 126.379 139.904  0.00  0.00    +0.000 OA
ATOM      2  C   UNL     1     112.661 125.768 138.113  0.00  0.00    +0.000 A 
ATOM      3  C   UNL     1     112.048 125.872 138.655  0.00  0.00    +0.000 A 
ATOM      4  C   UNL     1     113.412 126.064 138.277  0.00  0.00    +0.000 A 
ATOM      5  C   UNL     1     112.187 126.274 139.362  0.00  0.00    +0.000 A 
ATOM      6  C   UNL     1     113.551 126.466 138.984  0.00  0.00    +0.000 A 
ATOM      7  C   UNL     1     112.939 126.572 139.527  0.00  0.00    +0.000 A 
ENDROOT
BRANCH   7   9
ATOM      8  O   UNL     1     112.973 126.587 140.955  0.00  0.00    +0.000 OA
ATOM      9  C   UNL     1     113.078 126.973 140.234  0.00  0.00    +0.000 C 
BRANCH   9  10
ATOM     10  C   UNL     1     113.321 127.761 140.219  0.00  0.00    +0.000 C 
ATOM     11  C   UNL     1     113.517 128.145 140.922  0.00  0.00    +0.000 C 
BRANCH  11  14
ATOM     12  O   UNL     1     113.011 130.903 141.478  0.00  0.00    +0.000 OA
ATOM     13  O   UNL     1     114.491 131.298 140.865  0.00  0.00    +0.000 OA
ATOM     14  C   UNL     1     113.761 128.934 140.908  0.00  0.00    +0.000 A 
ATOM     15  C   UNL     1     113.264 129.524 141.200  0.00  0.00    +0.000 A 
ATOM     16  C   UNL     1     114.501 129.131 140.602  0.00  0.00    +0.000 A 
ATOM     17  C   UNL     1     113.508 130.313 141.186  0.00  0.00    +0.000 A 
ATOM     18  C   UNL     1     114.744 129.919 140.588  0.00  0.00    +0.000 A 
ATOM     19  C   UNL     1     114.248 130.510 140.879  0.00  0.00    +0.000 A 
ENDBRANCH  11  14
ENDBRANCH   9  10
ENDBRANCH   7   9
BRANCH   2  20
ATOM     20  O   UNL     1     112.522 125.366 137.406  0.00  0.00    +0.000 OA
BRANCH  20  29
ATOM     21  O   UNL     1     112.192 126.515 136.623  0.00  0.00    +0.000 OA
ATOM     22  O   UNL     1     110.728 126.784 135.027  0.00  0.00    +0.000 OA
ATOM     23  O   UNL     1     110.491 125.195 135.403  0.00  0.00    +0.000 OA
ATOM     24  O   UNL     1     111.388 124.486 136.592  0.00  0.00    +0.000 OA
ATOM     25  C   UNL     1     111.176 126.429 135.622  0.00  0.00    +0.000 C 
ATOM     26  C   UNL     1     111.058 125.635 135.810  0.00  0.00    +0.000 C 
ATOM     27  C   UNL     1     111.743 126.869 136.028  0.00  0.00    +0.000 C 
ATOM     28  C   UNL     1     111.506 125.281 136.404  0.00  0.00    +0.000 C 
ATOM     29  C   UNL     1     112.073 125.721 136.811  0.00  0.00    +0.000 C 
BRANCH  27  31
ATOM     30  O   UNL     1     112.626 127.949 135.715  0.00  0.00    +0.000 OA
ATOM     31  C   UNL     1     111.862 127.664 135.840  0.00  0.00    +0.000 C 
ENDBRANCH  27  31
ENDBRANCH  20  29
ENDBRANCH   2  20
TORSDOF 6
ENDMDL
MODEL 7
REMARK VINA RESULT:      -8.6      1.730      2.938
REMARK  Name = 12303943
REMARK  6 active torsions:
REMARK  status: ('A' for Active; 'I' for Inactive)
REMARK    1  A    between atoms: O_4  and  C_15
REMARK    2  A    between atoms: O_4  and  C_17
REMARK    3  A    between atoms: C_13  and  C_16
REMARK    4  A    between atoms: C_22  and  C_23
REMARK    5  A    between atoms: C_23  and  C_24
REMARK    6  A    between atoms: C_25  and  C_26
REMARK                            x       y       z     vdW  Elec       q    Type
REMARK                         _______ _______ _______ _____ _____    ______ ____
ROOT
ATOM      1  O   UNL     1     112.806 128.749 134.774  0.00  0.00    +0.000 OA
ATOM      2  C   UNL     1     111.583 129.698 136.313  0.00  0.00    +0.000 A 
ATOM      3  C   UNL     1     111.880 129.490 135.572  0.00  0.00    +0.000 A 
ATOM      4  C   UNL     1     111.914 129.376 136.996  0.00  0.00    +0.000 A 
ATOM      5  C   UNL     1     112.508 128.958 135.515  0.00  0.00    +0.000 A 
ATOM      6  C   UNL     1     112.543 128.845 136.939  0.00  0.00    +0.000 A 
ATOM      7  C   UNL     1     112.840 128.636 136.198  0.00  0.00    +0.000 A 
ENDROOT
BRANCH   7   9
ATOM      8  O   UNL     1     114.201 128.362 135.861  0.00  0.00    +0.000 OA
ATOM      9  C   UNL     1     113.469 128.105 136.141  0.00  0.00    +0.000 C 
BRANCH   9  10
ATOM     10  C   UNL     1     113.365 127.318 136.363  0.00  0.00    +0.000 C 
ATOM     11  C   UNL     1     113.994 126.787 136.307  0.00  0.00    +0.000 C 
BRANCH  11  14
ATOM     12  O   UNL     1     114.925 124.460 137.680  0.00  0.00    +0.000 OA
ATOM     13  O   UNL     1     113.580 123.636 137.196  0.00  0.00    +0.000 OA
ATOM     14  C   UNL     1     113.890 125.998 136.529  0.00  0.00    +0.000 A 
ATOM     15  C   UNL     1     114.459 125.623 136.993  0.00  0.00    +0.000 A 
ATOM     16  C   UNL     1     113.217 125.586 136.287  0.00  0.00    +0.000 A 
ATOM     17  C   UNL     1     114.356 124.835 137.216  0.00  0.00    +0.000 A 
ATOM     18  C   UNL     1     113.114 124.799 136.509  0.00  0.00    +0.000 A 
ATOM     19  C   UNL     1     113.683 124.423 136.974  0.00  0.00    +0.000 A 
ENDBRANCH  11  14
ENDBRANCH   9  10
ENDBRANCH   7   9
BRANCH   2  20
ATOM     20  O   UNL     1     110.954 130.229 136.371  0.00  0.00    +0.000 OA
BRANCH  20  29
ATOM     21  O   UNL     1     109.954 129.209 136.412  0.00  0.00    +0.000 OA
ATOM     22  O   UNL     1     107.876 129.217 135.744  0.00  0.00    +0.000 OA
ATOM     23  O   UNL     1     108.337 130.751 135.348  0.00  0.00    +0.000 OA
ATOM     24  O   UNL     1     109.876 131.257 135.662  0.00  0.00    +0.000 OA
ATOM     25  C   UNL     1     108.646 129.471 135.900  0.00  0.00    +0.000 C 
ATOM     26  C   UNL     1     108.876 130.237 135.703  0.00  0.00    +0.000 C 
ATOM     27  C   UNL     1     109.185 128.957 136.255  0.00  0.00    +0.000 C 
ATOM     28  C   UNL     1     109.645 130.490 135.859  0.00  0.00    +0.000 C 
ATOM     29  C   UNL     1     110.184 129.976 136.214  0.00  0.00    +0.000 C 
BRANCH  27  31
ATOM     30  O   UNL     1     109.015 127.928 137.233  0.00  0.00    +0.000 OA
ATOM     31  C   UNL     1     108.955 128.189 136.453  0.00  0.00    +0.000 C 
ENDBRANCH  27  31
ENDBRANCH  20  29
ENDBRANCH   2  20
TORSDOF 6
ENDMDL
MODEL 8
REMARK VINA RESULT:      -8.5      1.537      6.043
REMARK  Name = 12303943
REMARK  6 active torsions:
REMARK  status: ('A' for Active; 'I' for Inactive)
REMARK    1  A    between atoms: O_4  and  C_15
REMARK    2  A    between atoms: O_4  and  C_17
REMARK    3  A    between atoms: C_13  and  C_16
REMARK    4  A    between atoms: C_22  and  C_23
REMARK    5  A    between atoms: C_23  and  C_24
REMARK    6  A    between atoms: C_25  and  C_26
REMARK                            x       y       z     vdW  Elec       q    Type
REMARK                         _______ _______ _______ _____ _____    ______ ____
ROOT
ATOM      1  O   UNL     1     111.688 129.395 134.808  0.00  0.00    +0.000 OA
ATOM      2  C   UNL     1     110.947 127.415 135.350  0.00  0.00    +0.000 A 
ATOM      3  C   UNL     1     111.392 128.008 134.990  0.00  0.00    +0.000 A 
ATOM      4  C   UNL     1     110.355 127.612 135.889  0.00  0.00    +0.000 A 
ATOM      5  C   UNL     1     111.244 128.800 135.168  0.00  0.00    +0.000 A 
ATOM      6  C   UNL     1     110.207 128.404 136.067  0.00  0.00    +0.000 A 
ATOM      7  C   UNL     1     110.651 128.998 135.707  0.00  0.00    +0.000 A 
ENDROOT
BRANCH   7   9
ATOM      8  O   UNL     1     111.029 130.210 136.362  0.00  0.00    +0.000 OA
ATOM      9  C   UNL     1     110.503 129.790 135.885  0.00  0.00    +0.000 C 
BRANCH   9  10
ATOM     10  C   UNL     1     109.830 130.161 135.587  0.00  0.00    +0.000 C 
ATOM     11  C   UNL     1     109.587 130.886 135.896  0.00  0.00    +0.000 C 
BRANCH  11  14
ATOM     12  O   UNL     1     106.794 131.463 136.078  0.00  0.00    +0.000 OA
ATOM     13  O   UNL     1     106.892 132.370 134.703  0.00  0.00    +0.000 OA
ATOM     14  C   UNL     1     108.913 131.257 135.598  0.00  0.00    +0.000 A 
ATOM     15  C   UNL     1     108.190 131.174 135.987  0.00  0.00    +0.000 A 
ATOM     16  C   UNL     1     108.962 131.711 134.910  0.00  0.00    +0.000 A 
ATOM     17  C   UNL     1     107.516 131.546 135.688  0.00  0.00    +0.000 A 
ATOM     18  C   UNL     1     108.288 132.082 134.613  0.00  0.00    +0.000 A 
ATOM     19  C   UNL     1     107.565 132.000 135.001  0.00  0.00    +0.000 A 
ENDBRANCH  11  14
ENDBRANCH   9  10
ENDBRANCH   7   9
BRANCH   2  20
ATOM     20  O   UNL     1     111.095 126.623 135.172  0.00  0.00    +0.000 OA
BRANCH  20  29
ATOM     21  O   UNL     1     112.199 126.454 136.064  0.00  0.00    +0.000 OA
ATOM     22  O   UNL     1     112.801 124.747 137.284  0.00  0.00    +0.000 OA
ATOM     23  O   UNL     1     111.447 124.147 136.556  0.00  0.00    +0.000 OA
ATOM     24  O   UNL     1     110.594 125.085 135.500  0.00  0.00    +0.000 OA
ATOM     25  C   UNL     1     112.374 125.215 136.756  0.00  0.00    +0.000 C 
ATOM     26  C   UNL     1     111.698 124.916 136.392  0.00  0.00    +0.000 C 
ATOM     27  C   UNL     1     112.625 125.984 136.592  0.00  0.00    +0.000 C 
ATOM     28  C   UNL     1     111.271 125.385 135.864  0.00  0.00    +0.000 C 
ATOM     29  C   UNL     1     111.522 126.153 135.700  0.00  0.00    +0.000 C 
BRANCH  27  31
ATOM     30  O   UNL     1     113.937 126.542 136.497  0.00  0.00    +0.000 OA
ATOM     31  C   UNL     1     113.302 126.284 136.956  0.00  0.00    +0.000 C 
ENDBRANCH  27  31
ENDBRANCH  20  29
ENDBRANCH   2  20
TORSDOF 6
ENDMDL
MODEL 9
REMARK VINA RESULT:      -8.5      3.692      5.245
REMARK  Name = 12303943
REMARK  6 active torsions:
REMARK  status: ('A' for Active; 'I' for Inactive)
REMARK    1  A    between atoms: O_4  and  C_15
REMARK    2  A    between atoms: O_4  and  C_17
REMARK    3  A    between atoms: C_13  and  C_16
REMARK    4  A    between atoms: C_22  and  C_23
REMARK    5  A    between atoms: C_23  and  C_24
REMARK    6  A    between atoms: C_25  and  C_26
REMARK                            x       y       z     vdW  Elec       q    Type
REMARK                         _______ _______ _______ _____ _____    ______ ____
ROOT
ATOM      1  O   UNL     1     112.910 128.449 138.018  0.00  0.00    +0.000 OA
ATOM      2  C   UNL     1     113.098 127.124 139.743  0.00  0.00    +0.000 A 
ATOM      3  C   UNL     1     113.029 127.812 139.292  0.00  0.00    +0.000 A 
ATOM      4  C   UNL     1     113.116 126.388 139.372  0.00  0.00    +0.000 A 
ATOM      5  C   UNL     1     112.979 127.763 138.470  0.00  0.00    +0.000 A 
ATOM      6  C   UNL     1     113.066 126.339 138.550  0.00  0.00    +0.000 A 
ATOM      7  C   UNL     1     112.997 127.025 138.099  0.00  0.00    +0.000 A 
ENDROOT
BRANCH   7   9
ATOM      8  O   UNL     1     113.604 127.159 136.812  0.00  0.00    +0.000 OA
ATOM      9  C   UNL     1     112.947 126.976 137.277  0.00  0.00    +0.000 C 
BRANCH   9  10
ATOM     10  C   UNL     1     112.241 126.743 136.920  0.00  0.00    +0.000 C 
ATOM     11  C   UNL     1     112.227 126.560 136.116  0.00  0.00    +0.000 C 
BRANCH  11  14
ATOM     12  O   UNL     1     109.871 127.210 134.634  0.00  0.00    +0.000 OA
ATOM     13  O   UNL     1     109.401 125.629 134.687  0.00  0.00    +0.000 OA
ATOM     14  C   UNL     1     111.520 126.327 135.758  0.00  0.00    +0.000 A 
ATOM     15  C   UNL     1     111.049 126.885 135.375  0.00  0.00    +0.000 A 
ATOM     16  C   UNL     1     111.285 125.536 135.785  0.00  0.00    +0.000 A 
ATOM     17  C   UNL     1     110.342 126.652 135.017  0.00  0.00    +0.000 A 
ATOM     18  C   UNL     1     110.579 125.304 135.428  0.00  0.00    +0.000 A 
ATOM     19  C   UNL     1     110.107 125.862 135.044  0.00  0.00    +0.000 A 
ENDBRANCH  11  14
ENDBRANCH   9  10
ENDBRANCH   7   9
BRANCH   2  20
ATOM     20  O   UNL     1     113.148 127.174 140.565  0.00  0.00    +0.000 OA
BRANCH  20  29
ATOM     21  O   UNL     1     111.802 126.836 140.906  0.00  0.00    +0.000 OA
ATOM     22  O   UNL     1     110.429 127.723 142.353  0.00  0.00    +0.000 OA
ATOM     23  O   UNL     1     111.762 128.672 142.565  0.00  0.00    +0.000 OA
ATOM     24  O   UNL     1     113.121 128.398 141.671  0.00  0.00    +0.000 OA
ATOM     25  C   UNL     1     111.109 127.586 141.906  0.00  0.00    +0.000 C 
ATOM     26  C   UNL     1     111.775 128.060 142.012  0.00  0.00    +0.000 C 
ATOM     27  C   UNL     1     111.123 126.974 141.353  0.00  0.00    +0.000 C 
ATOM     28  C   UNL     1     112.454 127.923 141.565  0.00  0.00    +0.000 C 
ATOM     29  C   UNL     1     112.468 127.311 141.012  0.00  0.00    +0.000 C 
BRANCH  27  31
ATOM     30  O   UNL     1     110.513 125.681 141.339  0.00  0.00    +0.000 OA
ATOM     31  C   UNL     1     110.456 126.499 141.247  0.00  0.00    +0.000 C 
ENDBRANCH  27  31
ENDBRANCH  20  29
ENDBRANCH   2  20
TORSDOF 6
ENDMDL
MODEL 10
REMARK VINA RESULT:      -8.4      1.843      6.091
REMARK  Name = 12303943
REMARK  6 active torsions:
REMARK  status: ('A' for Active; 'I' for Inactive)
REMARK    1  A    between atoms: O_4  and  C_15
REMARK    2  A    between atoms: O_4  and  C_17
REMARK    3  A    between atoms: C_13  and  C_16
REMARK    4  A    between atoms: C_22  and  C_23
REMARK    5  A    between atoms: C_23  and  C_24
REMARK    6  A    between atoms: C_25  and  C_26
REMARK                            x       y       z     vdW  Elec       q    Type
REMARK                         _______ _______ _______ _____ _____    ______ ____
ROOT
ATOM      1  O   UNL     1     112.684 129.116 138.009  0.00  0.00    +0.000 OA
ATOM      2  C   UNL     1     113.207 127.277 136.955  0.00  0.00    +0.000 A 
ATOM      3  C   UNL     1     113.127 127.834 137.559  0.00  0.00    +0.000 A 
ATOM      4  C   UNL     1     112.926 127.445 136.199  0.00  0.00    +0.000 A 
ATOM      5  C   UNL     1     112.765 128.559 137.406  0.00  0.00    +0.000 A 
ATOM      6  C   UNL     1     112.563 128.170 136.045  0.00  0.00    +0.000 A 
ATOM      7  C   UNL     1     112.483 128.728 136.648  0.00  0.00    +0.000 A 
ENDROOT
BRANCH   7   9
ATOM      8  O   UNL     1     112.581 130.132 136.404  0.00  0.00    +0.000 OA
ATOM      9  C   UNL     1     112.121 129.453 136.495  0.00  0.00    +0.000 C 
BRANCH   9  10
ATOM     10  C   UNL     1     111.300 129.499 136.432  0.00  0.00    +0.000 C 
ATOM     11  C   UNL     1     110.943 130.204 136.198  0.00  0.00    +0.000 C 
BRANCH  11  14
ATOM     12  O   UNL     1     108.403 130.814 137.357  0.00  0.00    +0.000 OA
ATOM     13  O   UNL     1     107.657 130.389 135.948  0.00  0.00    +0.000 OA
ATOM     14  C   UNL     1     110.121 130.251 136.135  0.00  0.00    +0.000 A 
ATOM     15  C   UNL     1     109.673 130.509 136.778  0.00  0.00    +0.000 A 
ATOM     16  C   UNL     1     109.748 130.038 135.430  0.00  0.00    +0.000 A 
ATOM     17  C   UNL     1     108.851 130.555 136.715  0.00  0.00    +0.000 A 
ATOM     18  C   UNL     1     108.928 130.084 135.368  0.00  0.00    +0.000 A 
ATOM     19  C   UNL     1     108.478 130.343 136.010  0.00  0.00    +0.000 A 
ENDBRANCH  11  14
ENDBRANCH   9  10
ENDBRANCH   7   9
BRANCH   2  20
ATOM     20  O   UNL     1     113.569 126.552 137.109  0.00  0.00    +0.000 OA
BRANCH  20  29
ATOM     21  O   UNL     1     112.401 125.860 137.556  0.00  0.00    +0.000 OA
ATOM     22  O   UNL     1     111.756 123.798 137.246  0.00  0.00    +0.000 OA
ATOM     23  O   UNL     1     113.185 123.805 136.421  0.00  0.00    +0.000 OA
ATOM     24  O   UNL     1     114.091 125.182 136.353  0.00  0.00    +0.000 OA
ATOM     25  C   UNL     1     112.209 124.487 137.211  0.00  0.00    +0.000 C 
ATOM     26  C   UNL     1     112.923 124.490 136.799  0.00  0.00    +0.000 C 
ATOM     27  C   UNL     1     111.948 125.172 137.589  0.00  0.00    +0.000 C 
ATOM     28  C   UNL     1     113.377 125.178 136.765  0.00  0.00    +0.000 C 
ATOM     29  C   UNL     1     113.115 125.863 137.143  0.00  0.00    +0.000 C 
BRANCH  27  31
ATOM     30  O   UNL     1     111.224 125.322 138.813  0.00  0.00    +0.000 OA
ATOM     31  C   UNL     1     111.233 125.169 138.002  0.00  0.00    +0.000 C 
ENDBRANCH  27  31
ENDBRANCH  20  29
ENDBRANCH   2  20
TORSDOF 6
ENDMDL
