MODEL 1
REMARK VINA RESULT:      -9.8      0.000      0.000
REMARK  Name = 
REMARK  4 active torsions:
REMARK  status: ('A' for Active; 'I' for Inactive)
REMARK    1  A    between atoms: C_10  and  C_13
REMARK    2  A    between atoms: C_11  and  O_22
REMARK    3  A    between atoms: O_22  and  C_23
REMARK    4  A    between atoms: C_27  and  C_31
REMARK                            x       y       z     vdW  Elec       q    Type
REMARK                         _______ _______ _______ _____ _____    ______ ____
ROOT
ATOM      1  C   UNL     1     109.208 129.037 136.696  0.00  0.00    +0.000 A 
ATOM      2  C   UNL     1     109.996 128.440 136.847  0.00  0.00    +0.000 A 
ATOM      3  C   UNL     1     110.442 127.996 136.070  0.00  0.00    +0.000 A 
ATOM      4  C   UNL     1     110.101 128.148 135.143  0.00  0.00    +0.000 A 
ATOM      5  C   UNL     1     109.312 128.744 134.992  0.00  0.00    +0.000 A 
ATOM      6  C   UNL     1     108.866 129.189 135.768  0.00  0.00    +0.000 A 
ATOM      7  O   UNL     1     108.078 129.785 135.617  0.00  0.00    +0.000 OA
ENDROOT
BRANCH   3  17
ATOM      8  C   UNL     1     111.747 124.846 136.683  0.00  0.00    +0.000 A 
ATOM      9  C   UNL     1     112.535 124.249 136.834  0.00  0.00    +0.000 A 
ATOM     10  C   UNL     1     113.459 124.631 136.829  0.00  0.00    +0.000 A 
ATOM     11  C   UNL     1     113.595 125.610 136.674  0.00  0.00    +0.000 A 
ATOM     12  C   UNL     1     112.807 126.206 136.523  0.00  0.00    +0.000 A 
ATOM     13  C   UNL     1     111.883 125.824 136.527  0.00  0.00    +0.000 A 
ATOM     14  O   UNL     1     111.095 126.421 136.376  0.00  0.00    +0.000 OA
ATOM     15  C   UNL     1     112.943 127.185 136.367  0.00  0.00    +0.000 C 
ATOM     16  C   UNL     1     112.155 127.781 136.216  0.00  0.00    +0.000 C 
ATOM     17  C   UNL     1     111.231 127.399 136.221  0.00  0.00    +0.000 C 
ATOM     18  O   UNL     1     113.867 127.566 136.363  0.00  0.00    +0.000 OA
ATOM     19  O   UNL     1     114.520 125.992 136.669  0.00  0.00    +0.000 OA
ATOM     20  O   UNL     1     112.399 123.271 136.989  0.00  0.00    +0.000 OA
ATOM     21  O   UNL     1     112.291 128.760 136.061  0.00  0.00    +0.000 OA
ENDBRANCH   3  17
BRANCH   1  22
ATOM     22  O   UNL     1     108.761 129.481 137.472  0.00  0.00    +0.000 OA
BRANCH  22  23
ATOM     23  C   UNL     1     109.174 130.290 137.891  0.00  0.00    +0.000 C 
ATOM     24  C   UNL     1     109.048 130.468 138.867  0.00  0.00    +0.000 C 
ATOM     25  C   UNL     1     109.461 131.277 139.285  0.00  0.00    +0.000 C 
ATOM     26  O   UNL     1     109.713 130.922 137.333  0.00  0.00    +0.000 OA
ATOM     27  C   UNL     1     110.126 131.731 137.751  0.00  0.00    +0.000 C 
ATOM     28  C   UNL     1     110.000 131.908 138.727  0.00  0.00    +0.000 C 
ATOM     29  O   UNL     1     109.336 131.454 140.261  0.00  0.00    +0.000 OA
ATOM     30  O   UNL     1     110.413 132.717 139.145  0.00  0.00    +0.000 OA
ATOM     31  O   UNL     1     108.510 129.837 139.424  0.00  0.00    +0.000 OA
BRANCH  27  32
ATOM     32  C   UNL     1     110.665 132.362 137.193  0.00  0.00    +0.000 C 
ATOM     33  O   UNL     1     111.634 132.181 137.029  0.00  0.00    +0.000 OA
ATOM     34  O   UNL     1     110.233 133.174 136.800  0.00  0.00    +0.000 OA
ENDBRANCH  27  32
ENDBRANCH  22  23
ENDBRANCH   1  22
TORSDOF 4
ENDMDL
MODEL 2
REMARK VINA RESULT:      -9.7      1.576      2.760
REMARK  Name = 
REMARK  4 active torsions:
REMARK  status: ('A' for Active; 'I' for Inactive)
REMARK    1  A    between atoms: C_10  and  C_13
REMARK    2  A    between atoms: C_11  and  O_22
REMARK    3  A    between atoms: O_22  and  C_23
REMARK    4  A    between atoms: C_27  and  C_31
REMARK                            x       y       z     vdW  Elec       q    Type
REMARK                         _______ _______ _______ _____ _____    ______ ____
ROOT
ATOM      1  C   UNL     1     112.833 130.307 137.204  0.00  0.00    +0.000 A 
ATOM      2  C   UNL     1     112.367 129.442 137.019  0.00  0.00    +0.000 A 
ATOM      3  C   UNL     1     112.674 128.860 136.265  0.00  0.00    +0.000 A 
ATOM      4  C   UNL     1     113.447 129.144 135.697  0.00  0.00    +0.000 A 
ATOM      5  C   UNL     1     113.912 130.009 135.883  0.00  0.00    +0.000 A 
ATOM      6  C   UNL     1     113.606 130.591 136.636  0.00  0.00    +0.000 A 
ATOM      7  O   UNL     1     114.071 131.456 136.821  0.00  0.00    +0.000 OA
ENDROOT
BRANCH   3  17
ATOM      8  C   UNL     1     112.463 125.425 136.652  0.00  0.00    +0.000 A 
ATOM      9  C   UNL     1     111.998 124.559 136.466  0.00  0.00    +0.000 A 
ATOM     10  C   UNL     1     111.172 124.547 135.902  0.00  0.00    +0.000 A 
ATOM     11  C   UNL     1     110.812 125.399 135.524  0.00  0.00    +0.000 A 
ATOM     12  C   UNL     1     111.277 126.264 135.709  0.00  0.00    +0.000 A 
ATOM     13  C   UNL     1     112.103 126.277 136.273  0.00  0.00    +0.000 A 
ATOM     14  O   UNL     1     112.569 127.143 136.459  0.00  0.00    +0.000 OA
ATOM     15  C   UNL     1     110.917 127.117 135.331  0.00  0.00    +0.000 C 
ATOM     16  C   UNL     1     111.383 127.982 135.516  0.00  0.00    +0.000 C 
ATOM     17  C   UNL     1     112.209 127.995 136.080  0.00  0.00    +0.000 C 
ATOM     18  O   UNL     1     110.092 127.104 134.767  0.00  0.00    +0.000 OA
ATOM     19  O   UNL     1     109.986 125.386 134.960  0.00  0.00    +0.000 OA
ATOM     20  O   UNL     1     112.358 123.707 136.845  0.00  0.00    +0.000 OA
ATOM     21  O   UNL     1     111.023 128.835 135.137  0.00  0.00    +0.000 OA
ENDBRANCH   3  17
BRANCH   1  22
ATOM     22  O   UNL     1     112.526 130.889 137.957  0.00  0.00    +0.000 OA
BRANCH  22  23
ATOM     23  C   UNL     1     111.594 131.252 137.961  0.00  0.00    +0.000 C 
ATOM     24  C   UNL     1     111.060 131.251 138.807  0.00  0.00    +0.000 C 
ATOM     25  C   UNL     1     110.129 131.614 138.810  0.00  0.00    +0.000 C 
ATOM     26  O   UNL     1     111.196 131.617 137.119  0.00  0.00    +0.000 OA
ATOM     27  C   UNL     1     110.265 131.980 137.123  0.00  0.00    +0.000 C 
ATOM     28  C   UNL     1     109.731 131.978 137.968  0.00  0.00    +0.000 C 
ATOM     29  O   UNL     1     109.595 131.613 139.656  0.00  0.00    +0.000 OA
ATOM     30  O   UNL     1     108.799 132.342 137.972  0.00  0.00    +0.000 OA
ATOM     31  O   UNL     1     111.458 130.886 139.648  0.00  0.00    +0.000 OA
BRANCH  27  32
ATOM     32  C   UNL     1     109.867 132.344 136.281  0.00  0.00    +0.000 C 
ATOM     33  O   UNL     1     109.339 131.747 135.678  0.00  0.00    +0.000 OA
ATOM     34  O   UNL     1     109.997 133.307 136.042  0.00  0.00    +0.000 OA
ENDBRANCH  27  32
ENDBRANCH  22  23
ENDBRANCH   1  22
TORSDOF 4
ENDMDL
MODEL 3
REMARK VINA RESULT:      -9.5      1.808      5.975
REMARK  Name = 
REMARK  4 active torsions:
REMARK  status: ('A' for Active; 'I' for Inactive)
REMARK    1  A    between atoms: C_10  and  C_13
REMARK    2  A    between atoms: C_11  and  O_22
REMARK    3  A    between atoms: O_22  and  C_23
REMARK    4  A    between atoms: C_27  and  C_31
REMARK                            x       y       z     vdW  Elec       q    Type
REMARK                         _______ _______ _______ _____ _____    ______ ____
ROOT
ATOM      1  C   UNL     1     113.335 128.371 136.657  0.00  0.00    +0.000 A 
ATOM      2  C   UNL     1     112.550 128.941 136.901  0.00  0.00    +0.000 A 
ATOM      3  C   UNL     1     112.257 129.677 136.290  0.00  0.00    +0.000 A 
ATOM      4  C   UNL     1     112.750 129.844 135.436  0.00  0.00    +0.000 A 
ATOM      5  C   UNL     1     113.535 129.274 135.192  0.00  0.00    +0.000 A 
ATOM      6  C   UNL     1     113.827 128.538 135.802  0.00  0.00    +0.000 A 
ATOM      7  O   UNL     1     114.612 127.969 135.559  0.00  0.00    +0.000 OA
ENDROOT
BRANCH   3  17
ATOM      8  C   UNL     1     108.897 130.452 135.964  0.00  0.00    +0.000 A 
ATOM      9  C   UNL     1     108.112 131.022 136.208  0.00  0.00    +0.000 A 
ATOM     10  C   UNL     1     108.222 131.773 136.859  0.00  0.00    +0.000 A 
ATOM     11  C   UNL     1     109.117 131.955 137.266  0.00  0.00    +0.000 A 
ATOM     12  C   UNL     1     109.902 131.385 137.022  0.00  0.00    +0.000 A 
ATOM     13  C   UNL     1     109.792 130.634 136.371  0.00  0.00    +0.000 A 
ATOM     14  O   UNL     1     110.577 130.065 136.127  0.00  0.00    +0.000 OA
ATOM     15  C   UNL     1     110.798 131.567 137.429  0.00  0.00    +0.000 C 
ATOM     16  C   UNL     1     111.583 130.997 137.185  0.00  0.00    +0.000 C 
ATOM     17  C   UNL     1     111.472 130.246 136.534  0.00  0.00    +0.000 C 
ATOM     18  O   UNL     1     110.908 132.318 138.080  0.00  0.00    +0.000 OA
ATOM     19  O   UNL     1     109.228 132.706 137.917  0.00  0.00    +0.000 OA
ATOM     20  O   UNL     1     107.217 130.840 135.801  0.00  0.00    +0.000 OA
ATOM     21  O   UNL     1     112.478 131.179 137.592  0.00  0.00    +0.000 OA
ENDBRANCH   3  17
BRANCH   1  22
ATOM     22  O   UNL     1     113.627 127.635 137.267  0.00  0.00    +0.000 OA
BRANCH  22  23
ATOM     23  C   UNL     1     112.958 126.981 137.618  0.00  0.00    +0.000 C 
ATOM     24  C   UNL     1     112.869 126.836 138.603  0.00  0.00    +0.000 C 
ATOM     25  C   UNL     1     112.199 126.181 138.954  0.00  0.00    +0.000 C 
ATOM     26  O   UNL     1     112.377 126.471 136.983  0.00  0.00    +0.000 OA
ATOM     27  C   UNL     1     111.707 125.816 137.334  0.00  0.00    +0.000 C 
ATOM     28  C   UNL     1     111.618 125.672 138.319  0.00  0.00    +0.000 C 
ATOM     29  O   UNL     1     112.110 126.037 139.939  0.00  0.00    +0.000 OA
ATOM     30  O   UNL     1     110.949 125.017 138.670  0.00  0.00    +0.000 OA
ATOM     31  O   UNL     1     113.450 127.345 139.238  0.00  0.00    +0.000 OA
BRANCH  27  32
ATOM     32  C   UNL     1     111.126 125.307 136.699  0.00  0.00    +0.000 C 
ATOM     33  O   UNL     1     111.393 124.389 136.404  0.00  0.00    +0.000 OA
ATOM     34  O   UNL     1     110.279 125.714 136.360  0.00  0.00    +0.000 OA
ENDBRANCH  27  32
ENDBRANCH  22  23
ENDBRANCH   1  22
TORSDOF 4
ENDMDL
MODEL 4
REMARK VINA RESULT:      -9.5      2.194      5.575
REMARK  Name = 
REMARK  4 active torsions:
REMARK  status: ('A' for Active; 'I' for Inactive)
REMARK    1  A    between atoms: C_10  and  C_13
REMARK    2  A    between atoms: C_11  and  O_22
REMARK    3  A    between atoms: O_22  and  C_23
REMARK    4  A    between atoms: C_27  and  C_31
REMARK                            x       y       z     vdW  Elec       q    Type
REMARK                         _______ _______ _______ _____ _____    ______ ____
ROOT
ATOM      1  C   UNL     1     110.248 126.324 136.763  0.00  0.00    +0.000 A 
ATOM      2  C   UNL     1     109.980 127.284 136.839  0.00  0.00    +0.000 A 
ATOM      3  C   UNL     1     109.978 127.868 136.027  0.00  0.00    +0.000 A 
ATOM      4  C   UNL     1     110.244 127.491 135.139  0.00  0.00    +0.000 A 
ATOM      5  C   UNL     1     110.511 126.530 135.064  0.00  0.00    +0.000 A 
ATOM      6  C   UNL     1     110.514 125.947 135.876  0.00  0.00    +0.000 A 
ATOM      7  O   UNL     1     110.781 124.986 135.801  0.00  0.00    +0.000 OA
ENDROOT
BRANCH   3  17
ATOM      8  C   UNL     1     110.811 131.176 136.626  0.00  0.00    +0.000 A 
ATOM      9  C   UNL     1     110.543 132.137 136.701  0.00  0.00    +0.000 A 
ATOM     10  C   UNL     1     109.591 132.404 136.552  0.00  0.00    +0.000 A 
ATOM     11  C   UNL     1     108.907 131.710 136.328  0.00  0.00    +0.000 A 
ATOM     12  C   UNL     1     109.175 130.749 136.252  0.00  0.00    +0.000 A 
ATOM     13  C   UNL     1     110.127 130.483 136.402  0.00  0.00    +0.000 A 
ATOM     14  O   UNL     1     110.395 129.522 136.326  0.00  0.00    +0.000 OA
ATOM     15  C   UNL     1     108.490 130.056 136.028  0.00  0.00    +0.000 C 
ATOM     16  C   UNL     1     108.758 129.095 135.953  0.00  0.00    +0.000 C 
ATOM     17  C   UNL     1     109.710 128.828 136.102  0.00  0.00    +0.000 C 
ATOM     18  O   UNL     1     107.538 130.323 135.879  0.00  0.00    +0.000 OA
ATOM     19  O   UNL     1     107.955 131.977 136.178  0.00  0.00    +0.000 OA
ATOM     20  O   UNL     1     111.228 132.831 136.926  0.00  0.00    +0.000 OA
ATOM     21  O   UNL     1     108.074 128.402 135.728  0.00  0.00    +0.000 OA
ENDBRANCH   3  17
BRANCH   1  22
ATOM     22  O   UNL     1     110.250 125.740 137.576  0.00  0.00    +0.000 OA
BRANCH  22  23
ATOM     23  C   UNL     1     110.798 125.995 138.373  0.00  0.00    +0.000 C 
ATOM     24  C   UNL     1     110.397 125.956 139.288  0.00  0.00    +0.000 C 
ATOM     25  C   UNL     1     110.945 126.210 140.085  0.00  0.00    +0.000 C 
ATOM     26  O   UNL     1     111.747 126.288 138.254  0.00  0.00    +0.000 OA
ATOM     27  C   UNL     1     112.294 126.543 139.051  0.00  0.00    +0.000 C 
ATOM     28  C   UNL     1     111.893 126.504 139.967  0.00  0.00    +0.000 C 
ATOM     29  O   UNL     1     110.544 126.172 141.000  0.00  0.00    +0.000 OA
ATOM     30  O   UNL     1     112.441 126.758 140.764  0.00  0.00    +0.000 OA
ATOM     31  O   UNL     1     109.448 125.663 139.406  0.00  0.00    +0.000 OA
BRANCH  27  32
ATOM     32  C   UNL     1     113.243 126.836 138.933  0.00  0.00    +0.000 C 
ATOM     33  O   UNL     1     113.981 126.161 138.952  0.00  0.00    +0.000 OA
ATOM     34  O   UNL     1     113.454 127.804 138.796  0.00  0.00    +0.000 OA
ENDBRANCH  27  32
ENDBRANCH  22  23
ENDBRANCH   1  22
TORSDOF 4
ENDMDL
MODEL 5
REMARK VINA RESULT:      -9.5      1.705      2.913
REMARK  Name = 
REMARK  4 active torsions:
REMARK  status: ('A' for Active; 'I' for Inactive)
REMARK    1  A    between atoms: C_10  and  C_13
REMARK    2  A    between atoms: C_11  and  O_22
REMARK    3  A    between atoms: O_22  and  C_23
REMARK    4  A    between atoms: C_27  and  C_31
REMARK                            x       y       z     vdW  Elec       q    Type
REMARK                         _______ _______ _______ _____ _____    ______ ____
ROOT
ATOM      1  C   UNL     1     112.264 130.898 137.244  0.00  0.00    +0.000 A 
ATOM      2  C   UNL     1     112.003 129.932 137.236  0.00  0.00    +0.000 A 
ATOM      3  C   UNL     1     112.605 129.255 136.814  0.00  0.00    +0.000 A 
ATOM      4  C   UNL     1     113.469 129.543 136.400  0.00  0.00    +0.000 A 
ATOM      5  C   UNL     1     113.730 130.508 136.409  0.00  0.00    +0.000 A 
ATOM      6  C   UNL     1     113.128 131.185 136.831  0.00  0.00    +0.000 A 
ATOM      7  O   UNL     1     113.389 132.150 136.839  0.00  0.00    +0.000 OA
ENDROOT
BRANCH   3  17
ATOM      8  C   UNL     1     110.897 126.622 135.347  0.00  0.00    +0.000 A 
ATOM      9  C   UNL     1     110.636 125.657 135.338  0.00  0.00    +0.000 A 
ATOM     10  C   UNL     1     110.967 125.043 136.055  0.00  0.00    +0.000 A 
ATOM     11  C   UNL     1     111.559 125.394 136.780  0.00  0.00    +0.000 A 
ATOM     12  C   UNL     1     111.821 126.360 136.788  0.00  0.00    +0.000 A 
ATOM     13  C   UNL     1     111.490 126.974 136.072  0.00  0.00    +0.000 A 
ATOM     14  O   UNL     1     111.751 127.939 136.080  0.00  0.00    +0.000 OA
ATOM     15  C   UNL     1     112.413 126.711 137.513  0.00  0.00    +0.000 C 
ATOM     16  C   UNL     1     112.674 127.676 137.522  0.00  0.00    +0.000 C 
ATOM     17  C   UNL     1     112.343 128.290 136.805  0.00  0.00    +0.000 C 
ATOM     18  O   UNL     1     112.744 126.097 138.230  0.00  0.00    +0.000 OA
ATOM     19  O   UNL     1     111.890 124.780 137.496  0.00  0.00    +0.000 OA
ATOM     20  O   UNL     1     110.043 125.306 134.613  0.00  0.00    +0.000 OA
ATOM     21  O   UNL     1     113.267 128.027 138.247  0.00  0.00    +0.000 OA
ENDBRANCH   3  17
BRANCH   1  22
ATOM     22  O   UNL     1     111.662 131.575 137.667  0.00  0.00    +0.000 OA
BRANCH  22  23
ATOM     23  C   UNL     1     110.690 131.594 137.433  0.00  0.00    +0.000 C 
ATOM     24  C   UNL     1     110.010 131.800 138.137  0.00  0.00    +0.000 C 
ATOM     25  C   UNL     1     109.038 131.819 137.904  0.00  0.00    +0.000 C 
ATOM     26  O   UNL     1     110.397 131.409 136.495  0.00  0.00    +0.000 OA
ATOM     27  C   UNL     1     109.425 131.428 136.261  0.00  0.00    +0.000 C 
ATOM     28  C   UNL     1     108.745 131.633 136.966  0.00  0.00    +0.000 C 
ATOM     29  O   UNL     1     108.358 132.024 138.608  0.00  0.00    +0.000 OA
ATOM     30  O   UNL     1     107.773 131.653 136.732  0.00  0.00    +0.000 OA
ATOM     31  O   UNL     1     110.303 131.986 139.075  0.00  0.00    +0.000 OA
BRANCH  27  32
ATOM     32  C   UNL     1     109.132 131.242 135.323  0.00  0.00    +0.000 C 
ATOM     33  O   UNL     1     108.982 131.999 134.687  0.00  0.00    +0.000 OA
ATOM     34  O   UNL     1     108.991 130.299 135.021  0.00  0.00    +0.000 OA
ENDBRANCH  27  32
ENDBRANCH  22  23
ENDBRANCH   1  22
TORSDOF 4
ENDMDL
MODEL 6
REMARK VINA RESULT:      -9.4      2.243      3.770
REMARK  Name = 
REMARK  4 active torsions:
REMARK  status: ('A' for Active; 'I' for Inactive)
REMARK    1  A    between atoms: C_10  and  C_13
REMARK    2  A    between atoms: C_11  and  O_22
REMARK    3  A    between atoms: O_22  and  C_23
REMARK    4  A    between atoms: C_27  and  C_31
REMARK                            x       y       z     vdW  Elec       q    Type
REMARK                         _______ _______ _______ _____ _____    ______ ____
ROOT
ATOM      1  C   UNL     1     109.197 130.784 139.620  0.00  0.00    +0.000 A 
ATOM      2  C   UNL     1     109.951 130.166 139.399  0.00  0.00    +0.000 A 
ATOM      3  C   UNL     1     109.977 129.247 139.793  0.00  0.00    +0.000 A 
ATOM      4  C   UNL     1     109.247 128.946 140.408  0.00  0.00    +0.000 A 
ATOM      5  C   UNL     1     108.493 129.564 140.629  0.00  0.00    +0.000 A 
ATOM      6  C   UNL     1     108.468 130.483 140.235  0.00  0.00    +0.000 A 
ATOM      7  O   UNL     1     107.714 131.101 140.456  0.00  0.00    +0.000 OA
ENDROOT
BRANCH   3  17
ATOM      8  C   UNL     1     113.073 127.898 140.561  0.00  0.00    +0.000 A 
ATOM      9  C   UNL     1     113.827 127.280 140.340  0.00  0.00    +0.000 A 
ATOM     10  C   UNL     1     113.788 126.718 139.514  0.00  0.00    +0.000 A 
ATOM     11  C   UNL     1     112.994 126.774 138.909  0.00  0.00    +0.000 A 
ATOM     12  C   UNL     1     112.239 127.392 139.130  0.00  0.00    +0.000 A 
ATOM     13  C   UNL     1     112.279 127.954 139.956  0.00  0.00    +0.000 A 
ATOM     14  O   UNL     1     111.525 128.572 140.177  0.00  0.00    +0.000 OA
ATOM     15  C   UNL     1     111.445 127.449 138.524  0.00  0.00    +0.000 C 
ATOM     16  C   UNL     1     110.691 128.067 138.746  0.00  0.00    +0.000 C 
ATOM     17  C   UNL     1     110.731 128.629 139.572  0.00  0.00    +0.000 C 
ATOM     18  O   UNL     1     111.406 126.887 137.698  0.00  0.00    +0.000 OA
ATOM     19  O   UNL     1     112.954 126.212 138.082  0.00  0.00    +0.000 OA
ATOM     20  O   UNL     1     114.621 127.223 140.946  0.00  0.00    +0.000 OA
ATOM     21  O   UNL     1     109.897 128.123 138.140  0.00  0.00    +0.000 OA
ENDBRANCH   3  17
BRANCH   1  22
ATOM     22  O   UNL     1     109.172 131.703 139.227  0.00  0.00    +0.000 OA
BRANCH  22  23
ATOM     23  C   UNL     1     109.165 131.821 138.234  0.00  0.00    +0.000 C 
ATOM     24  C   UNL     1     109.711 132.546 137.813  0.00  0.00    +0.000 C 
ATOM     25  C   UNL     1     109.704 132.665 136.820  0.00  0.00    +0.000 C 
ATOM     26  O   UNL     1     108.613 131.215 137.661  0.00  0.00    +0.000 OA
ATOM     27  C   UNL     1     108.607 131.334 136.669  0.00  0.00    +0.000 C 
ATOM     28  C   UNL     1     109.152 132.058 136.248  0.00  0.00    +0.000 C 
ATOM     29  O   UNL     1     110.250 133.389 136.400  0.00  0.00    +0.000 OA
ATOM     30  O   UNL     1     109.146 132.177 135.255  0.00  0.00    +0.000 OA
ATOM     31  O   UNL     1     110.263 133.152 138.386  0.00  0.00    +0.000 OA
BRANCH  27  32
ATOM     32  C   UNL     1     108.054 130.727 136.096  0.00  0.00    +0.000 C 
ATOM     33  O   UNL     1     107.114 130.977 135.866  0.00  0.00    +0.000 OA
ATOM     34  O   UNL     1     108.443 129.872 135.754  0.00  0.00    +0.000 OA
ENDBRANCH  27  32
ENDBRANCH  22  23
ENDBRANCH   1  22
TORSDOF 4
ENDMDL
MODEL 7
REMARK VINA RESULT:      -9.4      1.642      6.104
REMARK  Name = 
REMARK  4 active torsions:
REMARK  status: ('A' for Active; 'I' for Inactive)
REMARK    1  A    between atoms: C_10  and  C_13
REMARK    2  A    between atoms: C_11  and  O_22
REMARK    3  A    between atoms: O_22  and  C_23
REMARK    4  A    between atoms: C_27  and  C_31
REMARK                            x       y       z     vdW  Elec       q    Type
REMARK                         _______ _______ _______ _____ _____    ______ ____
ROOT
ATOM      1  C   UNL     1     113.256 128.227 136.324  0.00  0.00    +0.000 A 
ATOM      2  C   UNL     1     112.345 128.618 136.459  0.00  0.00    +0.000 A 
ATOM      3  C   UNL     1     111.999 129.309 135.825  0.00  0.00    +0.000 A 
ATOM      4  C   UNL     1     112.563 129.611 135.057  0.00  0.00    +0.000 A 
ATOM      5  C   UNL     1     113.474 129.220 134.922  0.00  0.00    +0.000 A 
ATOM      6  C   UNL     1     113.820 128.529 135.556  0.00  0.00    +0.000 A 
ATOM      7  O   UNL     1     114.731 128.138 135.421  0.00  0.00    +0.000 OA
ENDROOT
BRANCH   3  17
ATOM      8  C   UNL     1     109.928 131.645 137.328  0.00  0.00    +0.000 A 
ATOM      9  C   UNL     1     109.018 132.035 137.463  0.00  0.00    +0.000 A 
ATOM     10  C   UNL     1     108.231 131.648 136.981  0.00  0.00    +0.000 A 
ATOM     11  C   UNL     1     108.356 130.871 136.365  0.00  0.00    +0.000 A 
ATOM     12  C   UNL     1     109.267 130.481 136.230  0.00  0.00    +0.000 A 
ATOM     13  C   UNL     1     110.053 130.868 136.712  0.00  0.00    +0.000 A 
ATOM     14  O   UNL     1     110.964 130.477 136.577  0.00  0.00    +0.000 OA
ATOM     15  C   UNL     1     109.391 129.703 135.613  0.00  0.00    +0.000 C 
ATOM     16  C   UNL     1     110.302 129.313 135.478  0.00  0.00    +0.000 C 
ATOM     17  C   UNL     1     111.088 129.700 135.960  0.00  0.00    +0.000 C 
ATOM     18  O   UNL     1     108.605 129.316 135.132  0.00  0.00    +0.000 OA
ATOM     19  O   UNL     1     107.570 130.484 135.883  0.00  0.00    +0.000 OA
ATOM     20  O   UNL     1     108.893 132.813 138.080  0.00  0.00    +0.000 OA
ATOM     21  O   UNL     1     110.426 128.535 134.862  0.00  0.00    +0.000 OA
ENDBRANCH   3  17
BRANCH   1  22
ATOM     22  O   UNL     1     113.602 127.536 136.958  0.00  0.00    +0.000 OA
BRANCH  22  23
ATOM     23  C   UNL     1     112.992 126.821 137.300  0.00  0.00    +0.000 C 
ATOM     24  C   UNL     1     112.862 126.705 138.285  0.00  0.00    +0.000 C 
ATOM     25  C   UNL     1     112.252 125.990 138.627  0.00  0.00    +0.000 C 
ATOM     26  O   UNL     1     112.513 126.223 136.658  0.00  0.00    +0.000 OA
ATOM     27  C   UNL     1     111.903 125.508 137.001  0.00  0.00    +0.000 C 
ATOM     28  C   UNL     1     111.772 125.392 137.985  0.00  0.00    +0.000 C 
ATOM     29  O   UNL     1     112.121 125.873 139.612  0.00  0.00    +0.000 OA
ATOM     30  O   UNL     1     111.162 124.677 138.327  0.00  0.00    +0.000 OA
ATOM     31  O   UNL     1     113.341 127.303 138.927  0.00  0.00    +0.000 OA
BRANCH  27  32
ATOM     32  C   UNL     1     111.424 124.910 136.358  0.00  0.00    +0.000 C 
ATOM     33  O   UNL     1     110.608 125.239 135.882  0.00  0.00    +0.000 OA
ATOM     34  O   UNL     1     111.760 123.983 136.192  0.00  0.00    +0.000 OA
ENDBRANCH  27  32
ENDBRANCH  22  23
ENDBRANCH   1  22
TORSDOF 4
ENDMDL
MODEL 8
REMARK VINA RESULT:      -9.4      2.707      5.649
REMARK  Name = 
REMARK  4 active torsions:
REMARK  status: ('A' for Active; 'I' for Inactive)
REMARK    1  A    between atoms: C_10  and  C_13
REMARK    2  A    between atoms: C_11  and  O_22
REMARK    3  A    between atoms: O_22  and  C_23
REMARK    4  A    between atoms: C_27  and  C_31
REMARK                            x       y       z     vdW  Elec       q    Type
REMARK                         _______ _______ _______ _____ _____    ______ ____
ROOT
ATOM      1  C   UNL     1     112.717 127.322 137.244  0.00  0.00    +0.000 A 
ATOM      2  C   UNL     1     112.122 128.126 137.222  0.00  0.00    +0.000 A 
ATOM      3  C   UNL     1     112.299 128.862 136.568  0.00  0.00    +0.000 A 
ATOM      4  C   UNL     1     113.071 128.793 135.936  0.00  0.00    +0.000 A 
ATOM      5  C   UNL     1     113.665 127.990 135.957  0.00  0.00    +0.000 A 
ATOM      6  C   UNL     1     113.488 127.254 136.611  0.00  0.00    +0.000 A 
ATOM      7  O   UNL     1     114.083 126.450 136.633  0.00  0.00    +0.000 OA
ENDROOT
BRANCH   3  17
ATOM      8  C   UNL     1     109.559 130.533 135.264  0.00  0.00    +0.000 A 
ATOM      9  C   UNL     1     108.965 131.336 135.243  0.00  0.00    +0.000 A 
ATOM     10  C   UNL     1     109.146 132.109 135.852  0.00  0.00    +0.000 A 
ATOM     11  C   UNL     1     109.921 132.077 136.482  0.00  0.00    +0.000 A 
ATOM     12  C   UNL     1     110.516 131.273 136.504  0.00  0.00    +0.000 A 
ATOM     13  C   UNL     1     110.335 130.501 135.895  0.00  0.00    +0.000 A 
ATOM     14  O   UNL     1     110.929 129.697 135.916  0.00  0.00    +0.000 OA
ATOM     15  C   UNL     1     111.291 131.242 137.134  0.00  0.00    +0.000 C 
ATOM     16  C   UNL     1     111.886 130.438 137.156  0.00  0.00    +0.000 C 
ATOM     17  C   UNL     1     111.705 129.666 136.547  0.00  0.00    +0.000 C 
ATOM     18  O   UNL     1     111.472 132.014 137.744  0.00  0.00    +0.000 OA
ATOM     19  O   UNL     1     110.102 132.849 137.092  0.00  0.00    +0.000 OA
ATOM     20  O   UNL     1     108.190 131.368 134.612  0.00  0.00    +0.000 OA
ATOM     21  O   UNL     1     112.661 130.406 137.787  0.00  0.00    +0.000 OA
ENDBRANCH   3  17
BRANCH   1  22
ATOM     22  O   UNL     1     112.540 126.587 137.898  0.00  0.00    +0.000 OA
BRANCH  22  23
ATOM     23  C   UNL     1     112.564 126.774 138.880  0.00  0.00    +0.000 C 
ATOM     24  C   UNL     1     111.892 126.350 139.487  0.00  0.00    +0.000 C 
ATOM     25  C   UNL     1     111.917 126.538 140.469  0.00  0.00    +0.000 C 
ATOM     26  O   UNL     1     113.261 127.385 139.255  0.00  0.00    +0.000 OA
ATOM     27  C   UNL     1     113.286 127.573 140.237  0.00  0.00    +0.000 C 
ATOM     28  C   UNL     1     112.614 127.149 140.844  0.00  0.00    +0.000 C 
ATOM     29  O   UNL     1     111.244 126.114 141.076  0.00  0.00    +0.000 OA
ATOM     30  O   UNL     1     112.638 127.336 141.826  0.00  0.00    +0.000 OA
ATOM     31  O   UNL     1     111.195 125.739 139.112  0.00  0.00    +0.000 OA
BRANCH  27  32
ATOM     32  C   UNL     1     113.983 128.184 140.612  0.00  0.00    +0.000 C 
ATOM     33  O   UNL     1     113.817 129.169 140.647  0.00  0.00    +0.000 OA
ATOM     34  O   UNL     1     114.846 127.809 140.952  0.00  0.00    +0.000 OA
ENDBRANCH  27  32
ENDBRANCH  22  23
ENDBRANCH   1  22
TORSDOF 4
ENDMDL
MODEL 9
REMARK VINA RESULT:      -9.4      2.490      3.365
REMARK  Name = 
REMARK  4 active torsions:
REMARK  status: ('A' for Active; 'I' for Inactive)
REMARK    1  A    between atoms: C_10  and  C_13
REMARK    2  A    between atoms: C_11  and  O_22
REMARK    3  A    between atoms: O_22  and  C_23
REMARK    4  A    between atoms: C_27  and  C_31
REMARK                            x       y       z     vdW  Elec       q    Type
REMARK                         _______ _______ _______ _____ _____    ______ ____
ROOT
ATOM      1  C   UNL     1     112.296 130.221 137.526  0.00  0.00    +0.000 A 
ATOM      2  C   UNL     1     112.262 129.224 137.466  0.00  0.00    +0.000 A 
ATOM      3  C   UNL     1     112.727 128.751 136.717  0.00  0.00    +0.000 A 
ATOM      4  C   UNL     1     113.227 129.276 136.029  0.00  0.00    +0.000 A 
ATOM      5  C   UNL     1     113.261 130.274 136.089  0.00  0.00    +0.000 A 
ATOM      6  C   UNL     1     112.796 130.746 136.838  0.00  0.00    +0.000 A 
ATOM      7  O   UNL     1     112.831 131.744 136.898  0.00  0.00    +0.000 OA
ENDROOT
BRANCH   3  17
ATOM      8  C   UNL     1     114.182 125.659 137.286  0.00  0.00    +0.000 A 
ATOM      9  C   UNL     1     114.147 124.662 137.226  0.00  0.00    +0.000 A 
ATOM     10  C   UNL     1     113.350 124.212 136.821  0.00  0.00    +0.000 A 
ATOM     11  C   UNL     1     112.588 124.761 136.477  0.00  0.00    +0.000 A 
ATOM     12  C   UNL     1     112.623 125.758 136.537  0.00  0.00    +0.000 A 
ATOM     13  C   UNL     1     113.420 126.208 136.942  0.00  0.00    +0.000 A 
ATOM     14  O   UNL     1     113.454 127.205 137.002  0.00  0.00    +0.000 OA
ATOM     15  C   UNL     1     111.861 126.307 136.193  0.00  0.00    +0.000 C 
ATOM     16  C   UNL     1     111.895 127.304 136.253  0.00  0.00    +0.000 C 
ATOM     17  C   UNL     1     112.692 127.754 136.657  0.00  0.00    +0.000 C 
ATOM     18  O   UNL     1     111.064 125.858 135.789  0.00  0.00    +0.000 OA
ATOM     19  O   UNL     1     111.791 124.312 136.073  0.00  0.00    +0.000 OA
ATOM     20  O   UNL     1     114.909 124.113 137.570  0.00  0.00    +0.000 OA
ATOM     21  O   UNL     1     111.133 127.853 135.909  0.00  0.00    +0.000 OA
ENDBRANCH   3  17
BRANCH   1  22
ATOM     22  O   UNL     1     111.831 130.693 138.275  0.00  0.00    +0.000 OA
BRANCH  22  23
ATOM     23  C   UNL     1     112.077 130.492 139.223  0.00  0.00    +0.000 C 
ATOM     24  C   UNL     1     111.364 130.270 139.888  0.00  0.00    +0.000 C 
ATOM     25  C   UNL     1     111.610 130.068 140.836  0.00  0.00    +0.000 C 
ATOM     26  O   UNL     1     113.036 130.511 139.506  0.00  0.00    +0.000 OA
ATOM     27  C   UNL     1     113.282 130.309 140.454  0.00  0.00    +0.000 C 
ATOM     28  C   UNL     1     112.569 130.088 141.119  0.00  0.00    +0.000 C 
ATOM     29  O   UNL     1     110.897 129.847 141.501  0.00  0.00    +0.000 OA
ATOM     30  O   UNL     1     112.815 129.886 142.067  0.00  0.00    +0.000 OA
ATOM     31  O   UNL     1     110.405 130.251 139.605  0.00  0.00    +0.000 OA
BRANCH  27  32
ATOM     32  C   UNL     1     114.241 130.328 140.736  0.00  0.00    +0.000 C 
ATOM     33  O   UNL     1     114.649 131.181 141.062  0.00  0.00    +0.000 OA
ATOM     34  O   UNL     1     114.792 129.495 140.693  0.00  0.00    +0.000 OA
ENDBRANCH  27  32
ENDBRANCH  22  23
ENDBRANCH   1  22
TORSDOF 4
ENDMDL
MODEL 10
REMARK VINA RESULT:      -9.4      2.991      5.186
REMARK  Name = 
REMARK  4 active torsions:
REMARK  status: ('A' for Active; 'I' for Inactive)
REMARK    1  A    between atoms: C_10  and  C_13
REMARK    2  A    between atoms: C_11  and  O_22
REMARK    3  A    between atoms: O_22  and  C_23
REMARK    4  A    between atoms: C_27  and  C_31
REMARK                            x       y       z     vdW  Elec       q    Type
REMARK                         _______ _______ _______ _____ _____    ______ ____
ROOT
ATOM      1  C   UNL     1     112.771 126.557 138.749  0.00  0.00    +0.000 A 
ATOM      2  C   UNL     1     111.987 127.059 138.382  0.00  0.00    +0.000 A 
ATOM      3  C   UNL     1     111.899 127.197 137.395  0.00  0.00    +0.000 A 
ATOM      4  C   UNL     1     112.594 126.833 136.776  0.00  0.00    +0.000 A 
ATOM      5  C   UNL     1     113.378 126.331 137.142  0.00  0.00    +0.000 A 
ATOM      6  C   UNL     1     113.466 126.193 138.129  0.00  0.00    +0.000 A 
ATOM      7  O   UNL     1     114.249 125.691 138.495  0.00  0.00    +0.000 OA
ENDROOT
BRANCH   3  17
ATOM      8  C   UNL     1     110.485 130.159 136.290  0.00  0.00    +0.000 A 
ATOM      9  C   UNL     1     109.702 130.661 135.923  0.00  0.00    +0.000 A 
ATOM     10  C   UNL     1     108.842 130.184 135.743  0.00  0.00    +0.000 A 
ATOM     11  C   UNL     1     108.766 129.204 135.929  0.00  0.00    +0.000 A 
ATOM     12  C   UNL     1     109.549 128.702 136.296  0.00  0.00    +0.000 A 
ATOM     13  C   UNL     1     110.409 129.180 136.476  0.00  0.00    +0.000 A 
ATOM     14  O   UNL     1     111.192 128.678 136.843  0.00  0.00    +0.000 OA
ATOM     15  C   UNL     1     109.473 127.723 136.482  0.00  0.00    +0.000 C 
ATOM     16  C   UNL     1     110.256 127.221 136.848  0.00  0.00    +0.000 C 
ATOM     17  C   UNL     1     111.116 127.698 137.029  0.00  0.00    +0.000 C 
ATOM     18  O   UNL     1     108.613 127.245 136.301  0.00  0.00    +0.000 OA
ATOM     19  O   UNL     1     107.906 128.726 135.749  0.00  0.00    +0.000 OA
ATOM     20  O   UNL     1     109.778 131.641 135.737  0.00  0.00    +0.000 OA
ATOM     21  O   UNL     1     110.180 126.241 137.035  0.00  0.00    +0.000 OA
ENDBRANCH   3  17
BRANCH   1  22
ATOM     22  O   UNL     1     112.859 126.419 139.735  0.00  0.00    +0.000 OA
BRANCH  22  23
ATOM     23  C   UNL     1     112.756 127.193 140.359  0.00  0.00    +0.000 C 
ATOM     24  C   UNL     1     112.180 127.106 141.173  0.00  0.00    +0.000 C 
ATOM     25  C   UNL     1     112.077 127.880 141.797  0.00  0.00    +0.000 C 
ATOM     26  O   UNL     1     113.228 128.054 140.171  0.00  0.00    +0.000 OA
ATOM     27  C   UNL     1     113.125 128.828 140.795  0.00  0.00    +0.000 C 
ATOM     28  C   UNL     1     112.549 128.741 141.608  0.00  0.00    +0.000 C 
ATOM     29  O   UNL     1     111.501 127.794 142.610  0.00  0.00    +0.000 OA
ATOM     30  O   UNL     1     112.446 129.516 142.233  0.00  0.00    +0.000 OA
ATOM     31  O   UNL     1     111.708 126.245 141.361  0.00  0.00    +0.000 OA
BRANCH  27  32
ATOM     32  C   UNL     1     113.597 129.689 140.606  0.00  0.00    +0.000 C 
ATOM     33  O   UNL     1     114.543 129.816 140.905  0.00  0.00    +0.000 OA
ATOM     34  O   UNL     1     113.124 130.423 140.119  0.00  0.00    +0.000 OA
ENDBRANCH  27  32
ENDBRANCH  22  23
ENDBRANCH   1  22
TORSDOF 4
ENDMDL
