MODEL 1
REMARK VINA RESULT:      -7.2      0.000      0.000
REMARK  Name = 12303287
REMARK  7 active torsions:
REMARK  status: ('A' for Active; 'I' for Inactive)
REMARK    1  A    between atoms: O_2  and  C_15
REMARK    2  A    between atoms: O_3  and  C_16
REMARK    3  A    between atoms: O_5  and  C_17
REMARK    4  A    between atoms: O_6  and  C_18
REMARK    5  A    between atoms: O_7  and  C_21
REMARK    6  A    between atoms: O_8  and  C_23
REMARK    7  A    between atoms: C_9  and  C_13
REMARK                            x       y       z     vdW  Elec       q    Type
REMARK                         _______ _______ _______ _____ _____    ______ ____
ROOT
ATOM      1  O   UNL     1     103.041 131.717 141.240  0.00  0.00    +0.000 OA
ATOM      2  O   UNL     1     100.731 131.885 142.263  0.00  0.00    +0.000 OA
ATOM      3  C   UNL     1     102.630 130.998 141.474  0.00  0.00    +0.000 C 
ATOM      4  C   UNL     1     101.847 131.052 141.821  0.00  0.00    +0.000 C 
ATOM      5  C   UNL     1     101.909 132.530 141.690  0.00  0.00    +0.000 A 
ATOM      6  C   UNL     1     102.662 132.478 141.356  0.00  0.00    +0.000 A 
ATOM      7  C   UNL     1     101.483 131.824 141.930  0.00  0.00    +0.000 C 
ATOM      8  C   UNL     1     101.556 133.268 141.796  0.00  0.00    +0.000 A 
ATOM      9  C   UNL     1     103.061 133.164 141.129  0.00  0.00    +0.000 A 
ATOM     10  C   UNL     1     101.954 133.954 141.570  0.00  0.00    +0.000 A 
ATOM     11  C   UNL     1     102.707 133.902 141.236  0.00  0.00    +0.000 A 
ENDROOT
BRANCH   3  12
ATOM     12  C   UNL     1     102.986 130.262 141.366  0.00  0.00    +0.000 A 
ATOM     13  C   UNL     1     102.804 129.809 140.701  0.00  0.00    +0.000 A 
ATOM     14  C   UNL     1     103.525 129.978 141.922  0.00  0.00    +0.000 A 
ATOM     15  C   UNL     1     103.159 129.073 140.592  0.00  0.00    +0.000 A 
ATOM     16  C   UNL     1     103.881 129.242 141.814  0.00  0.00    +0.000 A 
ATOM     17  C   UNL     1     103.698 128.789 141.149  0.00  0.00    +0.000 A 
BRANCH  15  18
ATOM     18  O   UNL     1     102.977 128.620 139.926  0.00  0.00    +0.000 OA
ATOM     19  C   UNL     1     102.423 128.895 139.380  0.00  0.00    +0.000 C 
ENDBRANCH  15  18
BRANCH  17  20
ATOM     20  O   UNL     1     104.054 128.053 141.041  0.00  0.00    +0.000 OA
ATOM     21  C   UNL     1     104.672 127.817 141.533  0.00  0.00    +0.000 C 
ENDBRANCH  17  20
ENDBRANCH   3  12
BRANCH   8  22
ATOM     22  O   UNL     1     100.803 133.320 142.130  0.00  0.00    +0.000 OA
ATOM     23  C   UNL     1     100.711 133.286 142.949  0.00  0.00    +0.000 C 
ENDBRANCH   8  22
BRANCH   9  24
ATOM     24  O   UNL     1     103.813 133.113 140.796  0.00  0.00    +0.000 OA
ATOM     25  C   UNL     1     103.907 133.168 139.979  0.00  0.00    +0.000 C 
ENDBRANCH   9  24
BRANCH  10  26
ATOM     26  O   UNL     1     101.601 134.692 141.677  0.00  0.00    +0.000 OA
ATOM     27  C   UNL     1     101.135 135.017 141.079  0.00  0.00    +0.000 C 
ENDBRANCH  10  26
BRANCH  11  28
ATOM     28  O   UNL     1     103.107 134.588 141.010  0.00  0.00    +0.000 OA
ATOM     29  C   UNL     1     103.605 134.970 141.544  0.00  0.00    +0.000 C 
ENDBRANCH  11  28
TORSDOF 7
ENDMDL
MODEL 2
REMARK VINA RESULT:      -7.2      9.925     11.855
REMARK  Name = 12303287
REMARK  7 active torsions:
REMARK  status: ('A' for Active; 'I' for Inactive)
REMARK    1  A    between atoms: O_2  and  C_15
REMARK    2  A    between atoms: O_3  and  C_16
REMARK    3  A    between atoms: O_5  and  C_17
REMARK    4  A    between atoms: O_6  and  C_18
REMARK    5  A    between atoms: O_7  and  C_21
REMARK    6  A    between atoms: O_8  and  C_23
REMARK    7  A    between atoms: C_9  and  C_13
REMARK                            x       y       z     vdW  Elec       q    Type
REMARK                         _______ _______ _______ _____ _____    ______ ____
ROOT
ATOM      1  O   UNL     1     112.304 127.502 137.066  0.00  0.00    +0.000 OA
ATOM      2  O   UNL     1     114.322 128.211 135.710  0.00  0.00    +0.000 OA
ATOM      3  C   UNL     1     112.718 126.918 136.589  0.00  0.00    +0.000 C 
ATOM      4  C   UNL     1     113.403 127.156 136.128  0.00  0.00    +0.000 C 
ATOM      5  C   UNL     1     113.239 128.543 136.632  0.00  0.00    +0.000 A 
ATOM      6  C   UNL     1     112.582 128.315 137.075  0.00  0.00    +0.000 A 
ATOM      7  C   UNL     1     113.665 127.974 136.150  0.00  0.00    +0.000 C 
ATOM      8  C   UNL     1     113.496 129.327 136.649  0.00  0.00    +0.000 A 
ATOM      9  C   UNL     1     112.180 128.871 137.534  0.00  0.00    +0.000 A 
ATOM     10  C   UNL     1     113.095 129.883 137.108  0.00  0.00    +0.000 A 
ATOM     11  C   UNL     1     112.437 129.655 137.550  0.00  0.00    +0.000 A 
ENDROOT
BRANCH   3  12
ATOM     12  C   UNL     1     112.459 126.135 136.574  0.00  0.00    +0.000 A 
ATOM     13  C   UNL     1     111.795 125.929 136.130  0.00  0.00    +0.000 A 
ATOM     14  C   UNL     1     112.863 125.558 137.003  0.00  0.00    +0.000 A 
ATOM     15  C   UNL     1     111.535 125.146 136.115  0.00  0.00    +0.000 A 
ATOM     16  C   UNL     1     112.604 124.775 136.988  0.00  0.00    +0.000 A 
ATOM     17  C   UNL     1     111.940 124.569 136.544  0.00  0.00    +0.000 A 
BRANCH  15  18
ATOM     18  O   UNL     1     110.871 124.940 135.671  0.00  0.00    +0.000 OA
ATOM     19  C   UNL     1     110.424 125.526 135.301  0.00  0.00    +0.000 C 
ENDBRANCH  15  18
BRANCH  17  20
ATOM     20  O   UNL     1     111.681 123.786 136.529  0.00  0.00    +0.000 OA
ATOM     21  C   UNL     1     112.074 123.213 136.973  0.00  0.00    +0.000 C 
ENDBRANCH  17  20
ENDBRANCH   3  12
BRANCH   8  22
ATOM     22  O   UNL     1     114.154 129.555 136.206  0.00  0.00    +0.000 OA
ATOM     23  C   UNL     1     114.076 129.706 135.399  0.00  0.00    +0.000 C 
ENDBRANCH   8  22
BRANCH   9  24
ATOM     24  O   UNL     1     111.523 128.643 137.976  0.00  0.00    +0.000 OA
ATOM     25  C   UNL     1     111.599 128.500 138.785  0.00  0.00    +0.000 C 
ENDBRANCH   9  24
BRANCH  10  26
ATOM     26  O   UNL     1     113.352 130.667 137.125  0.00  0.00    +0.000 OA
ATOM     27  C   UNL     1     113.917 130.905 137.676  0.00  0.00    +0.000 C 
ENDBRANCH  10  26
BRANCH  11  28
ATOM     28  O   UNL     1     112.036 130.211 138.010  0.00  0.00    +0.000 OA
ATOM     29  C   UNL     1     111.410 130.639 137.685  0.00  0.00    +0.000 C 
ENDBRANCH  11  28
TORSDOF 7
ENDMDL
MODEL 3
REMARK VINA RESULT:      -7.2     10.841     13.132
REMARK  Name = 12303287
REMARK  7 active torsions:
REMARK  status: ('A' for Active; 'I' for Inactive)
REMARK    1  A    between atoms: O_2  and  C_15
REMARK    2  A    between atoms: O_3  and  C_16
REMARK    3  A    between atoms: O_5  and  C_17
REMARK    4  A    between atoms: O_6  and  C_18
REMARK    5  A    between atoms: O_7  and  C_21
REMARK    6  A    between atoms: O_8  and  C_23
REMARK    7  A    between atoms: C_9  and  C_13
REMARK                            x       y       z     vdW  Elec       q    Type
REMARK                         _______ _______ _______ _____ _____    ______ ____
ROOT
ATOM      1  O   UNL     1     112.809 127.827 135.942  0.00  0.00    +0.000 OA
ATOM      2  O   UNL     1     114.271 126.012 136.932  0.00  0.00    +0.000 OA
ATOM      3  C   UNL     1     113.635 127.997 136.113  0.00  0.00    +0.000 C 
ATOM      4  C   UNL     1     114.133 127.383 136.449  0.00  0.00    +0.000 C 
ATOM      5  C   UNL     1     112.973 126.456 136.432  0.00  0.00    +0.000 A 
ATOM      6  C   UNL     1     112.494 127.046 136.109  0.00  0.00    +0.000 A 
ATOM      7  C   UNL     1     113.799 126.607 136.609  0.00  0.00    +0.000 C 
ATOM      8  C   UNL     1     112.658 125.710 136.588  0.00  0.00    +0.000 A 
ATOM      9  C   UNL     1     111.701 126.889 135.943  0.00  0.00    +0.000 A 
ATOM     10  C   UNL     1     111.866 125.553 136.422  0.00  0.00    +0.000 A 
ATOM     11  C   UNL     1     111.387 126.143 136.099  0.00  0.00    +0.000 A 
ENDROOT
BRANCH   3  12
ATOM     12  C   UNL     1     113.946 128.745 135.956  0.00  0.00    +0.000 A 
ATOM     13  C   UNL     1     113.862 129.352 136.509  0.00  0.00    +0.000 A 
ATOM     14  C   UNL     1     114.342 128.887 135.247  0.00  0.00    +0.000 A 
ATOM     15  C   UNL     1     114.173 130.099 136.353  0.00  0.00    +0.000 A 
ATOM     16  C   UNL     1     114.654 129.634 135.090  0.00  0.00    +0.000 A 
ATOM     17  C   UNL     1     114.570 130.241 135.643  0.00  0.00    +0.000 A 
BRANCH  15  18
ATOM     18  O   UNL     1     114.088 130.706 136.906  0.00  0.00    +0.000 OA
ATOM     19  C   UNL     1     113.597 130.602 137.560  0.00  0.00    +0.000 C 
ENDBRANCH  15  18
BRANCH  17  20
ATOM     20  O   UNL     1     114.881 130.988 135.486  0.00  0.00    +0.000 OA
ATOM     21  C   UNL     1     115.397 131.095 134.852  0.00  0.00    +0.000 C 
ENDBRANCH  17  20
ENDBRANCH   3  12
BRANCH   8  22
ATOM     22  O   UNL     1     113.136 125.120 136.910  0.00  0.00    +0.000 OA
ATOM     23  C   UNL     1     113.642 124.686 136.423  0.00  0.00    +0.000 C 
ENDBRANCH   8  22
BRANCH   9  24
ATOM     24  O   UNL     1     111.223 127.478 135.621  0.00  0.00    +0.000 OA
ATOM     25  C   UNL     1     110.703 127.899 136.104  0.00  0.00    +0.000 C 
ENDBRANCH   9  24
BRANCH  10  26
ATOM     26  O   UNL     1     111.551 124.806 136.578  0.00  0.00    +0.000 OA
ATOM     27  C   UNL     1     111.279 124.622 137.334  0.00  0.00    +0.000 C 
ENDBRANCH  10  26
BRANCH  11  28
ATOM     28  O   UNL     1     110.594 125.986 135.933  0.00  0.00    +0.000 OA
ATOM     29  C   UNL     1     110.379 125.692 135.193  0.00  0.00    +0.000 C 
ENDBRANCH  11  28
TORSDOF 7
ENDMDL
MODEL 4
REMARK VINA RESULT:      -7.1     11.521     13.164
REMARK  Name = 12303287
REMARK  7 active torsions:
REMARK  status: ('A' for Active; 'I' for Inactive)
REMARK    1  A    between atoms: O_2  and  C_15
REMARK    2  A    between atoms: O_3  and  C_16
REMARK    3  A    between atoms: O_5  and  C_17
REMARK    4  A    between atoms: O_6  and  C_18
REMARK    5  A    between atoms: O_7  and  C_21
REMARK    6  A    between atoms: O_8  and  C_23
REMARK    7  A    between atoms: C_9  and  C_13
REMARK                            x       y       z     vdW  Elec       q    Type
REMARK                         _______ _______ _______ _____ _____    ______ ____
ROOT
ATOM      1  O   UNL     1     113.570 127.530 136.313  0.00  0.00    +0.000 OA
ATOM      2  O   UNL     1     111.153 127.681 135.572  0.00  0.00    +0.000 OA
ATOM      3  C   UNL     1     113.276 128.266 135.980  0.00  0.00    +0.000 C 
ATOM      4  C   UNL     1     112.457 128.321 135.728  0.00  0.00    +0.000 C 
ATOM      5  C   UNL     1     112.253 126.910 136.147  0.00  0.00    +0.000 A 
ATOM      6  C   UNL     1     113.039 126.858 136.389  0.00  0.00    +0.000 A 
ATOM      7  C   UNL     1     111.942 127.638 135.812  0.00  0.00    +0.000 C 
ATOM      8  C   UNL     1     111.753 126.258 136.225  0.00  0.00    +0.000 A 
ATOM      9  C   UNL     1     113.327 126.154 136.710  0.00  0.00    +0.000 A 
ATOM     10  C   UNL     1     112.040 125.555 136.545  0.00  0.00    +0.000 A 
ATOM     11  C   UNL     1     112.827 125.502 136.787  0.00  0.00    +0.000 A 
ENDROOT
BRANCH   3  12
ATOM     12  C   UNL     1     113.778 128.917 135.904  0.00  0.00    +0.000 A 
ATOM     13  C   UNL     1     113.814 129.483 136.503  0.00  0.00    +0.000 A 
ATOM     14  C   UNL     1     114.244 129.002 135.229  0.00  0.00    +0.000 A 
ATOM     15  C   UNL     1     114.316 130.133 136.427  0.00  0.00    +0.000 A 
ATOM     16  C   UNL     1     114.746 129.652 135.152  0.00  0.00    +0.000 A 
ATOM     17  C   UNL     1     114.782 130.218 135.751  0.00  0.00    +0.000 A 
BRANCH  15  18
ATOM     18  O   UNL     1     114.352 130.699 137.027  0.00  0.00    +0.000 OA
ATOM     19  C   UNL     1     113.990 130.553 137.754  0.00  0.00    +0.000 C 
ENDBRANCH  15  18
BRANCH  17  20
ATOM     20  O   UNL     1     115.283 130.868 135.675  0.00  0.00    +0.000 OA
ATOM     21  C   UNL     1     115.709 130.981 134.978  0.00  0.00    +0.000 C 
ENDBRANCH  17  20
ENDBRANCH   3  12
BRANCH   8  22
ATOM     22  O   UNL     1     110.966 126.310 135.983  0.00  0.00    +0.000 OA
ATOM     23  C   UNL     1     110.770 126.197 135.189  0.00  0.00    +0.000 C 
ENDBRANCH   8  22
BRANCH   9  24
ATOM     24  O   UNL     1     114.113 126.102 136.952  0.00  0.00    +0.000 OA
ATOM     25  C   UNL     1     114.299 126.105 137.755  0.00  0.00    +0.000 C 
ENDBRANCH   9  24
BRANCH  10  26
ATOM     26  O   UNL     1     111.541 124.902 136.623  0.00  0.00    +0.000 OA
ATOM     27  C   UNL     1     111.135 124.775 137.329  0.00  0.00    +0.000 C 
ENDBRANCH  10  26
BRANCH  11  28
ATOM     28  O   UNL     1     113.115 124.798 137.108  0.00  0.00    +0.000 OA
ATOM     29  C   UNL     1     113.438 124.222 136.613  0.00  0.00    +0.000 C 
ENDBRANCH  11  28
TORSDOF 7
ENDMDL
MODEL 5
REMARK VINA RESULT:      -7.0      8.319      9.968
REMARK  Name = 12303287
REMARK  7 active torsions:
REMARK  status: ('A' for Active; 'I' for Inactive)
REMARK    1  A    between atoms: O_2  and  C_15
REMARK    2  A    between atoms: O_3  and  C_16
REMARK    3  A    between atoms: O_5  and  C_17
REMARK    4  A    between atoms: O_6  and  C_18
REMARK    5  A    between atoms: O_7  and  C_21
REMARK    6  A    between atoms: O_8  and  C_23
REMARK    7  A    between atoms: C_9  and  C_13
REMARK                            x       y       z     vdW  Elec       q    Type
REMARK                         _______ _______ _______ _____ _____    ______ ____
ROOT
ATOM      1  O   UNL     1     104.544 125.221 147.424  0.00  0.00    +0.000 OA
ATOM      2  O   UNL     1     103.892 123.964 145.325  0.00  0.00    +0.000 OA
ATOM      3  C   UNL     1     105.019 125.314 146.713  0.00  0.00    +0.000 C 
ATOM      4  C   UNL     1     104.800 124.889 145.999  0.00  0.00    +0.000 C 
ATOM      5  C   UNL     1     103.648 124.296 146.726  0.00  0.00    +0.000 A 
ATOM      6  C   UNL     1     103.858 124.705 147.411  0.00  0.00    +0.000 A 
ATOM      7  C   UNL     1     104.109 124.376 146.006  0.00  0.00    +0.000 C 
ATOM      8  C   UNL     1     102.987 123.803 146.727  0.00  0.00    +0.000 A 
ATOM      9  C   UNL     1     103.407 124.620 148.098  0.00  0.00    +0.000 A 
ATOM     10  C   UNL     1     102.536 123.718 147.412  0.00  0.00    +0.000 A 
ATOM     11  C   UNL     1     102.746 124.127 148.097  0.00  0.00    +0.000 A 
ENDROOT
BRANCH   3  12
ATOM     12  C   UNL     1     105.679 125.808 146.715  0.00  0.00    +0.000 A 
ATOM     13  C   UNL     1     106.409 125.519 146.969  0.00  0.00    +0.000 A 
ATOM     14  C   UNL     1     105.611 126.591 146.465  0.00  0.00    +0.000 A 
ATOM     15  C   UNL     1     107.070 126.012 146.972  0.00  0.00    +0.000 A 
ATOM     16  C   UNL     1     106.272 127.085 146.467  0.00  0.00    +0.000 A 
ATOM     17  C   UNL     1     107.002 126.796 146.721  0.00  0.00    +0.000 A 
BRANCH  15  18
ATOM     18  O   UNL     1     107.800 125.723 147.225  0.00  0.00    +0.000 OA
ATOM     19  C   UNL     1     107.835 125.159 147.826  0.00  0.00    +0.000 C 
ENDBRANCH  15  18
BRANCH  17  20
ATOM     20  O   UNL     1     107.662 127.289 146.724  0.00  0.00    +0.000 OA
ATOM     21  C   UNL     1     107.627 128.027 146.357  0.00  0.00    +0.000 C 
ENDBRANCH  17  20
ENDBRANCH   3  12
BRANCH   8  22
ATOM     22  O   UNL     1     102.776 123.394 146.042  0.00  0.00    +0.000 OA
ATOM     23  C   UNL     1     103.215 122.739 145.801  0.00  0.00    +0.000 C 
ENDBRANCH   8  22
BRANCH   9  24
ATOM     24  O   UNL     1     103.617 125.028 148.782  0.00  0.00    +0.000 OA
ATOM     25  C   UNL     1     103.219 125.721 148.988  0.00  0.00    +0.000 C 
ENDBRANCH   9  24
BRANCH  10  26
ATOM     26  O   UNL     1     101.874 123.225 147.413  0.00  0.00    +0.000 OA
ATOM     27  C   UNL     1     101.136 123.524 147.201  0.00  0.00    +0.000 C 
ENDBRANCH  10  26
BRANCH  11  28
ATOM     28  O   UNL     1     102.294 124.042 148.783  0.00  0.00    +0.000 OA
ATOM     29  C   UNL     1     102.480 123.451 149.328  0.00  0.00    +0.000 C 
ENDBRANCH  11  28
TORSDOF 7
ENDMDL
MODEL 6
REMARK VINA RESULT:      -6.8     10.300     11.803
REMARK  Name = 12303287
REMARK  7 active torsions:
REMARK  status: ('A' for Active; 'I' for Inactive)
REMARK    1  A    between atoms: O_2  and  C_15
REMARK    2  A    between atoms: O_3  and  C_16
REMARK    3  A    between atoms: O_5  and  C_17
REMARK    4  A    between atoms: O_6  and  C_18
REMARK    5  A    between atoms: O_7  and  C_21
REMARK    6  A    between atoms: O_8  and  C_23
REMARK    7  A    between atoms: C_9  and  C_13
REMARK                            x       y       z     vdW  Elec       q    Type
REMARK                         _______ _______ _______ _____ _____    ______ ____
ROOT
ATOM      1  O   UNL     1     111.981 126.792 137.724  0.00  0.00    +0.000 OA
ATOM      2  O   UNL     1     111.616 124.346 137.183  0.00  0.00    +0.000 OA
ATOM      3  C   UNL     1     112.259 126.193 138.274  0.00  0.00    +0.000 C 
ATOM      4  C   UNL     1     112.137 125.362 138.093  0.00  0.00    +0.000 C 
ATOM      5  C   UNL     1     111.466 125.754 136.827  0.00  0.00    +0.000 A 
ATOM      6  C   UNL     1     111.584 126.552 137.001  0.00  0.00    +0.000 A 
ATOM      7  C   UNL     1     111.737 125.141 137.364  0.00  0.00    +0.000 C 
ATOM      8  C   UNL     1     111.084 125.537 136.129  0.00  0.00    +0.000 A 
ATOM      9  C   UNL     1     111.319 127.132 136.477  0.00  0.00    +0.000 A 
ATOM     10  C   UNL     1     110.819 126.116 135.606  0.00  0.00    +0.000 A 
ATOM     11  C   UNL     1     110.936 126.913 135.779  0.00  0.00    +0.000 A 
ENDROOT
BRANCH   3  12
ATOM     12  C   UNL     1     112.642 126.414 138.971  0.00  0.00    +0.000 A 
ATOM     13  C   UNL     1     112.209 126.505 139.667  0.00  0.00    +0.000 A 
ATOM     14  C   UNL     1     113.456 126.544 138.972  0.00  0.00    +0.000 A 
ATOM     15  C   UNL     1     112.590 126.726 140.365  0.00  0.00    +0.000 A 
ATOM     16  C   UNL     1     113.838 126.765 139.669  0.00  0.00    +0.000 A 
ATOM     17  C   UNL     1     113.406 126.856 140.365  0.00  0.00    +0.000 A 
BRANCH  15  18
ATOM     18  O   UNL     1     112.158 126.817 141.061  0.00  0.00    +0.000 OA
ATOM     19  C   UNL     1     111.333 126.793 141.041  0.00  0.00    +0.000 C 
ENDBRANCH  15  18
BRANCH  17  20
ATOM     20  O   UNL     1     113.787 127.077 141.062  0.00  0.00    +0.000 OA
ATOM     21  C   UNL     1     114.591 127.259 141.052  0.00  0.00    +0.000 C 
ENDBRANCH  17  20
ENDBRANCH   3  12
BRANCH   8  22
ATOM     22  O   UNL     1     110.966 124.739 135.956  0.00  0.00    +0.000 OA
ATOM     23  C   UNL     1     111.608 124.260 135.759  0.00  0.00    +0.000 C 
ENDBRANCH   8  22
BRANCH   9  24
ATOM     24  O   UNL     1     111.436 127.929 136.650  0.00  0.00    +0.000 OA
ATOM     25  C   UNL     1     110.818 128.381 136.957  0.00  0.00    +0.000 C 
ENDBRANCH   9  24
BRANCH  10  26
ATOM     26  O   UNL     1     110.436 125.898 134.908  0.00  0.00    +0.000 OA
ATOM     27  C   UNL     1     109.616 125.810 134.897  0.00  0.00    +0.000 C 
ENDBRANCH  10  26
BRANCH  11  28
ATOM     28  O   UNL     1     110.671 127.494 135.255  0.00  0.00    +0.000 OA
ATOM     29  C   UNL     1     111.175 127.779 134.668  0.00  0.00    +0.000 C 
ENDBRANCH  11  28
TORSDOF 7
ENDMDL
MODEL 7
REMARK VINA RESULT:      -6.8      8.377      9.984
REMARK  Name = 12303287
REMARK  7 active torsions:
REMARK  status: ('A' for Active; 'I' for Inactive)
REMARK    1  A    between atoms: O_2  and  C_15
REMARK    2  A    between atoms: O_3  and  C_16
REMARK    3  A    between atoms: O_5  and  C_17
REMARK    4  A    between atoms: O_6  and  C_18
REMARK    5  A    between atoms: O_7  and  C_21
REMARK    6  A    between atoms: O_8  and  C_23
REMARK    7  A    between atoms: C_9  and  C_13
REMARK                            x       y       z     vdW  Elec       q    Type
REMARK                         _______ _______ _______ _____ _____    ______ ____
ROOT
ATOM      1  O   UNL     1     104.423 125.129 147.058  0.00  0.00    +0.000 OA
ATOM      2  O   UNL     1     103.568 125.342 149.432  0.00  0.00    +0.000 OA
ATOM      3  C   UNL     1     104.844 125.632 147.614  0.00  0.00    +0.000 C 
ATOM      4  C   UNL     1     104.556 125.706 148.420  0.00  0.00    +0.000 C 
ATOM      5  C   UNL     1     103.444 124.779 148.090  0.00  0.00    +0.000 A 
ATOM      6  C   UNL     1     103.720 124.708 147.316  0.00  0.00    +0.000 A 
ATOM      7  C   UNL     1     103.851 125.276 148.660  0.00  0.00    +0.000 C 
ATOM      8  C   UNL     1     102.767 124.369 148.325  0.00  0.00    +0.000 A 
ATOM      9  C   UNL     1     103.320 124.227 146.777  0.00  0.00    +0.000 A 
ATOM     10  C   UNL     1     102.368 123.889 147.788  0.00  0.00    +0.000 A 
ATOM     11  C   UNL     1     102.644 123.817 147.014  0.00  0.00    +0.000 A 
ENDROOT
BRANCH   3  12
ATOM     12  C   UNL     1     105.520 126.040 147.376  0.00  0.00    +0.000 A 
ATOM     13  C   UNL     1     106.265 125.701 147.480  0.00  0.00    +0.000 A 
ATOM     14  C   UNL     1     105.452 126.787 147.033  0.00  0.00    +0.000 A 
ATOM     15  C   UNL     1     106.941 126.108 147.242  0.00  0.00    +0.000 A 
ATOM     16  C   UNL     1     106.128 127.195 146.795  0.00  0.00    +0.000 A 
ATOM     17  C   UNL     1     106.873 126.856 146.899  0.00  0.00    +0.000 A 
BRANCH  15  18
ATOM     18  O   UNL     1     107.686 125.769 147.346  0.00  0.00    +0.000 OA
ATOM     19  C   UNL     1     107.775 125.109 147.833  0.00  0.00    +0.000 C 
ENDBRANCH  15  18
BRANCH  17  20
ATOM     20  O   UNL     1     107.549 127.264 146.661  0.00  0.00    +0.000 OA
ATOM     21  C   UNL     1     107.481 128.011 146.319  0.00  0.00    +0.000 C 
ENDBRANCH  17  20
ENDBRANCH   3  12
BRANCH   8  22
ATOM     22  O   UNL     1     102.491 124.441 149.099  0.00  0.00    +0.000 OA
ATOM     23  C   UNL     1     102.025 125.087 149.313  0.00  0.00    +0.000 C 
ENDBRANCH   8  22
BRANCH   9  24
ATOM     24  O   UNL     1     103.596 124.155 146.004  0.00  0.00    +0.000 OA
ATOM     25  C   UNL     1     103.955 123.455 145.757  0.00  0.00    +0.000 C 
ENDBRANCH   9  24
BRANCH  10  26
ATOM     26  O   UNL     1     101.691 123.479 148.023  0.00  0.00    +0.000 OA
ATOM     27  C   UNL     1     101.760 122.739 148.380  0.00  0.00    +0.000 C 
ENDBRANCH  10  26
BRANCH  11  28
ATOM     28  O   UNL     1     102.244 123.336 146.475  0.00  0.00    +0.000 OA
ATOM     29  C   UNL     1     101.603 123.636 146.052  0.00  0.00    +0.000 C 
ENDBRANCH  11  28
TORSDOF 7
ENDMDL
MODEL 8
REMARK VINA RESULT:      -6.8     11.358     12.352
REMARK  Name = 12303287
REMARK  7 active torsions:
REMARK  status: ('A' for Active; 'I' for Inactive)
REMARK    1  A    between atoms: O_2  and  C_15
REMARK    2  A    between atoms: O_3  and  C_16
REMARK    3  A    between atoms: O_5  and  C_17
REMARK    4  A    between atoms: O_6  and  C_18
REMARK    5  A    between atoms: O_7  and  C_21
REMARK    6  A    between atoms: O_8  and  C_23
REMARK    7  A    between atoms: C_9  and  C_13
REMARK                            x       y       z     vdW  Elec       q    Type
REMARK                         _______ _______ _______ _____ _____    ______ ____
ROOT
ATOM      1  O   UNL     1     113.445 127.883 136.460  0.00  0.00    +0.000 OA
ATOM      2  O   UNL     1     112.728 128.866 138.680  0.00  0.00    +0.000 OA
ATOM      3  C   UNL     1     113.083 127.373 137.049  0.00  0.00    +0.000 C 
ATOM      4  C   UNL     1     112.838 127.703 137.804  0.00  0.00    +0.000 C 
ATOM      5  C   UNL     1     113.323 129.034 137.358  0.00  0.00    +0.000 A 
ATOM      6  C   UNL     1     113.558 128.717 136.633  0.00  0.00    +0.000 A 
ATOM      7  C   UNL     1     112.960 128.540 137.959  0.00  0.00    +0.000 C 
ATOM      8  C   UNL     1     113.438 129.837 137.512  0.00  0.00    +0.000 A 
ATOM      9  C   UNL     1     113.907 129.202 136.063  0.00  0.00    +0.000 A 
ATOM     10  C   UNL     1     113.786 130.321 136.943  0.00  0.00    +0.000 A 
ATOM     11  C   UNL     1     114.020 130.004 136.219  0.00  0.00    +0.000 A 
ENDROOT
BRANCH   3  12
ATOM     12  C   UNL     1     112.970 126.571 136.892  0.00  0.00    +0.000 A 
ATOM     13  C   UNL     1     113.574 126.031 137.049  0.00  0.00    +0.000 A 
ATOM     14  C   UNL     1     112.254 126.308 136.578  0.00  0.00    +0.000 A 
ATOM     15  C   UNL     1     113.463 125.229 136.892  0.00  0.00    +0.000 A 
ATOM     16  C   UNL     1     112.142 125.506 136.421  0.00  0.00    +0.000 A 
ATOM     17  C   UNL     1     112.746 124.966 136.577  0.00  0.00    +0.000 A 
BRANCH  15  18
ATOM     18  O   UNL     1     114.067 124.689 137.048  0.00  0.00    +0.000 OA
ATOM     19  C   UNL     1     114.802 124.957 137.309  0.00  0.00    +0.000 C 
ENDBRANCH  15  18
BRANCH  17  20
ATOM     20  O   UNL     1     112.633 124.165 136.420  0.00  0.00    +0.000 OA
ATOM     21  C   UNL     1     111.871 123.866 136.326  0.00  0.00    +0.000 C 
ENDBRANCH  17  20
ENDBRANCH   3  12
BRANCH   8  22
ATOM     22  O   UNL     1     113.203 130.155 138.236  0.00  0.00    +0.000 OA
ATOM     23  C   UNL     1     113.693 130.084 138.896  0.00  0.00    +0.000 C 
ENDBRANCH   8  22
BRANCH   9  24
ATOM     24  O   UNL     1     114.141 128.884 135.340  0.00  0.00    +0.000 OA
ATOM     25  C   UNL     1     113.688 129.018 134.664  0.00  0.00    +0.000 C 
ENDBRANCH   9  24
BRANCH  10  26
ATOM     26  O   UNL     1     113.900 131.124 137.097  0.00  0.00    +0.000 OA
ATOM     27  C   UNL     1     113.314 131.670 136.900  0.00  0.00    +0.000 C 
ENDBRANCH  10  26
BRANCH  11  28
ATOM     28  O   UNL     1     114.369 130.489 135.649  0.00  0.00    +0.000 OA
ATOM     29  C   UNL     1     115.188 130.586 135.636  0.00  0.00    +0.000 C 
ENDBRANCH  11  28
TORSDOF 7
ENDMDL
MODEL 9
REMARK VINA RESULT:      -6.8     10.384     12.567
REMARK  Name = 12303287
REMARK  7 active torsions:
REMARK  status: ('A' for Active; 'I' for Inactive)
REMARK    1  A    between atoms: O_2  and  C_15
REMARK    2  A    between atoms: O_3  and  C_16
REMARK    3  A    between atoms: O_5  and  C_17
REMARK    4  A    between atoms: O_6  and  C_18
REMARK    5  A    between atoms: O_7  and  C_21
REMARK    6  A    between atoms: O_8  and  C_23
REMARK    7  A    between atoms: C_9  and  C_13
REMARK                            x       y       z     vdW  Elec       q    Type
REMARK                         _______ _______ _______ _____ _____    ______ ____
ROOT
ATOM      1  O   UNL     1     112.349 126.816 138.397  0.00  0.00    +0.000 OA
ATOM      2  O   UNL     1     114.438 125.405 138.168  0.00  0.00    +0.000 OA
ATOM      3  C   UNL     1     113.063 127.050 138.815  0.00  0.00    +0.000 C 
ATOM      4  C   UNL     1     113.773 126.573 138.739  0.00  0.00    +0.000 C 
ATOM      5  C   UNL     1     113.037 125.651 137.837  0.00  0.00    +0.000 A 
ATOM      6  C   UNL     1     112.355 126.109 137.910  0.00  0.00    +0.000 A 
ATOM      7  C   UNL     1     113.760 125.868 138.246  0.00  0.00    +0.000 C 
ATOM      8  C   UNL     1     113.030 124.974 137.366  0.00  0.00    +0.000 A 
ATOM      9  C   UNL     1     111.666 125.890 137.512  0.00  0.00    +0.000 A 
ATOM     10  C   UNL     1     112.343 124.754 136.968  0.00  0.00    +0.000 A 
ATOM     11  C   UNL     1     111.660 125.212 137.041  0.00  0.00    +0.000 A 
ENDROOT
BRANCH   3  12
ATOM     12  C   UNL     1     113.067 127.728 139.285  0.00  0.00    +0.000 A 
ATOM     13  C   UNL     1     113.155 128.471 138.938  0.00  0.00    +0.000 A 
ATOM     14  C   UNL     1     112.982 127.663 140.103  0.00  0.00    +0.000 A 
ATOM     15  C   UNL     1     113.159 129.149 139.407  0.00  0.00    +0.000 A 
ATOM     16  C   UNL     1     112.985 128.341 140.573  0.00  0.00    +0.000 A 
ATOM     17  C   UNL     1     113.074 129.084 140.226  0.00  0.00    +0.000 A 
BRANCH  15  18
ATOM     18  O   UNL     1     113.247 129.892 139.059  0.00  0.00    +0.000 OA
ATOM     19  C   UNL     1     113.335 129.956 138.241  0.00  0.00    +0.000 C 
ENDBRANCH  15  18
BRANCH  17  20
ATOM     20  O   UNL     1     113.077 129.761 140.695  0.00  0.00    +0.000 OA
ATOM     21  C   UNL     1     112.993 129.697 141.513  0.00  0.00    +0.000 C 
ENDBRANCH  17  20
ENDBRANCH   3  12
BRANCH   8  22
ATOM     22  O   UNL     1     113.713 124.516 137.293  0.00  0.00    +0.000 OA
ATOM     23  C   UNL     1     114.321 124.757 136.790  0.00  0.00    +0.000 C 
ENDBRANCH   8  22
BRANCH   9  24
ATOM     24  O   UNL     1     110.984 126.347 137.585  0.00  0.00    +0.000 OA
ATOM     25  C   UNL     1     110.380 126.109 138.092  0.00  0.00    +0.000 C 
ENDBRANCH   9  24
BRANCH  10  26
ATOM     26  O   UNL     1     112.336 124.077 136.496  0.00  0.00    +0.000 OA
ATOM     27  C   UNL     1     112.131 123.349 136.823  0.00  0.00    +0.000 C 
ENDBRANCH  10  26
BRANCH  11  28
ATOM     28  O   UNL     1     110.971 124.993 136.642  0.00  0.00    +0.000 OA
ATOM     29  C   UNL     1     110.831 125.271 135.878  0.00  0.00    +0.000 C 
ENDBRANCH  11  28
TORSDOF 7
ENDMDL
MODEL 10
REMARK VINA RESULT:      -6.8      5.896      8.838
REMARK  Name = 12303287
REMARK  7 active torsions:
REMARK  status: ('A' for Active; 'I' for Inactive)
REMARK    1  A    between atoms: O_2  and  C_15
REMARK    2  A    between atoms: O_3  and  C_16
REMARK    3  A    between atoms: O_5  and  C_17
REMARK    4  A    between atoms: O_6  and  C_18
REMARK    5  A    between atoms: O_7  and  C_21
REMARK    6  A    between atoms: O_8  and  C_23
REMARK    7  A    between atoms: C_9  and  C_13
REMARK                            x       y       z     vdW  Elec       q    Type
REMARK                         _______ _______ _______ _____ _____    ______ ____
ROOT
ATOM      1  O   UNL     1     106.463 125.530 145.751  0.00  0.00    +0.000 OA
ATOM      2  O   UNL     1     106.709 128.050 145.707  0.00  0.00    +0.000 OA
ATOM      3  C   UNL     1     106.674 125.946 146.474  0.00  0.00    +0.000 C 
ATOM      4  C   UNL     1     106.758 126.800 146.462  0.00  0.00    +0.000 C 
ATOM      5  C   UNL     1     106.420 126.796 145.016  0.00  0.00    +0.000 A 
ATOM      6  C   UNL     1     106.339 125.975 145.027  0.00  0.00    +0.000 A 
ATOM      7  C   UNL     1     106.630 127.229 145.727  0.00  0.00    +0.000 C 
ATOM      8  C   UNL     1     106.297 127.212 144.314  0.00  0.00    +0.000 A 
ATOM      9  C   UNL     1     106.136 125.570 144.337  0.00  0.00    +0.000 A 
ATOM     10  C   UNL     1     106.095 126.808 143.624  0.00  0.00    +0.000 A 
ATOM     11  C   UNL     1     106.014 125.987 143.636  0.00  0.00    +0.000 A 
ENDROOT
BRANCH   3  12
ATOM     12  C   UNL     1     106.796 125.527 147.174  0.00  0.00    +0.000 A 
ATOM     13  C   UNL     1     106.150 125.275 147.621  0.00  0.00    +0.000 A 
ATOM     14  C   UNL     1     107.562 125.359 147.428  0.00  0.00    +0.000 A 
ATOM     15  C   UNL     1     106.270 124.856 148.321  0.00  0.00    +0.000 A 
ATOM     16  C   UNL     1     107.684 124.940 148.128  0.00  0.00    +0.000 A 
ATOM     17  C   UNL     1     107.038 124.688 148.575  0.00  0.00    +0.000 A 
BRANCH  15  18
ATOM     18  O   UNL     1     105.624 124.604 148.769  0.00  0.00    +0.000 OA
ATOM     19  C   UNL     1     104.857 124.732 148.493  0.00  0.00    +0.000 C 
ENDBRANCH  15  18
BRANCH  17  20
ATOM     20  O   UNL     1     107.158 124.270 149.275  0.00  0.00    +0.000 OA
ATOM     21  C   UNL     1     107.910 124.238 149.612  0.00  0.00    +0.000 C 
ENDBRANCH  17  20
ENDBRANCH   3  12
BRANCH   8  22
ATOM     22  O   UNL     1     106.378 128.033 144.302  0.00  0.00    +0.000 OA
ATOM     23  C   UNL     1     107.128 128.374 144.249  0.00  0.00    +0.000 C 
ENDBRANCH   8  22
BRANCH   9  24
ATOM     24  O   UNL     1     106.055 124.750 144.349  0.00  0.00    +0.000 OA
ATOM     25  C   UNL     1     105.306 124.410 144.399  0.00  0.00    +0.000 C 
ENDBRANCH   9  24
BRANCH  10  26
ATOM     26  O   UNL     1     105.973 127.224 142.922  0.00  0.00    +0.000 OA
ATOM     27  C   UNL     1     105.227 127.527 142.746  0.00  0.00    +0.000 C 
ENDBRANCH  10  26
BRANCH  11  28
ATOM     28  O   UNL     1     105.811 125.582 142.945  0.00  0.00    +0.000 OA
ATOM     29  C   UNL     1     106.402 125.329 142.428  0.00  0.00    +0.000 C 
ENDBRANCH  11  28
TORSDOF 7
ENDMDL
