MODEL 1
REMARK VINA RESULT:      -8.9      0.000      0.000
REMARK  Name = 44257128
REMARK  7 active torsions:
REMARK  status: ('A' for Active; 'I' for Inactive)
REMARK    1  A    between atoms: O_2  and  C_18
REMARK    2  A    between atoms: O_2  and  C_25
REMARK    3  A    between atoms: O_7  and  C_19
REMARK    4  A    between atoms: O_7  and  C_32
REMARK    5  A    between atoms: O_9  and  C_27
REMARK    6  A    between atoms: C_17  and  C_23
REMARK    7  A    between atoms: C_20  and  C_26
REMARK                            x       y       z     vdW  Elec       q    Type
REMARK                         _______ _______ _______ _____ _____    ______ ____
ROOT
ATOM      1  O   UNL     1     110.080 130.585 135.824  0.00  0.00    +0.000 OA
ATOM      2  O   UNL     1     112.169 128.580 136.134  0.00  0.00    +0.000 OA
ATOM      3  C   UNL     1     110.230 131.881 136.405  0.00  0.00    +0.000 C 
ATOM      4  C   UNL     1     109.786 131.344 135.965  0.00  0.00    +0.000 C 
ATOM      5  C   UNL     1     110.966 131.662 136.704  0.00  0.00    +0.000 C 
ATOM      6  C   UNL     1     111.260 130.904 136.563  0.00  0.00    +0.000 A 
ATOM      7  C   UNL     1     110.816 130.366 136.123  0.00  0.00    +0.000 A 
ATOM      8  C   UNL     1     111.111 129.573 135.968  0.00  0.00    +0.000 A 
ATOM      9  C   UNL     1     112.029 130.688 136.880  0.00  0.00    +0.000 A 
ATOM     10  C   UNL     1     111.878 129.339 136.277  0.00  0.00    +0.000 A 
ATOM     11  C   UNL     1     112.340 129.899 136.735  0.00  0.00    +0.000 A 
ENDROOT
BRANCH   4  14
ATOM     12  O   UNL     1     106.953 131.558 136.274  0.00  0.00    +0.000 OA
ATOM     13  O   UNL     1     106.839 132.221 134.768  0.00  0.00    +0.000 OA
ATOM     14  C   UNL     1     109.050 131.563 135.667  0.00  0.00    +0.000 A 
ATOM     15  C   UNL     1     108.369 131.451 136.120  0.00  0.00    +0.000 A 
ATOM     16  C   UNL     1     108.992 131.895 134.913  0.00  0.00    +0.000 A 
ATOM     17  C   UNL     1     107.633 131.670 135.821  0.00  0.00    +0.000 A 
ATOM     18  C   UNL     1     108.255 132.114 134.614  0.00  0.00    +0.000 A 
ATOM     19  C   UNL     1     107.575 132.002 135.067  0.00  0.00    +0.000 A 
ENDBRANCH   4  14
BRANCH   9  20
ATOM     20  O   UNL     1     112.466 131.232 137.319  0.00  0.00    +0.000 OA
ATOM     21  C   UNL     1     113.198 131.016 137.633  0.00  0.00    +0.000 C 
ENDBRANCH   9  20
BRANCH   8  22
ATOM     22  O   UNL     1     110.661 129.042 135.527  0.00  0.00    +0.000 OA
BRANCH  22  31
ATOM     23  O   UNL     1     110.167 128.455 136.733  0.00  0.00    +0.000 OA
ATOM     24  O   UNL     1     108.964 126.745 135.409  0.00  0.00    +0.000 OA
ATOM     25  O   UNL     1     108.871 126.728 137.055  0.00  0.00    +0.000 OA
ATOM     26  O   UNL     1     109.858 127.901 134.644  0.00  0.00    +0.000 OA
ATOM     27  C   UNL     1     109.364 127.314 135.850  0.00  0.00    +0.000 C 
ATOM     28  C   UNL     1     109.319 127.307 136.673  0.00  0.00    +0.000 C 
ATOM     29  C   UNL     1     109.812 127.893 135.467  0.00  0.00    +0.000 C 
ATOM     30  C   UNL     1     109.720 127.877 137.115  0.00  0.00    +0.000 C 
ATOM     31  C   UNL     1     110.214 128.463 135.909  0.00  0.00    +0.000 C 
BRANCH  30  33
ATOM     32  O   UNL     1     109.310 128.493 138.337  0.00  0.00    +0.000 OA
ATOM     33  C   UNL     1     109.674 127.869 137.938  0.00  0.00    +0.000 C 
ENDBRANCH  30  33
ENDBRANCH  22  31
ENDBRANCH   8  22
BRANCH   3  34
ATOM     34  O   UNL     1     109.936 132.640 136.547  0.00  0.00    +0.000 OA
BRANCH  34  36
ATOM     35  O   UNL     1     110.336 133.100 137.840  0.00  0.00    +0.000 OA
ATOM     36  C   UNL     1     110.364 133.166 137.018  0.00  0.00    +0.000 C 
ATOM     37  C   UNL     1     110.818 133.758 136.666  0.00  0.00    +0.000 C 
ENDBRANCH  34  36
ENDBRANCH   3  34
TORSDOF 7
ENDMDL
MODEL 2
REMARK VINA RESULT:      -8.9      2.587      6.064
REMARK  Name = 44257128
REMARK  7 active torsions:
REMARK  status: ('A' for Active; 'I' for Inactive)
REMARK    1  A    between atoms: O_2  and  C_18
REMARK    2  A    between atoms: O_2  and  C_25
REMARK    3  A    between atoms: O_7  and  C_19
REMARK    4  A    between atoms: O_7  and  C_32
REMARK    5  A    between atoms: O_9  and  C_27
REMARK    6  A    between atoms: C_17  and  C_23
REMARK    7  A    between atoms: C_20  and  C_26
REMARK                            x       y       z     vdW  Elec       q    Type
REMARK                         _______ _______ _______ _____ _____    ______ ____
ROOT
ATOM      1  O   UNL     1     112.803 127.748 136.754  0.00  0.00    +0.000 OA
ATOM      2  O   UNL     1     111.875 130.478 136.350  0.00  0.00    +0.000 OA
ATOM      3  C   UNL     1     111.976 126.642 136.388  0.00  0.00    +0.000 C 
ATOM      4  C   UNL     1     112.681 126.933 136.699  0.00  0.00    +0.000 C 
ATOM      5  C   UNL     1     111.392 127.163 136.131  0.00  0.00    +0.000 C 
ATOM      6  C   UNL     1     111.512 127.978 136.185  0.00  0.00    +0.000 A 
ATOM      7  C   UNL     1     112.218 128.270 136.497  0.00  0.00    +0.000 A 
ATOM      8  C   UNL     1     112.357 129.116 136.560  0.00  0.00    +0.000 A 
ATOM      9  C   UNL     1     110.896 128.511 135.914  0.00  0.00    +0.000 A 
ATOM     10  C   UNL     1     111.751 129.664 136.294  0.00  0.00    +0.000 A 
ATOM     11  C   UNL     1     111.017 129.360 135.969  0.00  0.00    +0.000 A 
ENDROOT
BRANCH   4  14
ATOM     12  O   UNL     1     114.999 125.350 136.159  0.00  0.00    +0.000 OA
ATOM     13  O   UNL     1     115.021 124.845 137.729  0.00  0.00    +0.000 OA
ATOM     14  C   UNL     1     113.266 126.411 136.956  0.00  0.00    +0.000 A 
ATOM     15  C   UNL     1     113.840 126.141 136.429  0.00  0.00    +0.000 A 
ATOM     16  C   UNL     1     113.277 126.158 137.742  0.00  0.00    +0.000 A 
ATOM     17  C   UNL     1     114.425 125.620 136.686  0.00  0.00    +0.000 A 
ATOM     18  C   UNL     1     113.862 125.637 137.999  0.00  0.00    +0.000 A 
ATOM     19  C   UNL     1     114.436 125.367 137.472  0.00  0.00    +0.000 A 
ENDBRANCH   4  14
BRANCH   9  20
ATOM     20  O   UNL     1     110.194 128.211 135.604  0.00  0.00    +0.000 OA
ATOM     21  C   UNL     1     109.588 128.725 135.380  0.00  0.00    +0.000 C 
ENDBRANCH   9  20
BRANCH   8  22
ATOM     22  O   UNL     1     113.065 129.399 136.873  0.00  0.00    +0.000 OA
BRANCH  22  31
ATOM     23  O   UNL     1     112.487 129.501 138.176  0.00  0.00    +0.000 OA
ATOM     24  O   UNL     1     114.350 130.969 138.885  0.00  0.00    +0.000 OA
ATOM     25  O   UNL     1     113.153 130.583 139.951  0.00  0.00    +0.000 OA
ATOM     26  O   UNL     1     114.307 130.378 137.346  0.00  0.00    +0.000 OA
ATOM     27  C   UNL     1     113.730 130.481 138.649  0.00  0.00    +0.000 C 
ATOM     28  C   UNL     1     113.130 130.287 139.182  0.00  0.00    +0.000 C 
ATOM     29  C   UNL     1     113.708 130.184 137.879  0.00  0.00    +0.000 C 
ATOM     30  C   UNL     1     112.510 129.798 138.945  0.00  0.00    +0.000 C 
ATOM     31  C   UNL     1     113.087 129.695 137.642  0.00  0.00    +0.000 C 
BRANCH  30  33
ATOM     32  O   UNL     1     111.800 128.818 139.706  0.00  0.00    +0.000 OA
ATOM     33  C   UNL     1     111.910 129.604 139.478  0.00  0.00    +0.000 C 
ENDBRANCH  30  33
ENDBRANCH  22  31
ENDBRANCH   8  22
BRANCH   3  34
ATOM     34  O   UNL     1     111.855 125.826 136.332  0.00  0.00    +0.000 OA
BRANCH  34  36
ATOM     35  O   UNL     1     110.537 125.519 136.793  0.00  0.00    +0.000 OA
ATOM     36  C   UNL     1     111.098 125.531 136.188  0.00  0.00    +0.000 C 
ATOM     37  C   UNL     1     110.902 125.248 135.438  0.00  0.00    +0.000 C 
ENDBRANCH  34  36
ENDBRANCH   3  34
TORSDOF 7
ENDMDL
MODEL 3
REMARK VINA RESULT:      -8.6      2.886      6.224
REMARK  Name = 44257128
REMARK  7 active torsions:
REMARK  status: ('A' for Active; 'I' for Inactive)
REMARK    1  A    between atoms: O_2  and  C_18
REMARK    2  A    between atoms: O_2  and  C_25
REMARK    3  A    between atoms: O_7  and  C_19
REMARK    4  A    between atoms: O_7  and  C_32
REMARK    5  A    between atoms: O_9  and  C_27
REMARK    6  A    between atoms: C_17  and  C_23
REMARK    7  A    between atoms: C_20  and  C_26
REMARK                            x       y       z     vdW  Elec       q    Type
REMARK                         _______ _______ _______ _____ _____    ______ ____
ROOT
ATOM      1  O   UNL     1     112.932 127.285 136.077  0.00  0.00    +0.000 OA
ATOM      2  O   UNL     1     112.154 129.681 134.616  0.00  0.00    +0.000 OA
ATOM      3  C   UNL     1     111.942 126.355 136.520  0.00  0.00    +0.000 C 
ATOM      4  C   UNL     1     112.731 126.583 136.464  0.00  0.00    +0.000 C 
ATOM      5  C   UNL     1     111.351 126.827 136.190  0.00  0.00    +0.000 C 
ATOM      6  C   UNL     1     111.550 127.528 135.803  0.00  0.00    +0.000 A 
ATOM      7  C   UNL     1     112.341 127.757 135.747  0.00  0.00    +0.000 A 
ATOM      8  C   UNL     1     112.562 128.485 135.347  0.00  0.00    +0.000 A 
ATOM      9  C   UNL     1     110.925 128.011 135.464  0.00  0.00    +0.000 A 
ATOM     10  C   UNL     1     111.951 128.981 135.002  0.00  0.00    +0.000 A 
ATOM     11  C   UNL     1     111.128 128.742 135.061  0.00  0.00    +0.000 A 
ENDROOT
BRANCH   4  14
ATOM     12  O   UNL     1     114.361 125.856 138.696  0.00  0.00    +0.000 OA
ATOM     13  O   UNL     1     115.096 124.696 137.782  0.00  0.00    +0.000 OA
ATOM     14  C   UNL     1     113.322 126.112 136.793  0.00  0.00    +0.000 A 
ATOM     15  C   UNL     1     113.546 126.220 137.580  0.00  0.00    +0.000 A 
ATOM     16  C   UNL     1     113.690 125.531 136.336  0.00  0.00    +0.000 A 
ATOM     17  C   UNL     1     114.137 125.748 137.910  0.00  0.00    +0.000 A 
ATOM     18  C   UNL     1     114.281 125.060 136.666  0.00  0.00    +0.000 A 
ATOM     19  C   UNL     1     114.505 125.168 137.452  0.00  0.00    +0.000 A 
ENDBRANCH   4  14
BRANCH   9  20
ATOM     20  O   UNL     1     110.138 127.774 135.525  0.00  0.00    +0.000 OA
ATOM     21  C   UNL     1     109.537 128.263 135.241  0.00  0.00    +0.000 C 
ENDBRANCH   9  20
BRANCH   8  22
ATOM     22  O   UNL     1     113.354 128.706 135.296  0.00  0.00    +0.000 OA
BRANCH  22  31
ATOM     23  O   UNL     1     113.238 129.506 136.475  0.00  0.00    +0.000 OA
ATOM     24  O   UNL     1     115.371 130.633 135.920  0.00  0.00    +0.000 OA
ATOM     25  O   UNL     1     114.545 131.057 137.282  0.00  0.00    +0.000 OA
ATOM     26  O   UNL     1     114.777 129.458 134.926  0.00  0.00    +0.000 OA
ATOM     27  C   UNL     1     114.661 130.258 136.105  0.00  0.00    +0.000 C 
ATOM     28  C   UNL     1     114.247 130.469 136.786  0.00  0.00    +0.000 C 
ATOM     29  C   UNL     1     114.363 129.669 135.607  0.00  0.00    +0.000 C 
ATOM     30  C   UNL     1     113.536 130.094 136.971  0.00  0.00    +0.000 C 
ATOM     31  C   UNL     1     113.652 129.294 135.792  0.00  0.00    +0.000 C 
BRANCH  30  33
ATOM     32  O   UNL     1     113.023 129.757 138.261  0.00  0.00    +0.000 OA
ATOM     33  C   UNL     1     113.122 130.305 137.652  0.00  0.00    +0.000 C 
ENDBRANCH  30  33
ENDBRANCH  22  31
ENDBRANCH   8  22
BRANCH   3  34
ATOM     34  O   UNL     1     111.741 125.653 136.906  0.00  0.00    +0.000 OA
BRANCH  34  36
ATOM     35  O   UNL     1     110.644 125.006 136.259  0.00  0.00    +0.000 OA
ATOM     36  C   UNL     1     110.957 125.396 136.915  0.00  0.00    +0.000 C 
ATOM     37  C   UNL     1     110.487 125.531 137.579  0.00  0.00    +0.000 C 
ENDBRANCH  34  36
ENDBRANCH   3  34
TORSDOF 7
ENDMDL
MODEL 4
REMARK VINA RESULT:      -8.5      4.312      7.008
REMARK  Name = 44257128
REMARK  7 active torsions:
REMARK  status: ('A' for Active; 'I' for Inactive)
REMARK    1  A    between atoms: O_2  and  C_18
REMARK    2  A    between atoms: O_2  and  C_25
REMARK    3  A    between atoms: O_7  and  C_19
REMARK    4  A    between atoms: O_7  and  C_32
REMARK    5  A    between atoms: O_9  and  C_27
REMARK    6  A    between atoms: C_17  and  C_23
REMARK    7  A    between atoms: C_20  and  C_26
REMARK                            x       y       z     vdW  Elec       q    Type
REMARK                         _______ _______ _______ _____ _____    ______ ____
ROOT
ATOM      1  O   UNL     1     112.953 126.074 138.531  0.00  0.00    +0.000 OA
ATOM      2  O   UNL     1     111.694 126.981 140.995  0.00  0.00    +0.000 OA
ATOM      3  C   UNL     1     112.162 125.527 137.474  0.00  0.00    +0.000 C 
ATOM      4  C   UNL     1     112.897 125.744 137.776  0.00  0.00    +0.000 C 
ATOM      5  C   UNL     1     111.481 125.640 137.925  0.00  0.00    +0.000 C 
ATOM      6  C   UNL     1     111.535 125.970 138.680  0.00  0.00    +0.000 A 
ATOM      7  C   UNL     1     112.272 126.187 138.982  0.00  0.00    +0.000 A 
ATOM      8  C   UNL     1     112.342 126.531 139.766  0.00  0.00    +0.000 A 
ATOM      9  C   UNL     1     110.818 126.082 139.139  0.00  0.00    +0.000 A 
ATOM     10  C   UNL     1     111.636 126.651 140.241  0.00  0.00    +0.000 A 
ATOM     11  C   UNL     1     110.870 126.425 139.926  0.00  0.00    +0.000 A 
ENDROOT
BRANCH   4  14
ATOM     12  O   UNL     1     114.771 126.698 135.840  0.00  0.00    +0.000 OA
ATOM     13  O   UNL     1     115.624 125.292 135.972  0.00  0.00    +0.000 OA
ATOM     14  C   UNL     1     113.579 125.631 137.325  0.00  0.00    +0.000 A 
ATOM     15  C   UNL     1     113.834 126.221 136.808  0.00  0.00    +0.000 A 
ATOM     16  C   UNL     1     114.005 124.927 137.391  0.00  0.00    +0.000 A 
ATOM     17  C   UNL     1     114.516 126.108 136.357  0.00  0.00    +0.000 A 
ATOM     18  C   UNL     1     114.686 124.815 136.940  0.00  0.00    +0.000 A 
ATOM     19  C   UNL     1     114.942 125.404 136.423  0.00  0.00    +0.000 A 
ENDBRANCH   4  14
BRANCH   9  20
ATOM     20  O   UNL     1     110.087 125.863 138.829  0.00  0.00    +0.000 OA
ATOM     21  C   UNL     1     109.393 126.060 139.230  0.00  0.00    +0.000 C 
ENDBRANCH   9  20
BRANCH   8  22
ATOM     22  O   UNL     1     113.082 126.745 140.061  0.00  0.00    +0.000 OA
BRANCH  22  31
ATOM     23  O   UNL     1     112.890 128.088 139.613  0.00  0.00    +0.000 OA
ATOM     24  O   UNL     1     114.868 128.805 140.916  0.00  0.00    +0.000 OA
ATOM     25  O   UNL     1     114.018 129.909 140.034  0.00  0.00    +0.000 OA
ATOM     26  O   UNL     1     114.401 127.223 140.930  0.00  0.00    +0.000 OA
ATOM     27  C   UNL     1     114.210 128.566 140.482  0.00  0.00    +0.000 C 
ATOM     28  C   UNL     1     113.784 129.118 140.041  0.00  0.00    +0.000 C 
ATOM     29  C   UNL     1     113.975 127.775 140.489  0.00  0.00    +0.000 C 
ATOM     30  C   UNL     1     113.124 128.879 139.606  0.00  0.00    +0.000 C 
ATOM     31  C   UNL     1     113.316 127.536 140.054  0.00  0.00    +0.000 C 
BRANCH  30  33
ATOM     32  O   UNL     1     112.683 129.376 138.342  0.00  0.00    +0.000 OA
ATOM     33  C   UNL     1     112.698 129.431 139.165  0.00  0.00    +0.000 C 
ENDBRANCH  30  33
ENDBRANCH  22  31
ENDBRANCH   8  22
BRANCH   3  34
ATOM     34  O   UNL     1     112.106 125.197 136.719  0.00  0.00    +0.000 OA
BRANCH  34  36
ATOM     35  O   UNL     1     111.221 124.077 136.760  0.00  0.00    +0.000 OA
ATOM     36  C   UNL     1     111.407 124.830 136.480  0.00  0.00    +0.000 C 
ATOM     37  C   UNL     1     110.896 125.215 135.960  0.00  0.00    +0.000 C 
ENDBRANCH  34  36
ENDBRANCH   3  34
TORSDOF 7
ENDMDL
MODEL 5
REMARK VINA RESULT:      -8.5      3.006      4.426
REMARK  Name = 44257128
REMARK  7 active torsions:
REMARK  status: ('A' for Active; 'I' for Inactive)
REMARK    1  A    between atoms: O_2  and  C_18
REMARK    2  A    between atoms: O_2  and  C_25
REMARK    3  A    between atoms: O_7  and  C_19
REMARK    4  A    between atoms: O_7  and  C_32
REMARK    5  A    between atoms: O_9  and  C_27
REMARK    6  A    between atoms: C_17  and  C_23
REMARK    7  A    between atoms: C_20  and  C_26
REMARK                            x       y       z     vdW  Elec       q    Type
REMARK                         _______ _______ _______ _____ _____    ______ ____
ROOT
ATOM      1  O   UNL     1     112.162 127.878 137.753  0.00  0.00    +0.000 OA
ATOM      2  O   UNL     1     112.597 125.830 139.778  0.00  0.00    +0.000 OA
ATOM      3  C   UNL     1     112.747 129.174 137.898  0.00  0.00    +0.000 C 
ATOM      4  C   UNL     1     112.285 128.644 137.469  0.00  0.00    +0.000 C 
ATOM      5  C   UNL     1     113.087 128.940 138.612  0.00  0.00    +0.000 C 
ATOM      6  C   UNL     1     112.966 128.175 138.897  0.00  0.00    +0.000 A 
ATOM      7  C   UNL     1     112.503 127.645 138.467  0.00  0.00    +0.000 A 
ATOM      8  C   UNL     1     112.368 126.845 138.753  0.00  0.00    +0.000 A 
ATOM      9  C   UNL     1     113.326 127.944 139.642  0.00  0.00    +0.000 A 
ATOM     10  C   UNL     1     112.721 126.596 139.496  0.00  0.00    +0.000 A 
ATOM     11  C   UNL     1     113.202 127.149 139.943  0.00  0.00    +0.000 A 
ENDROOT
BRANCH   4  14
ATOM     12  O   UNL     1     112.436 128.927 134.629  0.00  0.00    +0.000 OA
ATOM     13  O   UNL     1     110.920 129.577 134.613  0.00  0.00    +0.000 OA
ATOM     14  C   UNL     1     111.944 128.877 136.755  0.00  0.00    +0.000 A 
ATOM     15  C   UNL     1     112.360 128.785 136.049  0.00  0.00    +0.000 A 
ATOM     16  C   UNL     1     111.185 129.203 136.747  0.00  0.00    +0.000 A 
ATOM     17  C   UNL     1     112.019 129.019 135.335  0.00  0.00    +0.000 A 
ATOM     18  C   UNL     1     110.844 129.436 136.033  0.00  0.00    +0.000 A 
ATOM     19  C   UNL     1     111.261 129.344 135.327  0.00  0.00    +0.000 A 
ENDBRANCH   4  14
BRANCH   9  20
ATOM     20  O   UNL     1     113.787 128.481 140.065  0.00  0.00    +0.000 OA
ATOM     21  C   UNL     1     114.138 128.253 140.776  0.00  0.00    +0.000 C 
ENDBRANCH   9  20
BRANCH   8  22
ATOM     22  O   UNL     1     111.905 126.321 138.317  0.00  0.00    +0.000 OA
BRANCH  22  31
ATOM     23  O   UNL     1     113.070 125.770 137.700  0.00  0.00    +0.000 OA
ATOM     24  O   UNL     1     111.723 123.877 136.847  0.00  0.00    +0.000 OA
ATOM     25  O   UNL     1     113.336 123.957 136.514  0.00  0.00    +0.000 OA
ATOM     26  O   UNL     1     111.007 125.058 137.748  0.00  0.00    +0.000 OA
ATOM     27  C   UNL     1     112.172 124.507 137.131  0.00  0.00    +0.000 C 
ATOM     28  C   UNL     1     112.979 124.548 136.965  0.00  0.00    +0.000 C 
ATOM     29  C   UNL     1     111.814 125.099 137.582  0.00  0.00    +0.000 C 
ATOM     30  C   UNL     1     113.428 125.179 137.249  0.00  0.00    +0.000 C 
ATOM     31  C   UNL     1     112.262 125.730 137.866  0.00  0.00    +0.000 C 
BRANCH  30  33
ATOM     32  O   UNL     1     114.527 125.826 136.605  0.00  0.00    +0.000 OA
ATOM     33  C   UNL     1     114.235 125.220 137.083  0.00  0.00    +0.000 C 
ENDBRANCH  30  33
ENDBRANCH  22  31
ENDBRANCH   8  22
BRANCH   3  34
ATOM     34  O   UNL     1     112.869 129.940 137.614  0.00  0.00    +0.000 OA
BRANCH  34  36
ATOM     35  O   UNL     1     112.803 130.876 138.691  0.00  0.00    +0.000 OA
ATOM     36  C   UNL     1     113.233 130.504 138.093  0.00  0.00    +0.000 C 
ATOM     37  C   UNL     1     114.026 130.696 137.974  0.00  0.00    +0.000 C 
ENDBRANCH  34  36
ENDBRANCH   3  34
TORSDOF 7
ENDMDL
MODEL 6
REMARK VINA RESULT:      -8.4      2.213      5.087
REMARK  Name = 44257128
REMARK  7 active torsions:
REMARK  status: ('A' for Active; 'I' for Inactive)
REMARK    1  A    between atoms: O_2  and  C_18
REMARK    2  A    between atoms: O_2  and  C_25
REMARK    3  A    between atoms: O_7  and  C_19
REMARK    4  A    between atoms: O_7  and  C_32
REMARK    5  A    between atoms: O_9  and  C_27
REMARK    6  A    between atoms: C_17  and  C_23
REMARK    7  A    between atoms: C_20  and  C_26
REMARK                            x       y       z     vdW  Elec       q    Type
REMARK                         _______ _______ _______ _____ _____    ______ ____
ROOT
ATOM      1  O   UNL     1     112.073 127.875 135.805  0.00  0.00    +0.000 OA
ATOM      2  O   UNL     1     109.467 126.709 135.234  0.00  0.00    +0.000 OA
ATOM      3  C   UNL     1     113.128 127.066 136.331  0.00  0.00    +0.000 C 
ATOM      4  C   UNL     1     112.851 127.799 136.074  0.00  0.00    +0.000 C 
ATOM      5  C   UNL     1     112.629 126.410 136.322  0.00  0.00    +0.000 C 
ATOM      6  C   UNL     1     111.852 126.485 136.054  0.00  0.00    +0.000 A 
ATOM      7  C   UNL     1     111.575 127.218 135.796  0.00  0.00    +0.000 A 
ATOM      8  C   UNL     1     110.768 127.311 135.515  0.00  0.00    +0.000 A 
ATOM      9  C   UNL     1     111.342 125.793 136.049  0.00  0.00    +0.000 A 
ATOM     10  C   UNL     1     110.243 126.630 135.502  0.00  0.00    +0.000 A 
ATOM     11  C   UNL     1     110.532 125.867 135.771  0.00  0.00    +0.000 A 
ENDROOT
BRANCH   4  14
ATOM     12  O   UNL     1     114.758 129.479 134.766  0.00  0.00    +0.000 OA
ATOM     13  O   UNL     1     114.846 130.427 136.113  0.00  0.00    +0.000 OA
ATOM     14  C   UNL     1     113.349 128.455 136.083  0.00  0.00    +0.000 A 
ATOM     15  C   UNL     1     113.804 128.639 135.420  0.00  0.00    +0.000 A 
ATOM     16  C   UNL     1     113.394 128.930 136.757  0.00  0.00    +0.000 A 
ATOM     17  C   UNL     1     114.303 129.296 135.429  0.00  0.00    +0.000 A 
ATOM     18  C   UNL     1     113.892 129.587 136.767  0.00  0.00    +0.000 A 
ATOM     19  C   UNL     1     114.347 129.771 136.103  0.00  0.00    +0.000 A 
ENDBRANCH   4  14
BRANCH   9  20
ATOM     20  O   UNL     1     111.628 125.065 136.309  0.00  0.00    +0.000 OA
ATOM     21  C   UNL     1     111.218 124.372 136.126  0.00  0.00    +0.000 C 
ENDBRANCH   9  20
BRANCH   8  22
ATOM     22  O   UNL     1     110.499 128.046 135.259  0.00  0.00    +0.000 OA
BRANCH  22  31
ATOM     23  O   UNL     1     110.012 128.368 136.563  0.00  0.00    +0.000 OA
ATOM     24  O   UNL     1     108.590 130.147 135.594  0.00  0.00    +0.000 OA
ATOM     25  O   UNL     1     108.577 129.876 137.220  0.00  0.00    +0.000 OA
ATOM     26  O   UNL     1     109.550 129.233 134.612  0.00  0.00    +0.000 OA
ATOM     27  C   UNL     1     109.063 129.554 135.916  0.00  0.00    +0.000 C 
ATOM     28  C   UNL     1     109.057 129.418 136.730  0.00  0.00    +0.000 C 
ATOM     29  C   UNL     1     109.544 129.097 135.426  0.00  0.00    +0.000 C 
ATOM     30  C   UNL     1     109.531 128.825 137.053  0.00  0.00    +0.000 C 
ATOM     31  C   UNL     1     110.018 128.504 135.749  0.00  0.00    +0.000 C 
BRANCH  30  33
ATOM     32  O   UNL     1     110.188 128.880 138.321  0.00  0.00    +0.000 OA
ATOM     33  C   UNL     1     109.525 128.689 137.867  0.00  0.00    +0.000 C 
ENDBRANCH  30  33
ENDBRANCH  22  31
ENDBRANCH   8  22
BRANCH   3  34
ATOM     34  O   UNL     1     113.905 126.990 136.600  0.00  0.00    +0.000 OA
BRANCH  34  36
ATOM     35  O   UNL     1     113.971 126.104 137.719  0.00  0.00    +0.000 OA
ATOM     36  C   UNL     1     114.158 126.280 136.935  0.00  0.00    +0.000 C 
ATOM     37  C   UNL     1     114.597 125.746 136.485  0.00  0.00    +0.000 C 
ENDBRANCH  34  36
ENDBRANCH   3  34
TORSDOF 7
ENDMDL
MODEL 7
REMARK VINA RESULT:      -8.4      2.401      5.886
REMARK  Name = 44257128
REMARK  7 active torsions:
REMARK  status: ('A' for Active; 'I' for Inactive)
REMARK    1  A    between atoms: O_2  and  C_18
REMARK    2  A    between atoms: O_2  and  C_25
REMARK    3  A    between atoms: O_7  and  C_19
REMARK    4  A    between atoms: O_7  and  C_32
REMARK    5  A    between atoms: O_9  and  C_27
REMARK    6  A    between atoms: C_17  and  C_23
REMARK    7  A    between atoms: C_20  and  C_26
REMARK                            x       y       z     vdW  Elec       q    Type
REMARK                         _______ _______ _______ _____ _____    ______ ____
ROOT
ATOM      1  O   UNL     1     110.651 127.077 137.850  0.00  0.00    +0.000 OA
ATOM      2  O   UNL     1     108.522 128.019 136.101  0.00  0.00    +0.000 OA
ATOM      3  C   UNL     1     111.395 125.903 137.517  0.00  0.00    +0.000 C 
ATOM      4  C   UNL     1     111.247 126.533 138.027  0.00  0.00    +0.000 C 
ATOM      5  C   UNL     1     110.948 125.815 136.829  0.00  0.00    +0.000 C 
ATOM      6  C   UNL     1     110.352 126.358 136.652  0.00  0.00    +0.000 A 
ATOM      7  C   UNL     1     110.204 126.988 137.163  0.00  0.00    +0.000 A 
ATOM      8  C   UNL     1     109.586 127.561 136.990  0.00  0.00    +0.000 A 
ATOM      9  C   UNL     1     109.893 126.255 135.932  0.00  0.00    +0.000 A 
ATOM     10  C   UNL     1     109.117 127.474 136.275  0.00  0.00    +0.000 A 
ATOM     11  C   UNL     1     109.272 126.817 135.743  0.00  0.00    +0.000 A 
ENDROOT
BRANCH   4  14
ATOM     12  O   UNL     1     111.573 126.129 140.838  0.00  0.00    +0.000 OA
ATOM     13  O   UNL     1     113.036 126.887 140.777  0.00  0.00    +0.000 OA
ATOM     14  C   UNL     1     111.694 126.621 138.714  0.00  0.00    +0.000 A 
ATOM     15  C   UNL     1     111.410 126.331 139.432  0.00  0.00    +0.000 A 
ATOM     16  C   UNL     1     112.427 127.001 138.684  0.00  0.00    +0.000 A 
ATOM     17  C   UNL     1     111.857 126.419 140.120  0.00  0.00    +0.000 A 
ATOM     18  C   UNL     1     112.874 127.089 139.372  0.00  0.00    +0.000 A 
ATOM     19  C   UNL     1     112.590 126.799 140.090  0.00  0.00    +0.000 A 
ENDBRANCH   4  14
BRANCH   9  20
ATOM     20  O   UNL     1     110.048 125.622 135.428  0.00  0.00    +0.000 OA
ATOM     21  C   UNL     1     109.757 125.629 134.656  0.00  0.00    +0.000 C 
ENDBRANCH   9  20
BRANCH   8  22
ATOM     22  O   UNL     1     109.445 128.188 137.505  0.00  0.00    +0.000 OA
BRANCH  22  31
ATOM     23  O   UNL     1     110.296 129.041 136.737  0.00  0.00    +0.000 OA
ATOM     24  O   UNL     1     109.414 131.011 137.948  0.00  0.00    +0.000 OA
ATOM     25  O   UNL     1     110.558 131.208 136.777  0.00  0.00    +0.000 OA
ATOM     26  O   UNL     1     108.857 129.502 138.313  0.00  0.00    +0.000 OA
ATOM     27  C   UNL     1     109.708 130.355 137.545  0.00  0.00    +0.000 C 
ATOM     28  C   UNL     1     110.280 130.453 136.959  0.00  0.00    +0.000 C 
ATOM     29  C   UNL     1     109.429 129.600 137.727  0.00  0.00    +0.000 C 
ATOM     30  C   UNL     1     110.574 129.796 136.555  0.00  0.00    +0.000 C 
ATOM     31  C   UNL     1     109.723 128.943 137.324  0.00  0.00    +0.000 C 
BRANCH  30  33
ATOM     32  O   UNL     1     111.903 129.579 136.076  0.00  0.00    +0.000 OA
ATOM     33  C   UNL     1     111.147 129.893 135.970  0.00  0.00    +0.000 C 
ENDBRANCH  30  33
ENDBRANCH  22  31
ENDBRANCH   8  22
BRANCH   3  34
ATOM     34  O   UNL     1     111.991 125.360 137.693  0.00  0.00    +0.000 OA
BRANCH  34  36
ATOM     35  O   UNL     1     111.508 124.040 137.438  0.00  0.00    +0.000 OA
ATOM     36  C   UNL     1     112.039 124.650 137.276  0.00  0.00    +0.000 C 
ATOM     37  C   UNL     1     112.618 124.550 136.697  0.00  0.00    +0.000 C 
ENDBRANCH  34  36
ENDBRANCH   3  34
TORSDOF 7
ENDMDL
MODEL 8
REMARK VINA RESULT:      -8.4      2.913      4.865
REMARK  Name = 44257128
REMARK  7 active torsions:
REMARK  status: ('A' for Active; 'I' for Inactive)
REMARK    1  A    between atoms: O_2  and  C_18
REMARK    2  A    between atoms: O_2  and  C_25
REMARK    3  A    between atoms: O_7  and  C_19
REMARK    4  A    between atoms: O_7  and  C_32
REMARK    5  A    between atoms: O_9  and  C_27
REMARK    6  A    between atoms: C_17  and  C_23
REMARK    7  A    between atoms: C_20  and  C_26
REMARK                            x       y       z     vdW  Elec       q    Type
REMARK                         _______ _______ _______ _____ _____    ______ ____
ROOT
ATOM      1  O   UNL     1     112.874 128.034 137.397  0.00  0.00    +0.000 OA
ATOM      2  O   UNL     1     112.196 126.114 139.479  0.00  0.00    +0.000 OA
ATOM      3  C   UNL     1     112.001 129.129 137.111  0.00  0.00    +0.000 C 
ATOM      4  C   UNL     1     112.696 128.712 136.960  0.00  0.00    +0.000 C 
ATOM      5  C   UNL     1     111.483 128.870 137.698  0.00  0.00    +0.000 C 
ATOM      6  C   UNL     1     111.660 128.192 138.135  0.00  0.00    +0.000 A 
ATOM      7  C   UNL     1     112.356 127.775 137.984  0.00  0.00    +0.000 A 
ATOM      8  C   UNL     1     112.552 127.067 138.432  0.00  0.00    +0.000 A 
ATOM      9  C   UNL     1     111.112 127.932 138.743  0.00  0.00    +0.000 A 
ATOM     10  C   UNL     1     112.016 126.792 139.044  0.00  0.00    +0.000 A 
ATOM     11  C   UNL     1     111.292 127.227 139.201  0.00  0.00    +0.000 A 
ENDROOT
BRANCH   4  14
ATOM     12  O   UNL     1     114.975 130.247 136.171  0.00  0.00    +0.000 OA
ATOM     13  O   UNL     1     114.769 129.750 134.612  0.00  0.00    +0.000 OA
ATOM     14  C   UNL     1     113.214 128.972 136.374  0.00  0.00    +0.000 A 
ATOM     15  C   UNL     1     113.835 129.480 136.566  0.00  0.00    +0.000 A 
ATOM     16  C   UNL     1     113.112 128.723 135.593  0.00  0.00    +0.000 A 
ATOM     17  C   UNL     1     114.354 129.739 135.979  0.00  0.00    +0.000 A 
ATOM     18  C   UNL     1     113.630 128.982 135.007  0.00  0.00    +0.000 A 
ATOM     19  C   UNL     1     114.251 129.490 135.199  0.00  0.00    +0.000 A 
ENDBRANCH   4  14
BRANCH   9  20
ATOM     20  O   UNL     1     110.420 128.355 138.887  0.00  0.00    +0.000 OA
ATOM     21  C   UNL     1     109.905 128.114 139.486  0.00  0.00    +0.000 C 
ENDBRANCH   9  20
BRANCH   8  22
ATOM     22  O   UNL     1     113.249 126.656 138.274  0.00  0.00    +0.000 OA
BRANCH  22  31
ATOM     23  O   UNL     1     112.538 125.753 137.425  0.00  0.00    +0.000 OA
ATOM     24  O   UNL     1     114.540 124.305 137.289  0.00  0.00    +0.000 OA
ATOM     25  O   UNL     1     113.164 123.885 136.485  0.00  0.00    +0.000 OA
ATOM     26  O   UNL     1     114.584 125.690 138.184  0.00  0.00    +0.000 OA
ATOM     27  C   UNL     1     113.874 124.787 137.334  0.00  0.00    +0.000 C 
ATOM     28  C   UNL     1     113.185 124.578 136.933  0.00  0.00    +0.000 C 
ATOM     29  C   UNL     1     113.895 125.481 137.782  0.00  0.00    +0.000 C 
ATOM     30  C   UNL     1     112.517 125.061 136.978  0.00  0.00    +0.000 C 
ATOM     31  C   UNL     1     113.228 125.964 137.827  0.00  0.00    +0.000 C 
BRANCH  30  33
ATOM     32  O   UNL     1     111.561 125.314 135.946  0.00  0.00    +0.000 OA
ATOM     33  C   UNL     1     111.828 124.851 136.576  0.00  0.00    +0.000 C 
ENDBRANCH  30  33
ENDBRANCH  22  31
ENDBRANCH   8  22
BRANCH   3  34
ATOM     34  O   UNL     1     111.824 129.807 136.675  0.00  0.00    +0.000 OA
BRANCH  34  36
ATOM     35  O   UNL     1     111.294 130.810 137.544  0.00  0.00    +0.000 OA
ATOM     36  C   UNL     1     111.200 130.295 136.906  0.00  0.00    +0.000 C 
ATOM     37  C   UNL     1     110.482 130.267 136.500  0.00  0.00    +0.000 C 
ENDBRANCH  34  36
ENDBRANCH   3  34
TORSDOF 7
ENDMDL
MODEL 9
REMARK VINA RESULT:      -8.3      3.023      5.326
REMARK  Name = 44257128
REMARK  7 active torsions:
REMARK  status: ('A' for Active; 'I' for Inactive)
REMARK    1  A    between atoms: O_2  and  C_18
REMARK    2  A    between atoms: O_2  and  C_25
REMARK    3  A    between atoms: O_7  and  C_19
REMARK    4  A    between atoms: O_7  and  C_32
REMARK    5  A    between atoms: O_9  and  C_27
REMARK    6  A    between atoms: C_17  and  C_23
REMARK    7  A    between atoms: C_20  and  C_26
REMARK                            x       y       z     vdW  Elec       q    Type
REMARK                         _______ _______ _______ _____ _____    ______ ____
ROOT
ATOM      1  O   UNL     1     110.729 126.943 137.826  0.00  0.00    +0.000 OA
ATOM      2  O   UNL     1     109.260 128.751 139.573  0.00  0.00    +0.000 OA
ATOM      3  C   UNL     1     111.815 127.427 137.033  0.00  0.00    +0.000 C 
ATOM      4  C   UNL     1     111.330 126.806 137.276  0.00  0.00    +0.000 C 
ATOM      5  C   UNL     1     111.700 128.184 137.338  0.00  0.00    +0.000 C 
ATOM      6  C   UNL     1     111.100 128.322 137.887  0.00  0.00    +0.000 A 
ATOM      7  C   UNL     1     110.614 127.701 138.131  0.00  0.00    +0.000 A 
ATOM      8  C   UNL     1     109.985 127.830 138.703  0.00  0.00    +0.000 A 
ATOM      9  C   UNL     1     110.991 129.116 138.198  0.00  0.00    +0.000 A 
ATOM     10  C   UNL     1     109.861 128.617 139.024  0.00  0.00    +0.000 A 
ATOM     11  C   UNL     1     110.367 129.264 138.770  0.00  0.00    +0.000 A 
ENDROOT
BRANCH   4  14
ATOM     12  O   UNL     1     110.703 124.794 135.346  0.00  0.00    +0.000 OA
ATOM     13  O   UNL     1     111.788 123.774 136.056  0.00  0.00    +0.000 OA
ATOM     14  C   UNL     1     111.444 126.049 136.971  0.00  0.00    +0.000 A 
ATOM     15  C   UNL     1     111.017 125.800 136.311  0.00  0.00    +0.000 A 
ATOM     16  C   UNL     1     111.987 125.538 137.326  0.00  0.00    +0.000 A 
ATOM     17  C   UNL     1     111.131 125.042 136.006  0.00  0.00    +0.000 A 
ATOM     18  C   UNL     1     112.102 124.781 137.021  0.00  0.00    +0.000 A 
ATOM     19  C   UNL     1     111.674 124.532 136.361  0.00  0.00    +0.000 A 
ENDBRANCH   4  14
BRANCH   9  20
ATOM     20  O   UNL     1     111.480 129.730 137.949  0.00  0.00    +0.000 OA
ATOM     21  C   UNL     1     111.393 130.484 138.272  0.00  0.00    +0.000 C 
ENDBRANCH   9  20
BRANCH   8  22
ATOM     22  O   UNL     1     109.505 127.204 138.940  0.00  0.00    +0.000 OA
BRANCH  22  31
ATOM     23  O   UNL     1     110.358 126.966 140.062  0.00  0.00    +0.000 OA
ATOM     24  O   UNL     1     108.732 125.323 140.948  0.00  0.00    +0.000 OA
ATOM     25  O   UNL     1     110.126 125.632 141.774  0.00  0.00    +0.000 OA
ATOM     26  O   UNL     1     108.421 126.108 139.532  0.00  0.00    +0.000 OA
ATOM     27  C   UNL     1     109.274 125.870 140.653  0.00  0.00    +0.000 C 
ATOM     28  C   UNL     1     109.971 126.025 141.066  0.00  0.00    +0.000 C 
ATOM     29  C   UNL     1     109.118 126.263 139.944  0.00  0.00    +0.000 C 
ATOM     30  C   UNL     1     110.513 126.572 140.770  0.00  0.00    +0.000 C 
ATOM     31  C   UNL     1     109.660 126.811 139.649  0.00  0.00    +0.000 C 
BRANCH  30  33
ATOM     32  O   UNL     1     111.927 126.422 140.909  0.00  0.00    +0.000 OA
ATOM     33  C   UNL     1     111.210 126.727 141.183  0.00  0.00    +0.000 C 
ENDBRANCH  30  33
ENDBRANCH  22  31
ENDBRANCH   8  22
BRANCH   3  34
ATOM     34  O   UNL     1     112.416 127.290 136.483  0.00  0.00    +0.000 OA
BRANCH  34  36
ATOM     35  O   UNL     1     112.408 128.346 135.521  0.00  0.00    +0.000 OA
ATOM     36  C   UNL     1     112.793 127.927 136.118  0.00  0.00    +0.000 C 
ATOM     37  C   UNL     1     113.554 128.142 136.350  0.00  0.00    +0.000 C 
ENDBRANCH  34  36
ENDBRANCH   3  34
TORSDOF 7
ENDMDL
MODEL 10
REMARK VINA RESULT:      -8.2      2.265      5.114
REMARK  Name = 44257128
REMARK  7 active torsions:
REMARK  status: ('A' for Active; 'I' for Inactive)
REMARK    1  A    between atoms: O_2  and  C_18
REMARK    2  A    between atoms: O_2  and  C_25
REMARK    3  A    between atoms: O_7  and  C_19
REMARK    4  A    between atoms: O_7  and  C_32
REMARK    5  A    between atoms: O_9  and  C_27
REMARK    6  A    between atoms: C_17  and  C_23
REMARK    7  A    between atoms: C_20  and  C_26
REMARK                            x       y       z     vdW  Elec       q    Type
REMARK                         _______ _______ _______ _____ _____    ______ ____
ROOT
ATOM      1  O   UNL     1     111.761 127.934 137.539  0.00  0.00    +0.000 OA
ATOM      2  O   UNL     1     112.127 130.480 136.174  0.00  0.00    +0.000 OA
ATOM      3  C   UNL     1     112.680 126.861 137.327  0.00  0.00    +0.000 C 
ATOM      4  C   UNL     1     112.005 127.161 137.693  0.00  0.00    +0.000 C 
ATOM      5  C   UNL     1     113.112 127.334 136.807  0.00  0.00    +0.000 C 
ATOM      6  C   UNL     1     112.869 128.107 136.652  0.00  0.00    +0.000 A 
ATOM      7  C   UNL     1     112.193 128.407 137.019  0.00  0.00    +0.000 A 
ATOM      8  C   UNL     1     111.928 129.211 136.867  0.00  0.00    +0.000 A 
ATOM      9  C   UNL     1     113.327 128.590 136.109  0.00  0.00    +0.000 A 
ATOM     10  C   UNL     1     112.374 129.708 136.326  0.00  0.00    +0.000 A 
ATOM     11  C   UNL     1     113.077 129.395 135.945  0.00  0.00    +0.000 A 
ENDROOT
BRANCH   4  14
ATOM     12  O   UNL     1     111.505 126.211 140.342  0.00  0.00    +0.000 OA
ATOM     13  O   UNL     1     110.276 125.270 139.773  0.00  0.00    +0.000 OA
ATOM     14  C   UNL     1     111.573 126.688 138.213  0.00  0.00    +0.000 A 
ATOM     15  C   UNL     1     111.755 126.686 139.017  0.00  0.00    +0.000 A 
ATOM     16  C   UNL     1     110.958 126.217 137.928  0.00  0.00    +0.000 A 
ATOM     17  C   UNL     1     111.323 126.214 139.537  0.00  0.00    +0.000 A 
ATOM     18  C   UNL     1     110.526 125.744 138.448  0.00  0.00    +0.000 A 
ATOM     19  C   UNL     1     110.708 125.742 139.253  0.00  0.00    +0.000 A 
ENDBRANCH   4  14
BRANCH   9  20
ATOM     20  O   UNL     1     114.001 128.282 135.748  0.00  0.00    +0.000 OA
ATOM     21  C   UNL     1     114.481 128.769 135.287  0.00  0.00    +0.000 C 
ENDBRANCH   9  20
BRANCH   8  22
ATOM     22  O   UNL     1     111.252 129.502 137.237  0.00  0.00    +0.000 OA
BRANCH  22  31
ATOM     23  O   UNL     1     110.479 129.180 136.078  0.00  0.00    +0.000 OA
ATOM     24  O   UNL     1     108.462 130.120 137.163  0.00  0.00    +0.000 OA
ATOM     25  O   UNL     1     108.361 129.485 135.644  0.00  0.00    +0.000 OA
ATOM     26  O   UNL     1     109.906 130.129 137.960  0.00  0.00    +0.000 OA
ATOM     27  C   UNL     1     109.134 129.807 136.802  0.00  0.00    +0.000 C 
ATOM     28  C   UNL     1     109.084 129.489 136.042  0.00  0.00    +0.000 C 
ATOM     29  C   UNL     1     109.857 129.811 137.200  0.00  0.00    +0.000 C 
ATOM     30  C   UNL     1     109.756 129.176 135.681  0.00  0.00    +0.000 C 
ATOM     31  C   UNL     1     110.529 129.498 136.839  0.00  0.00    +0.000 C 
BRANCH  30  33
ATOM     32  O   UNL     1     109.784 128.044 134.809  0.00  0.00    +0.000 OA
ATOM     33  C   UNL     1     109.707 128.858 134.921  0.00  0.00    +0.000 C 
ENDBRANCH  30  33
ENDBRANCH  22  31
ENDBRANCH   8  22
BRANCH   3  34
ATOM     34  O   UNL     1     112.925 126.088 137.481  0.00  0.00    +0.000 OA
BRANCH  34  36
ATOM     35  O   UNL     1     113.355 125.476 136.263  0.00  0.00    +0.000 OA
ATOM     36  C   UNL     1     113.521 125.745 137.025  0.00  0.00    +0.000 C 
ATOM     37  C   UNL     1     114.283 125.672 137.332  0.00  0.00    +0.000 C 
ENDBRANCH  34  36
ENDBRANCH   3  34
TORSDOF 7
ENDMDL
