MODEL 1
REMARK VINA RESULT:     -11.8      0.000      0.000
REMARK  Name = 131838617
REMARK  13 active torsions:
REMARK  status: ('A' for Active; 'I' for Inactive)
REMARK    1  A    between atoms: O_1  and  C_23
REMARK    2  A    between atoms: O_1  and  C_25
REMARK    3  A    between atoms: O_7  and  C_28
REMARK    4  A    between atoms: O_7  and  C_33
REMARK    5  A    between atoms: O_9  and  C_31
REMARK    6  A    between atoms: O_9  and  C_39
REMARK    7  A    between atoms: O_12  and  C_37
REMARK    8  A    between atoms: O_12  and  C_49
REMARK    9  A    between atoms: C_22  and  C_31
REMARK   10  A    between atoms: C_30  and  C_32
REMARK   11  A    between atoms: C_38  and  C_48
REMARK   12  A    between atoms: C_39  and  C_46
REMARK   13  A    between atoms: C_42  and  C_43
REMARK                            x       y       z     vdW  Elec       q    Type
REMARK                         _______ _______ _______ _____ _____    ______ ____
ROOT
ATOM      1  O   UNL     1     108.592 127.691 142.552  0.00  0.00    +0.000 OA
ENDROOT
BRANCH   1   8
ATOM      2  O   UNL     1     108.188 128.854 141.825  0.00  0.00    +0.000 OA
ATOM      3  O   UNL     1     105.814 128.249 142.176  0.00  0.00    +0.000 OA
ATOM      4  O   UNL     1     106.202 129.612 141.333  0.00  0.00    +0.000 OA
ATOM      5  C   UNL     1     107.202 127.970 142.364  0.00  0.00    +0.000 C 
ATOM      6  C   UNL     1     106.605 128.450 142.059  0.00  0.00    +0.000 C 
ATOM      7  C   UNL     1     106.799 129.132 141.637  0.00  0.00    +0.000 C 
ATOM      8  C   UNL     1     107.994 128.171 142.247  0.00  0.00    +0.000 C 
ATOM      9  C   UNL     1     107.590 129.334 141.521  0.00  0.00    +0.000 C 
BRANCH   9  11
ATOM     10  O   UNL     1     108.048 129.956 140.319  0.00  0.00    +0.000 OA
ATOM     11  C   UNL     1     107.785 130.015 141.099  0.00  0.00    +0.000 C 
ENDBRANCH   9  11
BRANCH   5  12
ATOM     12  O   UNL     1     107.009 127.288 142.786  0.00  0.00    +0.000 OA
BRANCH  12  18
ATOM     13  O   UNL     1     106.785 128.028 144.036  0.00  0.00    +0.000 OA
ATOM     14  O   UNL     1     106.384 127.044 145.657  0.00  0.00    +0.000 OA
ATOM     15  O   UNL     1     106.696 125.901 143.881  0.00  0.00    +0.000 OA
ATOM     16  C   UNL     1     106.552 126.997 144.851  0.00  0.00    +0.000 C 
ATOM     17  C   UNL     1     106.696 126.697 144.095  0.00  0.00    +0.000 C 
ATOM     18  C   UNL     1     106.840 127.335 143.592  0.00  0.00    +0.000 C 
ATOM     19  C   UNL     1     106.607 127.819 144.814  0.00  0.00    +0.000 C 
BRANCH  16  20
ATOM     20  C   UNL     1     106.448 126.229 145.135  0.00  0.00    +0.000 C 
BRANCH  20  21
ATOM     21  O   UNL     1     106.462 126.085 145.947  0.00  0.00    +0.000 OA
BRANCH  21  23
ATOM     22  O   UNL     1     106.696 124.692 145.720  0.00  0.00    +0.000 OA
ATOM     23  C   UNL     1     106.485 125.309 146.227  0.00  0.00    +0.000 C 
BRANCH  23  25
ATOM     24  N   UNL     1     105.607 124.932 148.128  0.00  0.00    +0.000 NA
ATOM     25  C   UNL     1     106.297 125.149 147.015  0.00  0.00    +0.000 A 
ATOM     26  C   UNL     1     106.833 125.011 147.619  0.00  0.00    +0.000 A 
ATOM     27  C   UNL     1     105.541 125.101 147.329  0.00  0.00    +0.000 A 
ATOM     28  C   UNL     1     106.405 124.877 148.312  0.00  0.00    +0.000 A 
ATOM     29  C   UNL     1     107.658 124.990 147.634  0.00  0.00    +0.000 A 
ATOM     30  C   UNL     1     106.801 124.721 149.018  0.00  0.00    +0.000 A 
ATOM     31  C   UNL     1     108.054 124.834 148.341  0.00  0.00    +0.000 A 
ATOM     32  C   UNL     1     107.626 124.699 149.032  0.00  0.00    +0.000 A 
ENDBRANCH  23  25
ENDBRANCH  21  23
ENDBRANCH  20  21
ENDBRANCH  16  20
ENDBRANCH  12  18
ENDBRANCH   5  12
ENDBRANCH   1   8
BRANCH   1  33
ATOM     33  C   UNL     1     109.272 127.546 142.108  0.00  0.00    +0.000 A 
ATOM     34  C   UNL     1     109.272 126.949 141.539  0.00  0.00    +0.000 A 
ATOM     35  C   UNL     1     109.949 127.998 142.233  0.00  0.00    +0.000 A 
ATOM     36  C   UNL     1     110.631 127.256 141.219  0.00  0.00    +0.000 A 
ATOM     37  C   UNL     1     109.952 126.803 141.095  0.00  0.00    +0.000 A 
ATOM     38  C   UNL     1     110.629 127.853 141.788  0.00  0.00    +0.000 A 
BRANCH  36  41
ATOM     39  O   UNL     1     111.278 127.135 139.951  0.00  0.00    +0.000 OA
ATOM     40  O   UNL     1     113.417 126.629 141.091  0.00  0.00    +0.000 OA
ATOM     41  C   UNL     1     111.311 127.111 140.775  0.00  0.00    +0.000 C 
ATOM     42  C   UNL     1     112.023 126.943 141.155  0.00  0.00    +0.000 C 
ATOM     43  C   UNL     1     112.615 126.866 138.181  0.00  0.00    +0.000 A 
ATOM     44  C   UNL     1     111.958 126.989 139.507  0.00  0.00    +0.000 A 
ATOM     45  C   UNL     1     112.671 126.821 139.887  0.00  0.00    +0.000 A 
ATOM     46  C   UNL     1     112.703 126.798 140.711  0.00  0.00    +0.000 C 
ATOM     47  C   UNL     1     111.910 127.017 138.649  0.00  0.00    +0.000 A 
ATOM     48  C   UNL     1     113.358 126.691 138.577  0.00  0.00    +0.000 A 
ATOM     49  C   UNL     1     113.386 126.668 139.435  0.00  0.00    +0.000 A 
BRANCH  43  50
ATOM     50  O   UNL     1     112.579 126.890 137.357  0.00  0.00    +0.000 OA
BRANCH  50  58
ATOM     51  O   UNL     1     112.370 125.490 137.165  0.00  0.00    +0.000 OA
ATOM     52  O   UNL     1     110.882 125.975 135.248  0.00  0.00    +0.000 OA
ATOM     53  O   UNL     1     111.587 127.213 136.080  0.00  0.00    +0.000 OA
ATOM     54  O   UNL     1     111.169 124.413 135.695  0.00  0.00    +0.000 OA
ATOM     55  C   UNL     1     111.378 125.813 135.887  0.00  0.00    +0.000 C 
ATOM     56  C   UNL     1     111.731 126.432 136.303  0.00  0.00    +0.000 C 
ATOM     57  C   UNL     1     111.522 125.032 136.111  0.00  0.00    +0.000 C 
ATOM     58  C   UNL     1     112.227 126.271 136.942  0.00  0.00    +0.000 C 
ATOM     59  C   UNL     1     112.018 124.870 136.750  0.00  0.00    +0.000 C 
BRANCH  59  62
ATOM     60  O   UNL     1     111.628 123.696 137.464  0.00  0.00    +0.000 OA
ATOM     61  O   UNL     1     112.838 123.701 136.704  0.00  0.00    +0.000 OA
ATOM     62  C   UNL     1     112.161 124.089 136.973  0.00  0.00    +0.000 C 
ENDBRANCH  59  62
ENDBRANCH  50  58
ENDBRANCH  43  50
ENDBRANCH  36  41
ENDBRANCH   1  33
TORSDOF 13
ENDMDL
MODEL 2
REMARK VINA RESULT:     -11.7      4.649      8.303
REMARK  Name = 131838617
REMARK  13 active torsions:
REMARK  status: ('A' for Active; 'I' for Inactive)
REMARK    1  A    between atoms: O_1  and  C_23
REMARK    2  A    between atoms: O_1  and  C_25
REMARK    3  A    between atoms: O_7  and  C_28
REMARK    4  A    between atoms: O_7  and  C_33
REMARK    5  A    between atoms: O_9  and  C_31
REMARK    6  A    between atoms: O_9  and  C_39
REMARK    7  A    between atoms: O_12  and  C_37
REMARK    8  A    between atoms: O_12  and  C_49
REMARK    9  A    between atoms: C_22  and  C_31
REMARK   10  A    between atoms: C_30  and  C_32
REMARK   11  A    between atoms: C_38  and  C_48
REMARK   12  A    between atoms: C_39  and  C_46
REMARK   13  A    between atoms: C_42  and  C_43
REMARK                            x       y       z     vdW  Elec       q    Type
REMARK                         _______ _______ _______ _____ _____    ______ ____
ROOT
ATOM      1  O   UNL     1     105.029 128.116 142.954  0.00  0.00    +0.000 OA
ENDROOT
BRANCH   1   8
ATOM      2  O   UNL     1     106.216 128.637 142.352  0.00  0.00    +0.000 OA
ATOM      3  O   UNL     1     107.574 127.642 144.166  0.00  0.00    +0.000 OA
ATOM      4  O   UNL     1     108.307 128.494 142.960  0.00  0.00    +0.000 OA
ATOM      5  C   UNL     1     106.301 127.878 143.561  0.00  0.00    +0.000 C 
ATOM      6  C   UNL     1     107.121 127.973 143.561  0.00  0.00    +0.000 C 
ATOM      7  C   UNL     1     107.488 128.400 142.959  0.00  0.00    +0.000 C 
ATOM      8  C   UNL     1     105.849 128.210 142.956  0.00  0.00    +0.000 C 
ATOM      9  C   UNL     1     107.035 128.731 142.354  0.00  0.00    +0.000 C 
BRANCH   9  11
ATOM     10  O   UNL     1     107.276 128.947 140.962  0.00  0.00    +0.000 OA
ATOM     11  C   UNL     1     107.402 129.158 141.750  0.00  0.00    +0.000 C 
ENDBRANCH   9  11
BRANCH   5  12
ATOM     12  O   UNL     1     105.934 127.452 144.163  0.00  0.00    +0.000 OA
BRANCH  12  18
ATOM     13  O   UNL     1     106.148 126.161 143.492  0.00  0.00    +0.000 OA
ATOM     14  O   UNL     1     105.669 124.526 144.416  0.00  0.00    +0.000 OA
ATOM     15  O   UNL     1     105.330 126.360 145.454  0.00  0.00    +0.000 OA
ATOM     16  C   UNL     1     105.699 125.349 144.452  0.00  0.00    +0.000 C 
ATOM     17  C   UNL     1     105.627 126.127 144.721  0.00  0.00    +0.000 C 
ATOM     18  C   UNL     1     105.905 126.628 144.128  0.00  0.00    +0.000 C 
ATOM     19  C   UNL     1     106.021 125.372 143.693  0.00  0.00    +0.000 C 
BRANCH  16  20
ATOM     20  C   UNL     1     105.384 125.074 145.163  0.00  0.00    +0.000 C 
BRANCH  20  21
ATOM     21  O   UNL     1     104.822 124.471 145.159  0.00  0.00    +0.000 OA
BRANCH  21  23
ATOM     22  O   UNL     1     105.109 124.148 146.522  0.00  0.00    +0.000 OA
ATOM     23  C   UNL     1     104.613 124.097 145.864  0.00  0.00    +0.000 C 
BRANCH  23  25
ATOM     24  N   UNL     1     102.970 122.755 145.702  0.00  0.00    +0.000 NA
ATOM     25  C   UNL     1     103.908 123.671 145.912  0.00  0.00    +0.000 A 
ATOM     26  C   UNL     1     103.270 123.849 146.395  0.00  0.00    +0.000 A 
ATOM     27  C   UNL     1     103.723 122.996 145.484  0.00  0.00    +0.000 A 
ATOM     28  C   UNL     1     102.687 123.280 146.265  0.00  0.00    +0.000 A 
ATOM     29  C   UNL     1     103.139 124.455 146.939  0.00  0.00    +0.000 A 
ATOM     30  C   UNL     1     101.974 123.317 146.679  0.00  0.00    +0.000 A 
ATOM     31  C   UNL     1     102.426 124.493 147.353  0.00  0.00    +0.000 A 
ATOM     32  C   UNL     1     101.844 123.924 147.223  0.00  0.00    +0.000 A 
ENDBRANCH  23  25
ENDBRANCH  21  23
ENDBRANCH  20  21
ENDBRANCH  16  20
ENDBRANCH  12  18
ENDBRANCH   5  12
ENDBRANCH   1   8
BRANCH   1  33
ATOM     33  C   UNL     1     104.540 128.755 142.773  0.00  0.00    +0.000 A 
ATOM     34  C   UNL     1     104.206 128.818 142.021  0.00  0.00    +0.000 A 
ATOM     35  C   UNL     1     104.386 129.330 143.343  0.00  0.00    +0.000 A 
ATOM     36  C   UNL     1     103.562 130.034 142.410  0.00  0.00    +0.000 A 
ATOM     37  C   UNL     1     103.717 129.457 141.840  0.00  0.00    +0.000 A 
ATOM     38  C   UNL     1     103.897 129.969 143.162  0.00  0.00    +0.000 A 
BRANCH  36  41
ATOM     39  O   UNL     1     103.369 131.442 142.270  0.00  0.00    +0.000 OA
ATOM     40  O   UNL     1     101.017 131.052 141.604  0.00  0.00    +0.000 OA
ATOM     41  C   UNL     1     103.073 130.673 142.229  0.00  0.00    +0.000 C 
ATOM     42  C   UNL     1     102.290 130.543 142.008  0.00  0.00    +0.000 C 
ATOM     43  C   UNL     1     102.694 133.548 141.948  0.00  0.00    +0.000 A 
ATOM     44  C   UNL     1     102.880 132.081 142.089  0.00  0.00    +0.000 A 
ATOM     45  C   UNL     1     102.095 131.951 141.867  0.00  0.00    +0.000 A 
ATOM     46  C   UNL     1     101.801 131.182 141.826  0.00  0.00    +0.000 C 
ATOM     47  C   UNL     1     103.199 132.878 142.136  0.00  0.00    +0.000 A 
ATOM     48  C   UNL     1     101.878 133.412 141.717  0.00  0.00    +0.000 A 
ATOM     49  C   UNL     1     101.576 132.609 141.676  0.00  0.00    +0.000 A 
BRANCH  43  50
ATOM     50  O   UNL     1     102.992 134.316 141.990  0.00  0.00    +0.000 OA
BRANCH  50  58
ATOM     51  O   UNL     1     103.351 134.402 140.610  0.00  0.00    +0.000 OA
ATOM     52  O   UNL     1     105.285 135.828 141.201  0.00  0.00    +0.000 OA
ATOM     53  O   UNL     1     104.281 135.267 142.384  0.00  0.00    +0.000 OA
ATOM     54  O   UNL     1     104.999 135.439 139.623  0.00  0.00    +0.000 OA
ATOM     55  C   UNL     1     104.640 135.353 141.003  0.00  0.00    +0.000 C 
ATOM     56  C   UNL     1     104.138 135.072 141.595  0.00  0.00    +0.000 C 
ATOM     57  C   UNL     1     104.497 135.158 140.215  0.00  0.00    +0.000 C 
ATOM     58  C   UNL     1     103.494 134.597 141.399  0.00  0.00    +0.000 C 
ATOM     59  C   UNL     1     103.853 134.682 140.017  0.00  0.00    +0.000 C 
BRANCH  59  62
ATOM     60  O   UNL     1     103.246 134.983 138.759  0.00  0.00    +0.000 OA
ATOM     61  O   UNL     1     104.031 133.798 138.909  0.00  0.00    +0.000 OA
ATOM     62  C   UNL     1     103.710 134.488 139.228  0.00  0.00    +0.000 C 
ENDBRANCH  59  62
ENDBRANCH  50  58
ENDBRANCH  43  50
ENDBRANCH  36  41
ENDBRANCH   1  33
TORSDOF 13
ENDMDL
MODEL 3
REMARK VINA RESULT:     -11.6      4.031      5.292
REMARK  Name = 131838617
REMARK  13 active torsions:
REMARK  status: ('A' for Active; 'I' for Inactive)
REMARK    1  A    between atoms: O_1  and  C_23
REMARK    2  A    between atoms: O_1  and  C_25
REMARK    3  A    between atoms: O_7  and  C_28
REMARK    4  A    between atoms: O_7  and  C_33
REMARK    5  A    between atoms: O_9  and  C_31
REMARK    6  A    between atoms: O_9  and  C_39
REMARK    7  A    between atoms: O_12  and  C_37
REMARK    8  A    between atoms: O_12  and  C_49
REMARK    9  A    between atoms: C_22  and  C_31
REMARK   10  A    between atoms: C_30  and  C_32
REMARK   11  A    between atoms: C_38  and  C_48
REMARK   12  A    between atoms: C_39  and  C_46
REMARK   13  A    between atoms: C_42  and  C_43
REMARK                            x       y       z     vdW  Elec       q    Type
REMARK                         _______ _______ _______ _____ _____    ______ ____
ROOT
ATOM      1  O   UNL     1     111.401 129.598 141.834  0.00  0.00    +0.000 OA
ENDROOT
BRANCH   1   8
ATOM      2  O   UNL     1     110.448 128.536 141.751  0.00  0.00    +0.000 OA
ATOM      3  O   UNL     1     109.054 129.655 143.463  0.00  0.00    +0.000 OA
ATOM      4  O   UNL     1     108.566 128.221 142.809  0.00  0.00    +0.000 OA
ATOM      5  C   UNL     1     110.227 129.627 142.649  0.00  0.00    +0.000 C 
ATOM      6  C   UNL     1     109.518 129.282 142.892  0.00  0.00    +0.000 C 
ATOM      7  C   UNL     1     109.274 128.566 142.566  0.00  0.00    +0.000 C 
ATOM      8  C   UNL     1     110.692 129.254 142.078  0.00  0.00    +0.000 C 
ATOM      9  C   UNL     1     109.739 128.193 141.995  0.00  0.00    +0.000 C 
BRANCH   9  11
ATOM     10  O   UNL     1     109.941 126.792 141.795  0.00  0.00    +0.000 OA
ATOM     11  C   UNL     1     109.495 127.476 141.668  0.00  0.00    +0.000 C 
ENDBRANCH   9  11
BRANCH   5  12
ATOM     12  O   UNL     1     110.472 130.343 142.975  0.00  0.00    +0.000 OA
BRANCH  12  18
ATOM     13  O   UNL     1     111.134 129.690 144.114  0.00  0.00    +0.000 OA
ATOM     14  O   UNL     1     111.911 130.788 145.509  0.00  0.00    +0.000 OA
ATOM     15  O   UNL     1     110.967 131.807 143.889  0.00  0.00    +0.000 OA
ATOM     16  C   UNL     1     111.502 130.779 144.794  0.00  0.00    +0.000 C 
ATOM     17  C   UNL     1     111.108 131.026 144.111  0.00  0.00    +0.000 C 
ATOM     18  C   UNL     1     110.881 130.353 143.691  0.00  0.00    +0.000 C 
ATOM     19  C   UNL     1     111.518 129.954 144.794  0.00  0.00    +0.000 C 
BRANCH  16  20
ATOM     20  C   UNL     1     111.614 131.566 145.014  0.00  0.00    +0.000 C 
BRANCH  20  21
ATOM     21  O   UNL     1     111.659 131.768 145.812  0.00  0.00    +0.000 OA
BRANCH  21  23
ATOM     22  O   UNL     1     112.425 132.951 145.563  0.00  0.00    +0.000 OA
ATOM     23  C   UNL     1     111.891 132.529 146.032  0.00  0.00    +0.000 C 
BRANCH  23  25
ATOM     24  N   UNL     1     110.799 133.525 147.563  0.00  0.00    +0.000 NA
ATOM     25  C   UNL     1     111.589 132.869 146.720  0.00  0.00    +0.000 A 
ATOM     26  C   UNL     1     111.941 132.850 147.461  0.00  0.00    +0.000 A 
ATOM     27  C   UNL     1     110.885 133.286 146.783  0.00  0.00    +0.000 A 
ATOM     28  C   UNL     1     111.450 133.258 147.985  0.00  0.00    +0.000 A 
ATOM     29  C   UNL     1     112.644 132.516 147.732  0.00  0.00    +0.000 A 
ATOM     30  C   UNL     1     111.663 133.330 148.778  0.00  0.00    +0.000 A 
ATOM     31  C   UNL     1     112.858 132.588 148.525  0.00  0.00    +0.000 A 
ATOM     32  C   UNL     1     112.367 132.995 149.048  0.00  0.00    +0.000 A 
ENDBRANCH  23  25
ENDBRANCH  21  23
ENDBRANCH  20  21
ENDBRANCH  16  20
ENDBRANCH  12  18
ENDBRANCH   5  12
ENDBRANCH   1   8
BRANCH   1  33
ATOM     33  C   UNL     1     111.687 129.458 141.072  0.00  0.00    +0.000 A 
ATOM     34  C   UNL     1     111.347 129.845 140.427  0.00  0.00    +0.000 A 
ATOM     35  C   UNL     1     112.311 128.933 140.956  0.00  0.00    +0.000 A 
ATOM     36  C   UNL     1     112.259 129.180 139.550  0.00  0.00    +0.000 A 
ATOM     37  C   UNL     1     111.633 129.706 139.666  0.00  0.00    +0.000 A 
ATOM     38  C   UNL     1     112.597 128.794 140.195  0.00  0.00    +0.000 A 
BRANCH  36  41
ATOM     39  O   UNL     1     112.302 128.370 138.374  0.00  0.00    +0.000 OA
ATOM     40  O   UNL     1     113.887 129.963 137.335  0.00  0.00    +0.000 OA
ATOM     41  C   UNL     1     112.544 129.040 138.789  0.00  0.00    +0.000 C 
ATOM     42  C   UNL     1     113.072 129.571 138.443  0.00  0.00    +0.000 C 
ATOM     43  C   UNL     1     112.622 127.378 136.397  0.00  0.00    +0.000 A 
ATOM     44  C   UNL     1     112.587 128.230 137.612  0.00  0.00    +0.000 A 
ATOM     45  C   UNL     1     113.116 128.762 137.266  0.00  0.00    +0.000 A 
ATOM     46  C   UNL     1     113.358 129.432 137.682  0.00  0.00    +0.000 C 
ATOM     47  C   UNL     1     112.327 127.528 137.190  0.00  0.00    +0.000 A 
ATOM     48  C   UNL     1     113.172 127.931 136.037  0.00  0.00    +0.000 A 
ATOM     49  C   UNL     1     113.421 128.628 136.474  0.00  0.00    +0.000 A 
BRANCH  43  50
ATOM     50  O   UNL     1     112.378 126.707 135.984  0.00  0.00    +0.000 OA
BRANCH  50  58
ATOM     51  O   UNL     1     113.424 125.846 136.437  0.00  0.00    +0.000 OA
ATOM     52  O   UNL     1     111.836 123.948 136.499  0.00  0.00    +0.000 OA
ATOM     53  O   UNL     1     111.320 125.442 136.025  0.00  0.00    +0.000 OA
ATOM     54  O   UNL     1     113.412 123.720 136.932  0.00  0.00    +0.000 OA
ATOM     55  C   UNL     1     112.366 124.581 136.479  0.00  0.00    +0.000 C 
ATOM     56  C   UNL     1     112.108 125.328 136.242  0.00  0.00    +0.000 C 
ATOM     57  C   UNL     1     113.153 124.467 136.695  0.00  0.00    +0.000 C 
ATOM     58  C   UNL     1     112.636 125.960 136.221  0.00  0.00    +0.000 C 
ATOM     59  C   UNL     1     113.683 125.099 136.674  0.00  0.00    +0.000 C 
BRANCH  59  62
ATOM     60  O   UNL     1     115.047 124.876 136.310  0.00  0.00    +0.000 OA
ATOM     61  O   UNL     1     114.683 124.979 137.688  0.00  0.00    +0.000 OA
ATOM     62  C   UNL     1     114.471 124.985 136.891  0.00  0.00    +0.000 C 
ENDBRANCH  59  62
ENDBRANCH  50  58
ENDBRANCH  43  50
ENDBRANCH  36  41
ENDBRANCH   1  33
TORSDOF 13
ENDMDL
MODEL 4
REMARK VINA RESULT:     -11.4      1.527      2.423
REMARK  Name = 131838617
REMARK  13 active torsions:
REMARK  status: ('A' for Active; 'I' for Inactive)
REMARK    1  A    between atoms: O_1  and  C_23
REMARK    2  A    between atoms: O_1  and  C_25
REMARK    3  A    between atoms: O_7  and  C_28
REMARK    4  A    between atoms: O_7  and  C_33
REMARK    5  A    between atoms: O_9  and  C_31
REMARK    6  A    between atoms: O_9  and  C_39
REMARK    7  A    between atoms: O_12  and  C_37
REMARK    8  A    between atoms: O_12  and  C_49
REMARK    9  A    between atoms: C_22  and  C_31
REMARK   10  A    between atoms: C_30  and  C_32
REMARK   11  A    between atoms: C_38  and  C_48
REMARK   12  A    between atoms: C_39  and  C_46
REMARK   13  A    between atoms: C_42  and  C_43
REMARK                            x       y       z     vdW  Elec       q    Type
REMARK                         _______ _______ _______ _____ _____    ______ ____
ROOT
ATOM      1  O   UNL     1     108.475 127.742 142.580  0.00  0.00    +0.000 OA
ENDROOT
BRANCH   1   8
ATOM      2  O   UNL     1     108.016 128.900 141.880  0.00  0.00    +0.000 OA
ATOM      3  O   UNL     1     105.672 128.213 142.277  0.00  0.00    +0.000 OA
ATOM      4  O   UNL     1     105.996 129.600 141.445  0.00  0.00    +0.000 OA
ATOM      5  C   UNL     1     107.073 127.977 142.429  0.00  0.00    +0.000 C 
ATOM      6  C   UNL     1     106.453 128.442 142.145  0.00  0.00    +0.000 C 
ATOM      7  C   UNL     1     106.615 129.135 141.729  0.00  0.00    +0.000 C 
ATOM      8  C   UNL     1     107.854 128.206 142.297  0.00  0.00    +0.000 C 
ATOM      9  C   UNL     1     107.396 129.364 141.596  0.00  0.00    +0.000 C 
BRANCH   9  11
ATOM     10  O   UNL     1     107.830 130.017 140.401  0.00  0.00    +0.000 OA
ATOM     11  C   UNL     1     107.558 130.058 141.180  0.00  0.00    +0.000 C 
ENDBRANCH   9  11
BRANCH   5  12
ATOM     12  O   UNL     1     106.912 127.284 142.845  0.00  0.00    +0.000 OA
BRANCH  12  18
ATOM     13  O   UNL     1     106.685 128.000 144.109  0.00  0.00    +0.000 OA
ATOM     14  O   UNL     1     106.351 126.982 145.724  0.00  0.00    +0.000 OA
ATOM     15  O   UNL     1     106.672 125.873 143.929  0.00  0.00    +0.000 OA
ATOM     16  C   UNL     1     106.506 126.951 144.915  0.00  0.00    +0.000 C 
ATOM     17  C   UNL     1     106.646 126.666 144.152  0.00  0.00    +0.000 C 
ATOM     18  C   UNL     1     106.757 127.314 143.655  0.00  0.00    +0.000 C 
ATOM     19  C   UNL     1     106.530 127.775 144.887  0.00  0.00    +0.000 C 
BRANCH  16  20
ATOM     20  C   UNL     1     106.436 126.177 145.191  0.00  0.00    +0.000 C 
BRANCH  20  21
ATOM     21  O   UNL     1     106.436 126.027 146.002  0.00  0.00    +0.000 OA
BRANCH  21  23
ATOM     22  O   UNL     1     106.692 124.640 145.769  0.00  0.00    +0.000 OA
ATOM     23  C   UNL     1     106.468 125.250 146.278  0.00  0.00    +0.000 C 
BRANCH  23  25
ATOM     24  N   UNL     1     105.581 124.843 148.168  0.00  0.00    +0.000 NA
ATOM     25  C   UNL     1     106.276 125.082 147.063  0.00  0.00    +0.000 A 
ATOM     26  C   UNL     1     106.810 124.957 147.673  0.00  0.00    +0.000 A 
ATOM     27  C   UNL     1     105.518 125.012 147.369  0.00  0.00    +0.000 A 
ATOM     28  C   UNL     1     106.378 124.808 148.360  0.00  0.00    +0.000 A 
ATOM     29  C   UNL     1     107.634 124.957 147.696  0.00  0.00    +0.000 A 
ATOM     30  C   UNL     1     106.770 124.660 149.070  0.00  0.00    +0.000 A 
ATOM     31  C   UNL     1     108.028 124.809 148.406  0.00  0.00    +0.000 A 
ATOM     32  C   UNL     1     107.596 124.661 149.093  0.00  0.00    +0.000 A 
ENDBRANCH  23  25
ENDBRANCH  21  23
ENDBRANCH  20  21
ENDBRANCH  16  20
ENDBRANCH  12  18
ENDBRANCH   5  12
ENDBRANCH   1   8
BRANCH   1  33
ATOM     33  C   UNL     1     109.156 127.642 142.127  0.00  0.00    +0.000 A 
ATOM     34  C   UNL     1     109.821 128.109 142.273  0.00  0.00    +0.000 A 
ATOM     35  C   UNL     1     109.174 127.075 141.528  0.00  0.00    +0.000 A 
ATOM     36  C   UNL     1     110.520 127.442 141.220  0.00  0.00    +0.000 A 
ATOM     37  C   UNL     1     110.503 128.009 141.819  0.00  0.00    +0.000 A 
ATOM     38  C   UNL     1     109.855 126.975 141.074  0.00  0.00    +0.000 A 
BRANCH  36  41
ATOM     39  O   UNL     1     111.221 127.610 139.986  0.00  0.00    +0.000 OA
ATOM     40  O   UNL     1     113.208 126.504 140.965  0.00  0.00    +0.000 OA
ATOM     41  C   UNL     1     111.202 127.341 140.766  0.00  0.00    +0.000 C 
ATOM     42  C   UNL     1     111.863 126.973 141.092  0.00  0.00    +0.000 C 
ATOM     43  C   UNL     1     112.618 127.693 138.245  0.00  0.00    +0.000 A 
ATOM     44  C   UNL     1     111.903 127.510 139.533  0.00  0.00    +0.000 A 
ATOM     45  C   UNL     1     112.566 127.141 139.859  0.00  0.00    +0.000 A 
ATOM     46  C   UNL     1     112.545 126.873 140.639  0.00  0.00    +0.000 C 
ATOM     47  C   UNL     1     111.911 127.794 138.722  0.00  0.00    +0.000 A 
ATOM     48  C   UNL     1     113.308 127.309 138.584  0.00  0.00    +0.000 A 
ATOM     49  C   UNL     1     113.281 127.031 139.397  0.00  0.00    +0.000 A 
BRANCH  43  50
ATOM     50  O   UNL     1     112.636 127.962 137.465  0.00  0.00    +0.000 OA
BRANCH  50  58
ATOM     51  O   UNL     1     112.921 129.328 137.776  0.00  0.00    +0.000 OA
ATOM     52  O   UNL     1     114.328 129.498 135.748  0.00  0.00    +0.000 OA
ATOM     53  O   UNL     1     113.574 128.076 136.113  0.00  0.00    +0.000 OA
ATOM     54  O   UNL     1     114.144 130.806 136.736  0.00  0.00    +0.000 OA
ATOM     55  C   UNL     1     113.859 129.441 136.424  0.00  0.00    +0.000 C 
ATOM     56  C   UNL     1     113.482 128.731 136.607  0.00  0.00    +0.000 C 
ATOM     57  C   UNL     1     113.766 130.095 136.918  0.00  0.00    +0.000 C 
ATOM     58  C   UNL     1     113.013 128.673 137.283  0.00  0.00    +0.000 C 
ATOM     59  C   UNL     1     113.297 130.039 137.595  0.00  0.00    +0.000 C 
BRANCH  59  62
ATOM     60  O   UNL     1     113.754 130.838 138.688  0.00  0.00    +0.000 OA
ATOM     61  O   UNL     1     112.566 131.203 137.983  0.00  0.00    +0.000 OA
ATOM     62  C   UNL     1     113.206 130.693 138.089  0.00  0.00    +0.000 C 
ENDBRANCH  59  62
ENDBRANCH  50  58
ENDBRANCH  43  50
ENDBRANCH  36  41
ENDBRANCH   1  33
TORSDOF 13
ENDMDL
MODEL 5
REMARK VINA RESULT:     -11.3      4.890      9.240
REMARK  Name = 131838617
REMARK  13 active torsions:
REMARK  status: ('A' for Active; 'I' for Inactive)
REMARK    1  A    between atoms: O_1  and  C_23
REMARK    2  A    between atoms: O_1  and  C_25
REMARK    3  A    between atoms: O_7  and  C_28
REMARK    4  A    between atoms: O_7  and  C_33
REMARK    5  A    between atoms: O_9  and  C_31
REMARK    6  A    between atoms: O_9  and  C_39
REMARK    7  A    between atoms: O_12  and  C_37
REMARK    8  A    between atoms: O_12  and  C_49
REMARK    9  A    between atoms: C_22  and  C_31
REMARK   10  A    between atoms: C_30  and  C_32
REMARK   11  A    between atoms: C_38  and  C_48
REMARK   12  A    between atoms: C_39  and  C_46
REMARK   13  A    between atoms: C_42  and  C_43
REMARK                            x       y       z     vdW  Elec       q    Type
REMARK                         _______ _______ _______ _____ _____    ______ ____
ROOT
ATOM      1  O   UNL     1     105.114 127.718 142.031  0.00  0.00    +0.000 OA
ENDROOT
BRANCH   1   8
ATOM      2  O   UNL     1     106.143 128.454 142.695  0.00  0.00    +0.000 OA
ATOM      3  O   UNL     1     107.158 126.335 143.472  0.00  0.00    +0.000 OA
ATOM      4  O   UNL     1     107.848 127.777 143.877  0.00  0.00    +0.000 OA
ATOM      5  C   UNL     1     106.136 127.026 142.751  0.00  0.00    +0.000 C 
ATOM      6  C   UNL     1     106.820 127.041 143.213  0.00  0.00    +0.000 C 
ATOM      7  C   UNL     1     107.165 127.762 143.416  0.00  0.00    +0.000 C 
ATOM      8  C   UNL     1     105.798 127.732 142.492  0.00  0.00    +0.000 C 
ATOM      9  C   UNL     1     106.827 128.469 143.157  0.00  0.00    +0.000 C 
BRANCH   9  11
ATOM     10  O   UNL     1     107.475 129.682 142.770  0.00  0.00    +0.000 OA
ATOM     11  C   UNL     1     107.171 129.190 143.359  0.00  0.00    +0.000 C 
ENDBRANCH   9  11
BRANCH   5  12
ATOM     12  O   UNL     1     105.791 126.305 142.548  0.00  0.00    +0.000 OA
BRANCH  12  18
ATOM     13  O   UNL     1     106.755 126.040 141.470  0.00  0.00    +0.000 OA
ATOM     14  O   UNL     1     106.398 124.602 140.219  0.00  0.00    +0.000 OA
ATOM     15  O   UNL     1     104.955 124.928 141.757  0.00  0.00    +0.000 OA
ATOM     16  C   UNL     1     106.133 125.015 140.881  0.00  0.00    +0.000 C 
ATOM     17  C   UNL     1     105.672 125.259 141.522  0.00  0.00    +0.000 C 
ATOM     18  C   UNL     1     106.057 125.892 141.885  0.00  0.00    +0.000 C 
ATOM     19  C   UNL     1     106.801 125.498 140.849  0.00  0.00    +0.000 C 
BRANCH  16  20
ATOM     20  C   UNL     1     105.579 124.429 140.707  0.00  0.00    +0.000 C 
BRANCH  20  21
ATOM     21  O   UNL     1     105.403 124.249 139.922  0.00  0.00    +0.000 OA
BRANCH  21  23
ATOM     22  O   UNL     1     104.789 123.016 140.306  0.00  0.00    +0.000 OA
ATOM     23  C   UNL     1     104.912 123.610 139.745  0.00  0.00    +0.000 C 
BRANCH  23  25
ATOM     24  N   UNL     1     104.350 123.481 137.697  0.00  0.00    +0.000 NA
ATOM     25  C   UNL     1     104.544 123.563 139.008  0.00  0.00    +0.000 A 
ATOM     26  C   UNL     1     103.735 123.553 138.874  0.00  0.00    +0.000 A 
ATOM     27  C   UNL     1     104.923 123.519 138.282  0.00  0.00    +0.000 A 
ATOM     28  C   UNL     1     103.614 123.502 138.059  0.00  0.00    +0.000 A 
ATOM     29  C   UNL     1     103.088 123.583 139.385  0.00  0.00    +0.000 A 
ATOM     30  C   UNL     1     102.847 123.481 137.756  0.00  0.00    +0.000 A 
ATOM     31  C   UNL     1     102.321 123.563 139.083  0.00  0.00    +0.000 A 
ATOM     32  C   UNL     1     102.201 123.512 138.269  0.00  0.00    +0.000 A 
ENDBRANCH  23  25
ENDBRANCH  21  23
ENDBRANCH  20  21
ENDBRANCH  16  20
ENDBRANCH  12  18
ENDBRANCH   5  12
ENDBRANCH   1   8
BRANCH   1  33
ATOM     33  C   UNL     1     104.623 128.381 141.999  0.00  0.00    +0.000 A 
ATOM     34  C   UNL     1     104.531 128.791 141.290  0.00  0.00    +0.000 A 
ATOM     35  C   UNL     1     104.226 128.631 142.676  0.00  0.00    +0.000 A 
ATOM     36  C   UNL     1     103.641 129.705 141.936  0.00  0.00    +0.000 A 
ATOM     37  C   UNL     1     104.040 129.454 141.258  0.00  0.00    +0.000 A 
ATOM     38  C   UNL     1     103.735 129.294 142.645  0.00  0.00    +0.000 A 
BRANCH  36  41
ATOM     39  O   UNL     1     103.453 131.113 142.087  0.00  0.00    +0.000 OA
ATOM     40  O   UNL     1     101.074 130.862 141.447  0.00  0.00    +0.000 OA
ATOM     41  C   UNL     1     103.151 130.367 141.905  0.00  0.00    +0.000 C 
ATOM     42  C   UNL     1     102.359 130.283 141.691  0.00  0.00    +0.000 C 
ATOM     43  C   UNL     1     102.781 133.240 142.216  0.00  0.00    +0.000 A 
ATOM     44  C   UNL     1     102.962 131.775 142.055  0.00  0.00    +0.000 A 
ATOM     45  C   UNL     1     102.169 131.692 141.842  0.00  0.00    +0.000 A 
ATOM     46  C   UNL     1     101.868 130.946 141.660  0.00  0.00    +0.000 C 
ATOM     47  C   UNL     1     103.288 132.547 142.247  0.00  0.00    +0.000 A 
ATOM     48  C   UNL     1     101.956 133.153 141.994  0.00  0.00    +0.000 A 
ATOM     49  C   UNL     1     101.647 132.374 141.805  0.00  0.00    +0.000 A 
BRANCH  43  50
ATOM     50  O   UNL     1     103.086 133.985 142.398  0.00  0.00    +0.000 OA
BRANCH  50  58
ATOM     51  O   UNL     1     103.285 134.438 141.057  0.00  0.00    +0.000 OA
ATOM     52  O   UNL     1     105.397 135.532 141.739  0.00  0.00    +0.000 OA
ATOM     53  O   UNL     1     104.494 134.715 142.852  0.00  0.00    +0.000 OA
ATOM     54  O   UNL     1     104.891 135.620 140.171  0.00  0.00    +0.000 OA
ATOM     55  C   UNL     1     104.693 135.168 141.511  0.00  0.00    +0.000 C 
ATOM     56  C   UNL     1     104.241 134.759 142.068  0.00  0.00    +0.000 C 
ATOM     57  C   UNL     1     104.440 135.211 140.728  0.00  0.00    +0.000 C 
ATOM     58  C   UNL     1     103.537 134.394 141.842  0.00  0.00    +0.000 C 
ATOM     59  C   UNL     1     103.735 134.847 140.500  0.00  0.00    +0.000 C 
BRANCH  59  62
ATOM     60  O   UNL     1     103.837 134.417 139.141  0.00  0.00    +0.000 OA
ATOM     61  O   UNL     1     102.876 135.409 139.507  0.00  0.00    +0.000 OA
ATOM     62  C   UNL     1     103.483 134.891 139.716  0.00  0.00    +0.000 C 
ENDBRANCH  59  62
ENDBRANCH  50  58
ENDBRANCH  43  50
ENDBRANCH  36  41
ENDBRANCH   1  33
TORSDOF 13
ENDMDL
MODEL 6
REMARK VINA RESULT:     -11.2      1.259      1.665
REMARK  Name = 131838617
REMARK  13 active torsions:
REMARK  status: ('A' for Active; 'I' for Inactive)
REMARK    1  A    between atoms: O_1  and  C_23
REMARK    2  A    between atoms: O_1  and  C_25
REMARK    3  A    between atoms: O_7  and  C_28
REMARK    4  A    between atoms: O_7  and  C_33
REMARK    5  A    between atoms: O_9  and  C_31
REMARK    6  A    between atoms: O_9  and  C_39
REMARK    7  A    between atoms: O_12  and  C_37
REMARK    8  A    between atoms: O_12  and  C_49
REMARK    9  A    between atoms: C_22  and  C_31
REMARK   10  A    between atoms: C_30  and  C_32
REMARK   11  A    between atoms: C_38  and  C_48
REMARK   12  A    between atoms: C_39  and  C_46
REMARK   13  A    between atoms: C_42  and  C_43
REMARK                            x       y       z     vdW  Elec       q    Type
REMARK                         _______ _______ _______ _____ _____    ______ ____
ROOT
ATOM      1  O   UNL     1     108.354 127.380 142.310  0.00  0.00    +0.000 OA
ENDROOT
BRANCH   1   8
ATOM      2  O   UNL     1     108.129 128.688 141.782  0.00  0.00    +0.000 OA
ATOM      3  O   UNL     1     106.800 129.270 143.787  0.00  0.00    +0.000 OA
ATOM      4  O   UNL     1     107.019 130.384 142.590  0.00  0.00    +0.000 OA
ATOM      5  C   UNL     1     107.577 128.325 143.049  0.00  0.00    +0.000 C 
ATOM      6  C   UNL     1     107.243 129.076 143.119  0.00  0.00    +0.000 C 
ATOM      7  C   UNL     1     107.352 129.633 142.521  0.00  0.00    +0.000 C 
ATOM      8  C   UNL     1     108.020 128.131 142.381  0.00  0.00    +0.000 C 
ATOM      9  C   UNL     1     107.796 129.439 141.852  0.00  0.00    +0.000 C 
BRANCH   9  11
ATOM     10  O   UNL     1     107.612 129.850 140.496  0.00  0.00    +0.000 OA
ATOM     11  C   UNL     1     107.905 129.996 141.254  0.00  0.00    +0.000 C 
ENDBRANCH   9  11
BRANCH   5  12
ATOM     12  O   UNL     1     107.468 127.768 143.647  0.00  0.00    +0.000 OA
BRANCH  12  18
ATOM     13  O   UNL     1     106.189 127.304 143.089  0.00  0.00    +0.000 OA
ATOM     14  O   UNL     1     105.231 125.876 143.983  0.00  0.00    +0.000 OA
ATOM     15  O   UNL     1     107.080 126.495 144.852  0.00  0.00    +0.000 OA
ATOM     16  C   UNL     1     105.900 126.357 143.985  0.00  0.00    +0.000 C 
ATOM     17  C   UNL     1     106.621 126.701 144.200  0.00  0.00    +0.000 C 
ATOM     18  C   UNL     1     106.798 127.285 143.646  0.00  0.00    +0.000 C 
ATOM     19  C   UNL     1     105.635 126.731 143.299  0.00  0.00    +0.000 C 
BRANCH  16  20
ATOM     20  C   UNL     1     105.947 125.854 144.637  0.00  0.00    +0.000 C 
BRANCH  20  21
ATOM     21  O   UNL     1     105.268 125.480 144.918  0.00  0.00    +0.000 OA
BRANCH  21  23
ATOM     22  O   UNL     1     106.029 124.508 145.638  0.00  0.00    +0.000 OA
ATOM     23  C   UNL     1     105.324 124.922 145.523  0.00  0.00    +0.000 C 
BRANCH  23  25
ATOM     24  N   UNL     1     103.763 124.907 146.968  0.00  0.00    +0.000 NA
ATOM     25  C   UNL     1     104.677 124.778 146.014  0.00  0.00    +0.000 A 
ATOM     26  C   UNL     1     104.175 124.130 145.971  0.00  0.00    +0.000 A 
ATOM     27  C   UNL     1     104.422 125.257 146.629  0.00  0.00    +0.000 A 
ATOM     28  C   UNL     1     103.607 124.211 146.564  0.00  0.00    +0.000 A 
ATOM     29  C   UNL     1     104.158 123.475 145.470  0.00  0.00    +0.000 A 
ATOM     30  C   UNL     1     103.022 123.636 146.656  0.00  0.00    +0.000 A 
ATOM     31  C   UNL     1     103.573 122.900 145.561  0.00  0.00    +0.000 A 
ATOM     32  C   UNL     1     103.006 122.981 146.154  0.00  0.00    +0.000 A 
ENDBRANCH  23  25
ENDBRANCH  21  23
ENDBRANCH  20  21
ENDBRANCH  16  20
ENDBRANCH  12  18
ENDBRANCH   5  12
ENDBRANCH   1   8
BRANCH   1  33
ATOM     33  C   UNL     1     109.064 127.280 141.903  0.00  0.00    +0.000 A 
ATOM     34  C   UNL     1     109.082 126.831 141.211  0.00  0.00    +0.000 A 
ATOM     35  C   UNL     1     109.755 127.630 142.186  0.00  0.00    +0.000 A 
ATOM     36  C   UNL     1     110.484 127.081 141.087  0.00  0.00    +0.000 A 
ATOM     37  C   UNL     1     109.792 126.731 140.803  0.00  0.00    +0.000 A 
ATOM     38  C   UNL     1     110.465 127.530 141.778  0.00  0.00    +0.000 A 
BRANCH  36  41
ATOM     39  O   UNL     1     111.201 126.995 139.854  0.00  0.00    +0.000 OA
ATOM     40  O   UNL     1     113.310 126.656 141.105  0.00  0.00    +0.000 OA
ATOM     41  C   UNL     1     111.194 126.981 140.679  0.00  0.00    +0.000 C 
ATOM     42  C   UNL     1     111.897 126.869 141.095  0.00  0.00    +0.000 C 
ATOM     43  C   UNL     1     112.642 126.807 138.156  0.00  0.00    +0.000 A 
ATOM     44  C   UNL     1     111.911 126.895 139.446  0.00  0.00    +0.000 A 
ATOM     45  C   UNL     1     112.615 126.782 139.863  0.00  0.00    +0.000 A 
ATOM     46  C   UNL     1     112.607 126.769 140.687  0.00  0.00    +0.000 C 
ATOM     47  C   UNL     1     111.905 126.911 138.586  0.00  0.00    +0.000 A 
ATOM     48  C   UNL     1     113.374 126.690 138.590  0.00  0.00    +0.000 A 
ATOM     49  C   UNL     1     113.360 126.677 139.449  0.00  0.00    +0.000 A 
BRANCH  43  50
ATOM     50  O   UNL     1     112.646 126.821 137.331  0.00  0.00    +0.000 OA
BRANCH  50  58
ATOM     51  O   UNL     1     112.450 125.420 137.131  0.00  0.00    +0.000 OA
ATOM     52  O   UNL     1     111.000 125.900 135.184  0.00  0.00    +0.000 OA
ATOM     53  O   UNL     1     111.680 127.140 136.033  0.00  0.00    +0.000 OA
ATOM     54  O   UNL     1     111.288 124.339 135.633  0.00  0.00    +0.000 OA
ATOM     55  C   UNL     1     111.484 125.739 135.833  0.00  0.00    +0.000 C 
ATOM     56  C   UNL     1     111.823 126.360 136.258  0.00  0.00    +0.000 C 
ATOM     57  C   UNL     1     111.628 124.959 136.058  0.00  0.00    +0.000 C 
ATOM     58  C   UNL     1     112.306 126.201 136.907  0.00  0.00    +0.000 C 
ATOM     59  C   UNL     1     112.111 124.799 136.707  0.00  0.00    +0.000 C 
BRANCH  59  62
ATOM     60  O   UNL     1     111.706 123.615 137.399  0.00  0.00    +0.000 OA
ATOM     61  O   UNL     1     112.946 123.639 136.689  0.00  0.00    +0.000 OA
ATOM     62  C   UNL     1     112.254 124.018 136.932  0.00  0.00    +0.000 C 
ENDBRANCH  59  62
ENDBRANCH  50  58
ENDBRANCH  43  50
ENDBRANCH  36  41
ENDBRANCH   1  33
TORSDOF 13
ENDMDL
MODEL 7
REMARK VINA RESULT:     -11.2      4.208      6.095
REMARK  Name = 131838617
REMARK  13 active torsions:
REMARK  status: ('A' for Active; 'I' for Inactive)
REMARK    1  A    between atoms: O_1  and  C_23
REMARK    2  A    between atoms: O_1  and  C_25
REMARK    3  A    between atoms: O_7  and  C_28
REMARK    4  A    between atoms: O_7  and  C_33
REMARK    5  A    between atoms: O_9  and  C_31
REMARK    6  A    between atoms: O_9  and  C_39
REMARK    7  A    between atoms: O_12  and  C_37
REMARK    8  A    between atoms: O_12  and  C_49
REMARK    9  A    between atoms: C_22  and  C_31
REMARK   10  A    between atoms: C_30  and  C_32
REMARK   11  A    between atoms: C_38  and  C_48
REMARK   12  A    between atoms: C_39  and  C_46
REMARK   13  A    between atoms: C_42  and  C_43
REMARK                            x       y       z     vdW  Elec       q    Type
REMARK                         _______ _______ _______ _____ _____    ______ ____
ROOT
ATOM      1  O   UNL     1     107.389 126.225 140.996  0.00  0.00    +0.000 OA
ENDROOT
BRANCH   1   8
ATOM      2  O   UNL     1     107.078 126.654 142.323  0.00  0.00    +0.000 OA
ATOM      3  O   UNL     1     105.513 124.753 142.571  0.00  0.00    +0.000 OA
ATOM      4  O   UNL     1     105.724 125.815 143.815  0.00  0.00    +0.000 OA
ATOM      5  C   UNL     1     106.450 125.488 141.783  0.00  0.00    +0.000 C 
ATOM      6  C   UNL     1     106.034 125.386 142.489  0.00  0.00    +0.000 C 
ATOM      7  C   UNL     1     106.140 125.917 143.110  0.00  0.00    +0.000 C 
ATOM      8  C   UNL     1     106.972 126.122 141.700  0.00  0.00    +0.000 C 
ATOM      9  C   UNL     1     106.662 126.551 143.028  0.00  0.00    +0.000 C 
BRANCH   9  11
ATOM     10  O   UNL     1     106.564 127.877 143.552  0.00  0.00    +0.000 OA
ATOM     11  C   UNL     1     106.768 127.082 143.649  0.00  0.00    +0.000 C 
ENDBRANCH   9  11
BRANCH   5  12
ATOM     12  O   UNL     1     106.345 124.958 141.161  0.00  0.00    +0.000 OA
BRANCH  12  18
ATOM     13  O   UNL     1     105.242 125.734 140.575  0.00  0.00    +0.000 OA
ATOM     14  O   UNL     1     104.252 124.988 139.085  0.00  0.00    +0.000 OA
ATOM     15  O   UNL     1     105.838 123.804 139.883  0.00  0.00    +0.000 OA
ATOM     16  C   UNL     1     104.865 124.875 139.624  0.00  0.00    +0.000 C 
ATOM     17  C   UNL     1     105.499 124.540 140.034  0.00  0.00    +0.000 C 
ATOM     18  C   UNL     1     105.731 125.070 140.621  0.00  0.00    +0.000 C 
ATOM     19  C   UNL     1     104.708 125.613 139.959  0.00  0.00    +0.000 C 
BRANCH  16  20
ATOM     20  C   UNL     1     104.826 124.209 139.139  0.00  0.00    +0.000 C 
BRANCH  20  21
ATOM     21  O   UNL     1     104.238 124.152 138.564  0.00  0.00    +0.000 OA
BRANCH  21  23
ATOM     22  O   UNL     1     104.714 122.853 138.203  0.00  0.00    +0.000 OA
ATOM     23  C   UNL     1     104.160 123.460 138.121  0.00  0.00    +0.000 C 
BRANCH  23  25
ATOM     24  N   UNL     1     102.300 123.286 137.104  0.00  0.00    +0.000 NA
ATOM     25  C   UNL     1     103.530 123.376 137.595  0.00  0.00    +0.000 A 
ATOM     26  C   UNL     1     103.591 123.261 136.785  0.00  0.00    +0.000 A 
ATOM     27  C   UNL     1     102.734 123.391 137.791  0.00  0.00    +0.000 A 
ATOM     28  C   UNL     1     102.826 123.206 136.480  0.00  0.00    +0.000 A 
ATOM     29  C   UNL     1     104.241 123.199 136.282  0.00  0.00    +0.000 A 
ATOM     30  C   UNL     1     102.712 123.088 135.671  0.00  0.00    +0.000 A 
ATOM     31  C   UNL     1     104.128 123.082 135.473  0.00  0.00    +0.000 A 
ATOM     32  C   UNL     1     103.364 123.027 135.168  0.00  0.00    +0.000 A 
ENDBRANCH  23  25
ENDBRANCH  21  23
ENDBRANCH  20  21
ENDBRANCH  16  20
ENDBRANCH  12  18
ENDBRANCH   5  12
ENDBRANCH   1   8
BRANCH   1  33
ATOM     33  C   UNL     1     108.176 126.471 141.014  0.00  0.00    +0.000 A 
ATOM     34  C   UNL     1     108.359 127.272 140.932  0.00  0.00    +0.000 A 
ATOM     35  C   UNL     1     108.779 125.918 141.113  0.00  0.00    +0.000 A 
ATOM     36  C   UNL     1     109.750 126.965 141.049  0.00  0.00    +0.000 A 
ATOM     37  C   UNL     1     109.146 127.519 140.949  0.00  0.00    +0.000 A 
ATOM     38  C   UNL     1     109.566 126.165 141.131  0.00  0.00    +0.000 A 
BRANCH  36  41
ATOM     39  O   UNL     1     110.977 127.234 140.369  0.00  0.00    +0.000 OA
ATOM     40  O   UNL     1     112.017 127.906 142.513  0.00  0.00    +0.000 OA
ATOM     41  C   UNL     1     110.537 127.211 141.066  0.00  0.00    +0.000 C 
ATOM     42  C   UNL     1     110.883 127.435 141.781  0.00  0.00    +0.000 C 
ATOM     43  C   UNL     1     113.033 127.756 139.666  0.00  0.00    +0.000 A 
ATOM     44  C   UNL     1     111.764 127.481 140.387  0.00  0.00    +0.000 A 
ATOM     45  C   UNL     1     112.111 127.705 141.102  0.00  0.00    +0.000 A 
ATOM     46  C   UNL     1     111.670 127.682 141.798  0.00  0.00    +0.000 C 
ATOM     47  C   UNL     1     112.213 127.500 139.654  0.00  0.00    +0.000 A 
ATOM     48  C   UNL     1     113.394 127.989 140.410  0.00  0.00    +0.000 A 
ATOM     49  C   UNL     1     112.930 127.963 141.133  0.00  0.00    +0.000 A 
BRANCH  43  50
ATOM     50  O   UNL     1     113.471 127.778 138.968  0.00  0.00    +0.000 OA
BRANCH  50  58
ATOM     51  O   UNL     1     113.337 129.172 138.687  0.00  0.00    +0.000 OA
ATOM     52  O   UNL     1     113.046 128.663 136.283  0.00  0.00    +0.000 OA
ATOM     53  O   UNL     1     113.278 127.438 137.365  0.00  0.00    +0.000 OA
ATOM     54  O   UNL     1     113.009 130.227 136.805  0.00  0.00    +0.000 OA
ATOM     55  C   UNL     1     113.143 128.833 137.085  0.00  0.00    +0.000 C 
ATOM     56  C   UNL     1     113.259 128.221 137.625  0.00  0.00    +0.000 C 
ATOM     57  C   UNL     1     113.124 129.615 137.346  0.00  0.00    +0.000 C 
ATOM     58  C   UNL     1     113.356 128.390 138.427  0.00  0.00    +0.000 C 
ATOM     59  C   UNL     1     113.221 129.785 138.147  0.00  0.00    +0.000 C 
BRANCH  59  62
ATOM     60  O   UNL     1     113.907 130.968 138.564  0.00  0.00    +0.000 OA
ATOM     61  O   UNL     1     112.479 130.951 138.512  0.00  0.00    +0.000 OA
ATOM     62  C   UNL     1     113.202 130.568 138.408  0.00  0.00    +0.000 C 
ENDBRANCH  59  62
ENDBRANCH  50  58
ENDBRANCH  43  50
ENDBRANCH  36  41
ENDBRANCH   1  33
TORSDOF 13
ENDMDL
MODEL 8
REMARK VINA RESULT:     -11.1      4.282      9.139
REMARK  Name = 131838617
REMARK  13 active torsions:
REMARK  status: ('A' for Active; 'I' for Inactive)
REMARK    1  A    between atoms: O_1  and  C_23
REMARK    2  A    between atoms: O_1  and  C_25
REMARK    3  A    between atoms: O_7  and  C_28
REMARK    4  A    between atoms: O_7  and  C_33
REMARK    5  A    between atoms: O_9  and  C_31
REMARK    6  A    between atoms: O_9  and  C_39
REMARK    7  A    between atoms: O_12  and  C_37
REMARK    8  A    between atoms: O_12  and  C_49
REMARK    9  A    between atoms: C_22  and  C_31
REMARK   10  A    between atoms: C_30  and  C_32
REMARK   11  A    between atoms: C_38  and  C_48
REMARK   12  A    between atoms: C_39  and  C_46
REMARK   13  A    between atoms: C_42  and  C_43
REMARK                            x       y       z     vdW  Elec       q    Type
REMARK                         _______ _______ _______ _____ _____    ______ ____
ROOT
ATOM      1  O   UNL     1     110.394 128.975 140.073  0.00  0.00    +0.000 OA
ENDROOT
BRANCH   1   8
ATOM      2  O   UNL     1     109.298 129.891 140.099  0.00  0.00    +0.000 OA
ATOM      3  O   UNL     1     109.546 130.259 137.664  0.00  0.00    +0.000 OA
ATOM      4  O   UNL     1     108.367 131.052 138.503  0.00  0.00    +0.000 OA
ATOM      5  C   UNL     1     109.970 129.617 138.868  0.00  0.00    +0.000 C 
ATOM      6  C   UNL     1     109.463 130.136 138.476  0.00  0.00    +0.000 C 
ATOM      7  C   UNL     1     108.874 130.533 138.895  0.00  0.00    +0.000 C 
ATOM      8  C   UNL     1     109.888 129.494 139.680  0.00  0.00    +0.000 C 
ATOM      9  C   UNL     1     108.791 130.410 139.706  0.00  0.00    +0.000 C 
BRANCH   9  11
ATOM     10  O   UNL     1     107.601 130.378 140.496  0.00  0.00    +0.000 OA
ATOM     11  C   UNL     1     108.202 130.807 140.126  0.00  0.00    +0.000 C 
ENDBRANCH   9  11
BRANCH   5  12
ATOM     12  O   UNL     1     110.560 129.220 138.449  0.00  0.00    +0.000 OA
BRANCH  12  18
ATOM     13  O   UNL     1     109.656 128.129 138.058  0.00  0.00    +0.000 OA
ATOM     14  O   UNL     1     110.329 126.706 136.927  0.00  0.00    +0.000 OA
ATOM     15  O   UNL     1     111.699 128.256 137.453  0.00  0.00    +0.000 OA
ATOM     16  C   UNL     1     110.504 127.411 137.317  0.00  0.00    +0.000 C 
ATOM     17  C   UNL     1     110.910 128.072 137.601  0.00  0.00    +0.000 C 
ATOM     18  C   UNL     1     110.386 128.515 138.059  0.00  0.00    +0.000 C 
ATOM     19  C   UNL     1     109.730 127.447 137.600  0.00  0.00    +0.000 C 
BRANCH  16  20
ATOM     20  C   UNL     1     111.186 127.159 136.928  0.00  0.00    +0.000 C 
BRANCH  20  21
ATOM     21  O   UNL     1     111.366 126.356 136.890  0.00  0.00    +0.000 OA
BRANCH  21  23
ATOM     22  O   UNL     1     112.249 126.571 135.786  0.00  0.00    +0.000 OA
ATOM     23  C   UNL     1     111.976 126.092 136.401  0.00  0.00    +0.000 C 
BRANCH  23  25
ATOM     24  N   UNL     1     112.481 124.035 136.604  0.00  0.00    +0.000 NA
ATOM     25  C   UNL     1     112.315 125.350 136.527  0.00  0.00    +0.000 A 
ATOM     26  C   UNL     1     113.080 125.208 136.788  0.00  0.00    +0.000 A 
ATOM     27  C   UNL     1     111.946 124.627 136.414  0.00  0.00    +0.000 A 
ATOM     28  C   UNL     1     113.183 124.391 136.835  0.00  0.00    +0.000 A 
ATOM     29  C   UNL     1     113.700 125.714 136.988  0.00  0.00    +0.000 A 
ATOM     30  C   UNL     1     113.905 124.080 137.084  0.00  0.00    +0.000 A 
ATOM     31  C   UNL     1     114.423 125.403 137.237  0.00  0.00    +0.000 A 
ATOM     32  C   UNL     1     114.525 124.587 137.285  0.00  0.00    +0.000 A 
ENDBRANCH  23  25
ENDBRANCH  21  23
ENDBRANCH  20  21
ENDBRANCH  16  20
ENDBRANCH  12  18
ENDBRANCH   5  12
ENDBRANCH   1   8
BRANCH   1  33
ATOM     33  C   UNL     1     110.615 129.125 140.853  0.00  0.00    +0.000 A 
ATOM     34  C   UNL     1     110.224 128.744 141.472  0.00  0.00    +0.000 A 
ATOM     35  C   UNL     1     111.225 129.655 141.015  0.00  0.00    +0.000 A 
ATOM     36  C   UNL     1     111.056 129.425 142.415  0.00  0.00    +0.000 A 
ATOM     37  C   UNL     1     110.445 128.894 142.253  0.00  0.00    +0.000 A 
ATOM     38  C   UNL     1     111.446 129.805 141.795  0.00  0.00    +0.000 A 
BRANCH  36  41
ATOM     39  O   UNL     1     111.360 130.353 143.458  0.00  0.00    +0.000 OA
ATOM     40  O   UNL     1     111.771 128.470 145.012  0.00  0.00    +0.000 OA
ATOM     41  C   UNL     1     111.276 129.575 143.196  0.00  0.00    +0.000 C 
ATOM     42  C   UNL     1     111.413 128.948 143.713  0.00  0.00    +0.000 C 
ATOM     43  C   UNL     1     111.893 131.479 145.312  0.00  0.00    +0.000 A 
ATOM     44  C   UNL     1     111.580 130.503 144.239  0.00  0.00    +0.000 A 
ATOM     45  C   UNL     1     111.718 129.875 144.757  0.00  0.00    +0.000 A 
ATOM     46  C   UNL     1     111.634 129.098 144.493  0.00  0.00    +0.000 C 
ATOM     47  C   UNL     1     111.664 131.317 144.500  0.00  0.00    +0.000 A 
ATOM     48  C   UNL     1     112.036 130.826 145.852  0.00  0.00    +0.000 A 
ATOM     49  C   UNL     1     111.948 130.018 145.572  0.00  0.00    +0.000 A 
BRANCH  43  50
ATOM     50  O   UNL     1     111.976 132.258 145.572  0.00  0.00    +0.000 OA
BRANCH  50  58
ATOM     51  O   UNL     1     110.600 132.611 145.723  0.00  0.00    +0.000 OA
ATOM     52  O   UNL     1     111.111 133.684 147.893  0.00  0.00    +0.000 OA
ATOM     53  O   UNL     1     112.316 132.973 147.019  0.00  0.00    +0.000 OA
ATOM     54  O   UNL     1     109.564 133.679 147.319  0.00  0.00    +0.000 OA
ATOM     55  C   UNL     1     110.940 133.326 147.170  0.00  0.00    +0.000 C 
ATOM     56  C   UNL     1     111.543 132.971 146.733  0.00  0.00    +0.000 C 
ATOM     57  C   UNL     1     110.167 133.323 146.882  0.00  0.00    +0.000 C 
ATOM     58  C   UNL     1     111.373 132.613 146.009  0.00  0.00    +0.000 C 
ATOM     59  C   UNL     1     109.996 132.966 146.159  0.00  0.00    +0.000 C 
BRANCH  59  62
ATOM     60  O   UNL     1     108.691 132.385 146.124  0.00  0.00    +0.000 OA
ATOM     61  O   UNL     1     108.980 133.539 145.334  0.00  0.00    +0.000 OA
ATOM     62  C   UNL     1     109.222 132.963 145.872  0.00  0.00    +0.000 C 
ENDBRANCH  59  62
ENDBRANCH  50  58
ENDBRANCH  43  50
ENDBRANCH  36  41
ENDBRANCH   1  33
TORSDOF 13
ENDMDL
MODEL 9
REMARK VINA RESULT:     -11.1      4.341      7.790
REMARK  Name = 131838617
REMARK  13 active torsions:
REMARK  status: ('A' for Active; 'I' for Inactive)
REMARK    1  A    between atoms: O_1  and  C_23
REMARK    2  A    between atoms: O_1  and  C_25
REMARK    3  A    between atoms: O_7  and  C_28
REMARK    4  A    between atoms: O_7  and  C_33
REMARK    5  A    between atoms: O_9  and  C_31
REMARK    6  A    between atoms: O_9  and  C_39
REMARK    7  A    between atoms: O_12  and  C_37
REMARK    8  A    between atoms: O_12  and  C_49
REMARK    9  A    between atoms: C_22  and  C_31
REMARK   10  A    between atoms: C_30  and  C_32
REMARK   11  A    between atoms: C_38  and  C_48
REMARK   12  A    between atoms: C_39  and  C_46
REMARK   13  A    between atoms: C_42  and  C_43
REMARK                            x       y       z     vdW  Elec       q    Type
REMARK                         _______ _______ _______ _____ _____    ______ ____
ROOT
ATOM      1  O   UNL     1     110.371 127.107 141.498  0.00  0.00    +0.000 OA
ENDROOT
BRANCH   1   8
ATOM      2  O   UNL     1     111.402 126.901 140.530  0.00  0.00    +0.000 OA
ATOM      3  O   UNL     1     109.712 126.125 138.897  0.00  0.00    +0.000 OA
ATOM      4  O   UNL     1     111.305 126.179 138.473  0.00  0.00    +0.000 OA
ATOM      5  C   UNL     1     110.041 126.616 140.197  0.00  0.00    +0.000 C 
ATOM      6  C   UNL     1     110.275 126.384 139.441  0.00  0.00    +0.000 C 
ATOM      7  C   UNL     1     111.071 126.410 139.229  0.00  0.00    +0.000 C 
ATOM      8  C   UNL     1     110.604 126.874 140.742  0.00  0.00    +0.000 C 
ATOM      9  C   UNL     1     111.634 126.669 139.773  0.00  0.00    +0.000 C 
BRANCH   9  11
ATOM     10  O   UNL     1     112.975 126.204 139.940  0.00  0.00    +0.000 OA
ATOM     11  C   UNL     1     112.431 126.696 139.562  0.00  0.00    +0.000 C 
ENDBRANCH   9  11
BRANCH   5  12
ATOM     12  O   UNL     1     109.245 126.589 140.410  0.00  0.00    +0.000 OA
BRANCH  12  18
ATOM     13  O   UNL     1     109.315 125.178 140.819  0.00  0.00    +0.000 OA
ATOM     14  O   UNL     1     107.679 124.250 141.290  0.00  0.00    +0.000 OA
ATOM     15  O   UNL     1     107.499 126.295 140.706  0.00  0.00    +0.000 OA
ATOM     16  C   UNL     1     108.016 124.960 141.040  0.00  0.00    +0.000 C 
ATOM     17  C   UNL     1     108.105 125.744 140.796  0.00  0.00    +0.000 C 
ATOM     18  C   UNL     1     108.907 125.879 140.660  0.00  0.00    +0.000 C 
ATOM     19  C   UNL     1     108.763 124.611 141.053  0.00  0.00    +0.000 C 
BRANCH  16  20
ATOM     20  C   UNL     1     107.201 125.073 141.104  0.00  0.00    +0.000 C 
BRANCH  20  21
ATOM     21  O   UNL     1     106.683 124.473 140.877  0.00  0.00    +0.000 OA
BRANCH  21  23
ATOM     22  O   UNL     1     105.592 125.170 141.484  0.00  0.00    +0.000 OA
ATOM     23  C   UNL     1     105.873 124.556 141.008  0.00  0.00    +0.000 C 
BRANCH  23  25
ATOM     24  N   UNL     1     104.644 122.926 140.409  0.00  0.00    +0.000 NA
ATOM     25  C   UNL     1     105.342 124.026 140.664  0.00  0.00    +0.000 A 
ATOM     26  C   UNL     1     104.852 124.182 140.026  0.00  0.00    +0.000 A 
ATOM     27  C   UNL     1     105.214 123.251 140.900  0.00  0.00    +0.000 A 
ATOM     28  C   UNL     1     104.417 123.498 139.867  0.00  0.00    +0.000 A 
ATOM     29  C   UNL     1     104.740 124.857 139.565  0.00  0.00    +0.000 A 
ATOM     30  C   UNL     1     103.872 123.490 139.248  0.00  0.00    +0.000 A 
ATOM     31  C   UNL     1     104.195 124.849 138.945  0.00  0.00    +0.000 A 
ATOM     32  C   UNL     1     103.762 124.166 138.788  0.00  0.00    +0.000 A 
ENDBRANCH  23  25
ENDBRANCH  21  23
ENDBRANCH  20  21
ENDBRANCH  16  20
ENDBRANCH  12  18
ENDBRANCH   5  12
ENDBRANCH   1   8
BRANCH   1  33
ATOM     33  C   UNL     1     110.657 127.810 141.821  0.00  0.00    +0.000 A 
ATOM     34  C   UNL     1     110.289 128.526 141.639  0.00  0.00    +0.000 A 
ATOM     35  C   UNL     1     111.310 127.798 142.324  0.00  0.00    +0.000 A 
ATOM     36  C   UNL     1     111.229 129.217 142.466  0.00  0.00    +0.000 A 
ATOM     37  C   UNL     1     110.574 129.230 141.962  0.00  0.00    +0.000 A 
ATOM     38  C   UNL     1     111.596 128.501 142.646  0.00  0.00    +0.000 A 
BRANCH  36  41
ATOM     39  O   UNL     1     111.448 130.059 143.599  0.00  0.00    +0.000 OA
ATOM     40  O   UNL     1     112.503 131.754 142.134  0.00  0.00    +0.000 OA
ATOM     41  C   UNL     1     111.514 129.921 142.788  0.00  0.00    +0.000 C 
ATOM     42  C   UNL     1     111.865 130.485 142.300  0.00  0.00    +0.000 C 
ATOM     43  C   UNL     1     111.956 131.626 145.109  0.00  0.00    +0.000 A 
ATOM     44  C   UNL     1     111.734 130.763 143.921  0.00  0.00    +0.000 A 
ATOM     45  C   UNL     1     112.086 131.328 143.433  0.00  0.00    +0.000 A 
ATOM     46  C   UNL     1     112.151 131.188 142.623  0.00  0.00    +0.000 C 
ATOM     47  C   UNL     1     111.660 130.895 144.767  0.00  0.00    +0.000 A 
ATOM     48  C   UNL     1     112.322 132.214 144.601  0.00  0.00    +0.000 A 
ATOM     49  C   UNL     1     112.387 132.064 143.757  0.00  0.00    +0.000 A 
BRANCH  43  50
ATOM     50  O   UNL     1     111.889 131.762 145.920  0.00  0.00    +0.000 OA
BRANCH  50  58
ATOM     51  O   UNL     1     110.560 132.286 145.869  0.00  0.00    +0.000 OA
ATOM     52  O   UNL     1     111.094 133.825 147.732  0.00  0.00    +0.000 OA
ATOM     53  O   UNL     1     112.244 132.788 147.161  0.00  0.00    +0.000 OA
ATOM     54  O   UNL     1     109.587 133.835 147.060  0.00  0.00    +0.000 OA
ATOM     55  C   UNL     1     110.915 133.312 147.111  0.00  0.00    +0.000 C 
ATOM     56  C   UNL     1     111.491 132.793 146.826  0.00  0.00    +0.000 C 
ATOM     57  C   UNL     1     110.162 133.316 146.775  0.00  0.00    +0.000 C 
ATOM     58  C   UNL     1     111.313 132.280 146.205  0.00  0.00    +0.000 C 
ATOM     59  C   UNL     1     109.984 132.803 146.154  0.00  0.00    +0.000 C 
BRANCH  59  62
ATOM     60  O   UNL     1     109.061 133.319 145.192  0.00  0.00    +0.000 OA
ATOM     61  O   UNL     1     108.646 132.304 146.108  0.00  0.00    +0.000 OA
ATOM     62  C   UNL     1     109.230 132.809 145.818  0.00  0.00    +0.000 C 
ENDBRANCH  59  62
ENDBRANCH  50  58
ENDBRANCH  43  50
ENDBRANCH  36  41
ENDBRANCH   1  33
TORSDOF 13
ENDMDL
MODEL 10
REMARK VINA RESULT:     -11.0      3.832      4.858
REMARK  Name = 131838617
REMARK  13 active torsions:
REMARK  status: ('A' for Active; 'I' for Inactive)
REMARK    1  A    between atoms: O_1  and  C_23
REMARK    2  A    between atoms: O_1  and  C_25
REMARK    3  A    between atoms: O_7  and  C_28
REMARK    4  A    between atoms: O_7  and  C_33
REMARK    5  A    between atoms: O_9  and  C_31
REMARK    6  A    between atoms: O_9  and  C_39
REMARK    7  A    between atoms: O_12  and  C_37
REMARK    8  A    between atoms: O_12  and  C_49
REMARK    9  A    between atoms: C_22  and  C_31
REMARK   10  A    between atoms: C_30  and  C_32
REMARK   11  A    between atoms: C_38  and  C_48
REMARK   12  A    between atoms: C_39  and  C_46
REMARK   13  A    between atoms: C_42  and  C_43
REMARK                            x       y       z     vdW  Elec       q    Type
REMARK                         _______ _______ _______ _____ _____    ______ ____
ROOT
ATOM      1  O   UNL     1     110.478 129.474 142.558  0.00  0.00    +0.000 OA
ENDROOT
BRANCH   1   8
ATOM      2  O   UNL     1     109.242 129.094 141.950  0.00  0.00    +0.000 OA
ATOM      3  O   UNL     1     108.351 131.371 142.336  0.00  0.00    +0.000 OA
ATOM      4  O   UNL     1     107.413 130.232 141.600  0.00  0.00    +0.000 OA
ATOM      5  C   UNL     1     109.415 130.423 142.447  0.00  0.00    +0.000 C 
ATOM      6  C   UNL     1     108.648 130.612 142.207  0.00  0.00    +0.000 C 
ATOM      7  C   UNL     1     108.179 130.043 141.839  0.00  0.00    +0.000 C 
ATOM      8  C   UNL     1     109.712 129.664 142.319  0.00  0.00    +0.000 C 
ATOM      9  C   UNL     1     108.476 129.284 141.710  0.00  0.00    +0.000 C 
BRANCH   9  11
ATOM     10  O   UNL     1     108.209 128.436 140.591  0.00  0.00    +0.000 OA
ATOM     11  C   UNL     1     108.006 128.714 141.342  0.00  0.00    +0.000 C 
ENDBRANCH   9  11
BRANCH   5  12
ATOM     12  O   UNL     1     109.884 130.992 142.815  0.00  0.00    +0.000 OA
BRANCH  12  18
ATOM     13  O   UNL     1     109.291 130.740 144.137  0.00  0.00    +0.000 OA
ATOM     14  O   UNL     1     109.972 131.702 145.676  0.00  0.00    +0.000 OA
ATOM     15  O   UNL     1     110.883 132.120 143.791  0.00  0.00    +0.000 OA
ATOM     16  C   UNL     1     110.034 131.579 144.863  0.00  0.00    +0.000 C 
ATOM     17  C   UNL     1     110.282 131.633 144.077  0.00  0.00    +0.000 C 
ATOM     18  C   UNL     1     109.823 131.115 143.629  0.00  0.00    +0.000 C 
ATOM     19  C   UNL     1     109.422 131.027 144.899  0.00  0.00    +0.000 C 
BRANCH  16  20
ATOM     20  C   UNL     1     110.597 132.142 145.080  0.00  0.00    +0.000 C 
BRANCH  20  21
ATOM     21  O   UNL     1     110.938 132.116 145.830  0.00  0.00    +0.000 OA
BRANCH  21  23
ATOM     22  O   UNL     1     111.428 133.456 145.730  0.00  0.00    +0.000 OA
ATOM     23  C   UNL     1     111.474 132.699 146.059  0.00  0.00    +0.000 C 
BRANCH  23  25
ATOM     24  N   UNL     1     113.170 132.076 147.183  0.00  0.00    +0.000 NA
ATOM     25  C   UNL     1     112.056 132.528 146.618  0.00  0.00    +0.000 A 
ATOM     26  C   UNL     1     112.037 132.735 147.412  0.00  0.00    +0.000 A 
ATOM     27  C   UNL     1     112.755 132.122 146.477  0.00  0.00    +0.000 A 
ATOM     28  C   UNL     1     112.729 132.454 147.763  0.00  0.00    +0.000 A 
ATOM     29  C   UNL     1     111.482 133.142 147.865  0.00  0.00    +0.000 A 
ATOM     30  C   UNL     1     112.865 132.580 148.566  0.00  0.00    +0.000 A 
ATOM     31  C   UNL     1     111.617 133.269 148.669  0.00  0.00    +0.000 A 
ATOM     32  C   UNL     1     112.309 132.988 149.019  0.00  0.00    +0.000 A 
ENDBRANCH  23  25
ENDBRANCH  21  23
ENDBRANCH  20  21
ENDBRANCH  16  20
ENDBRANCH  12  18
ENDBRANCH   5  12
ENDBRANCH   1   8
BRANCH   1  33
ATOM     33  C   UNL     1     110.974 129.047 142.055  0.00  0.00    +0.000 A 
ATOM     34  C   UNL     1     111.083 128.238 142.174  0.00  0.00    +0.000 A 
ATOM     35  C   UNL     1     111.360 129.430 141.435  0.00  0.00    +0.000 A 
ATOM     36  C   UNL     1     111.966 128.195 141.050  0.00  0.00    +0.000 A 
ATOM     37  C   UNL     1     111.579 127.812 141.671  0.00  0.00    +0.000 A 
ATOM     38  C   UNL     1     111.856 129.004 140.933  0.00  0.00    +0.000 A 
BRANCH  36  41
ATOM     39  O   UNL     1     112.316 127.759 139.735  0.00  0.00    +0.000 OA
ATOM     40  O   UNL     1     114.240 126.508 140.663  0.00  0.00    +0.000 OA
ATOM     41  C   UNL     1     112.462 127.768 140.547  0.00  0.00    +0.000 C 
ATOM     42  C   UNL     1     113.102 127.351 140.857  0.00  0.00    +0.000 C 
ATOM     43  C   UNL     1     113.164 126.888 137.860  0.00  0.00    +0.000 A 
ATOM     44  C   UNL     1     112.812 127.333 139.232  0.00  0.00    +0.000 A 
ATOM     45  C   UNL     1     113.454 126.915 139.542  0.00  0.00    +0.000 A 
ATOM     46  C   UNL     1     113.599 126.925 140.354  0.00  0.00    +0.000 C 
ATOM     47  C   UNL     1     112.651 127.331 138.388  0.00  0.00    +0.000 A 
ATOM     48  C   UNL     1     113.832 126.454 138.182  0.00  0.00    +0.000 A 
ATOM     49  C   UNL     1     113.978 126.468 139.029  0.00  0.00    +0.000 A 
BRANCH  43  50
ATOM     50  O   UNL     1     113.016 126.881 137.048  0.00  0.00    +0.000 OA
BRANCH  50  58
ATOM     51  O   UNL     1     112.484 125.556 136.978  0.00  0.00    +0.000 OA
ATOM     52  O   UNL     1     110.835 126.308 135.293  0.00  0.00    +0.000 OA
ATOM     53  O   UNL     1     111.917 127.381 135.925  0.00  0.00    +0.000 OA
ATOM     54  O   UNL     1     110.853 124.733 135.785  0.00  0.00    +0.000 OA
ATOM     55  C   UNL     1     111.384 126.057 135.855  0.00  0.00    +0.000 C 
ATOM     56  C   UNL     1     111.925 126.594 136.171  0.00  0.00    +0.000 C 
ATOM     57  C   UNL     1     111.394 125.270 136.101  0.00  0.00    +0.000 C 
ATOM     58  C   UNL     1     112.475 126.344 136.732  0.00  0.00    +0.000 C 
ATOM     59  C   UNL     1     111.943 125.019 136.662  0.00  0.00    +0.000 C 
BRANCH  59  62
ATOM     60  O   UNL     1     112.418 123.680 136.509  0.00  0.00    +0.000 OA
ATOM     61  O   UNL     1     111.495 123.995 137.553  0.00  0.00    +0.000 OA
ATOM     62  C   UNL     1     111.952 124.231 136.908  0.00  0.00    +0.000 C 
ENDBRANCH  59  62
ENDBRANCH  50  58
ENDBRANCH  43  50
ENDBRANCH  36  41
ENDBRANCH   1  33
TORSDOF 13
ENDMDL
