MODEL 1
REMARK VINA RESULT:     -10.2      0.000      0.000
REMARK  Name = 14353454
REMARK  8 active torsions:
REMARK  status: ('A' for Active; 'I' for Inactive)
REMARK    1  A    between atoms: O_3  and  C_21
REMARK    2  A    between atoms: O_3  and  C_29
REMARK    3  A    between atoms: O_7  and  C_26
REMARK    4  A    between atoms: O_7  and  C_30
REMARK    5  A    between atoms: O_11  and  C_27
REMARK    6  A    between atoms: O_11  and  C_39
REMARK    7  A    between atoms: C_19  and  C_27
REMARK    8  A    between atoms: C_33  and  C_38
REMARK                            x       y       z     vdW  Elec       q    Type
REMARK                         _______ _______ _______ _____ _____    ______ ____
ROOT
ATOM      1  O   UNL     1     113.527 126.237 138.640  0.00  0.00    +0.000 OA
ATOM      2  O   UNL     1     111.129 125.795 138.212  0.00  0.00    +0.000 OA
ATOM      3  O   UNL     1     110.765 126.386 139.477  0.00  0.00    +0.000 OA
ATOM      4  C   UNL     1     112.495 125.721 137.797  0.00  0.00    +0.000 A 
ATOM      5  C   UNL     1     112.631 127.075 140.508  0.00  0.00    +0.000 A 
ATOM      6  C   UNL     1     112.162 126.312 139.055  0.00  0.00    +0.000 A 
ATOM      7  C   UNL     1     111.929 125.943 138.355  0.00  0.00    +0.000 A 
ATOM      8  C   UNL     1     113.294 125.869 137.940  0.00  0.00    +0.000 A 
ATOM      9  C   UNL     1     112.960 126.459 139.198  0.00  0.00    +0.000 A 
ATOM     10  C   UNL     1     113.216 126.842 139.923  0.00  0.00    +0.000 A 
ATOM     11  C   UNL     1     111.798 126.922 140.359  0.00  0.00    +0.000 A 
ATOM     12  C   UNL     1     111.562 126.538 139.628  0.00  0.00    +0.000 A 
ENDROOT
BRANCH   8  14
ATOM     13  O   UNL     1     115.558 124.984 135.707  0.00  0.00    +0.000 OA
ATOM     14  C   UNL     1     113.860 125.647 137.382  0.00  0.00    +0.000 A 
ATOM     15  C   UNL     1     114.092 124.858 137.321  0.00  0.00    +0.000 A 
ATOM     16  C   UNL     1     114.194 126.215 136.885  0.00  0.00    +0.000 A 
ATOM     17  C   UNL     1     114.658 124.637 136.762  0.00  0.00    +0.000 A 
ATOM     18  C   UNL     1     114.760 125.994 136.328  0.00  0.00    +0.000 A 
ATOM     19  C   UNL     1     114.992 125.204 136.266  0.00  0.00    +0.000 A 
ENDBRANCH   8  14
BRANCH   4  20
ATOM     20  O   UNL     1     112.262 125.352 137.097  0.00  0.00    +0.000 OA
BRANCH  20  29
ATOM     21  O   UNL     1     111.742 126.555 136.526  0.00  0.00    +0.000 OA
ATOM     22  O   UNL     1     110.164 126.871 135.051  0.00  0.00    +0.000 OA
ATOM     23  O   UNL     1     110.155 125.225 135.169  0.00  0.00    +0.000 OA
ATOM     24  O   UNL     1     111.204 124.466 136.192  0.00  0.00    +0.000 OA
ATOM     25  C   UNL     1     110.689 126.491 135.563  0.00  0.00    +0.000 C 
ATOM     26  C   UNL     1     110.684 125.668 135.622  0.00  0.00    +0.000 C 
ATOM     27  C   UNL     1     111.218 126.934 136.015  0.00  0.00    +0.000 C 
ATOM     28  C   UNL     1     111.209 125.289 136.134  0.00  0.00    +0.000 C 
ATOM     29  C   UNL     1     111.738 125.732 136.586  0.00  0.00    +0.000 C 
BRANCH  27  30
ATOM     30  C   UNL     1     111.222 127.757 135.955  0.00  0.00    +0.000 C 
BRANCH  30  31
ATOM     31  O   UNL     1     111.937 128.166 135.922  0.00  0.00    +0.000 OA
BRANCH  31  33
ATOM     32  O   UNL     1     111.834 129.444 135.294  0.00  0.00    +0.000 OA
ATOM     33  C   UNL     1     111.945 128.988 135.972  0.00  0.00    +0.000 C 
ATOM     34  C   UNL     1     112.065 129.356 136.701  0.00  0.00    +0.000 C 
ENDBRANCH  31  33
ENDBRANCH  30  31
ENDBRANCH  27  30
ENDBRANCH  20  29
ENDBRANCH   4  20
BRANCH   5  35
ATOM     35  O   UNL     1     112.867 127.444 141.207  0.00  0.00    +0.000 OA
BRANCH  35  44
ATOM     36  O   UNL     1     113.240 128.714 140.669  0.00  0.00    +0.000 OA
ATOM     37  O   UNL     1     112.158 129.844 142.587  0.00  0.00    +0.000 OA
ATOM     38  O   UNL     1     112.892 130.738 141.410  0.00  0.00    +0.000 OA
ATOM     39  O   UNL     1     112.146 128.198 142.486  0.00  0.00    +0.000 OA
ATOM     40  C   UNL     1     112.519 129.468 141.947  0.00  0.00    +0.000 C 
ATOM     41  C   UNL     1     112.886 129.914 141.358  0.00  0.00    +0.000 C 
ATOM     42  C   UNL     1     112.513 128.644 141.897  0.00  0.00    +0.000 C 
ATOM     43  C   UNL     1     113.246 129.538 140.720  0.00  0.00    +0.000 C 
ATOM     44  C   UNL     1     112.873 128.267 141.258  0.00  0.00    +0.000 C 
ATOM     45  C   UNL     1     113.613 129.984 140.131  0.00  0.00    +0.000 C 
ENDBRANCH  35  44
ENDBRANCH   5  35
TORSDOF 8
ENDMDL
MODEL 2
REMARK VINA RESULT:      -9.9      1.712      4.676
REMARK  Name = 14353454
REMARK  8 active torsions:
REMARK  status: ('A' for Active; 'I' for Inactive)
REMARK    1  A    between atoms: O_3  and  C_21
REMARK    2  A    between atoms: O_3  and  C_29
REMARK    3  A    between atoms: O_7  and  C_26
REMARK    4  A    between atoms: O_7  and  C_30
REMARK    5  A    between atoms: O_11  and  C_27
REMARK    6  A    between atoms: O_11  and  C_39
REMARK    7  A    between atoms: C_19  and  C_27
REMARK    8  A    between atoms: C_33  and  C_38
REMARK                            x       y       z     vdW  Elec       q    Type
REMARK                         _______ _______ _______ _____ _____    ______ ____
ROOT
ATOM      1  O   UNL     1     112.058 128.376 138.336  0.00  0.00    +0.000 OA
ATOM      2  O   UNL     1     113.806 127.402 136.878  0.00  0.00    +0.000 OA
ATOM      3  O   UNL     1     113.657 128.479 135.931  0.00  0.00    +0.000 OA
ATOM      4  C   UNL     1     113.016 127.349 138.068  0.00  0.00    +0.000 A 
ATOM      5  C   UNL     1     112.078 129.880 136.683  0.00  0.00    +0.000 A 
ATOM      6  C   UNL     1     112.848 128.428 137.146  0.00  0.00    +0.000 A 
ATOM      7  C   UNL     1     113.223 127.727 137.364  0.00  0.00    +0.000 A 
ATOM      8  C   UNL     1     112.433 127.674 138.554  0.00  0.00    +0.000 A 
ATOM      9  C   UNL     1     112.265 128.752 137.631  0.00  0.00    +0.000 A 
ATOM     10  C   UNL     1     111.867 129.482 137.416  0.00  0.00    +0.000 A 
ATOM     11  C   UNL     1     112.686 129.542 136.177  0.00  0.00    +0.000 A 
ATOM     12  C   UNL     1     113.073 128.811 136.410  0.00  0.00    +0.000 A 
ENDROOT
BRANCH   8  14
ATOM     13  O   UNL     1     111.603 126.164 141.368  0.00  0.00    +0.000 OA
ATOM     14  C   UNL     1     112.226 127.297 139.258  0.00  0.00    +0.000 A 
ATOM     15  C   UNL     1     112.739 127.317 139.903  0.00  0.00    +0.000 A 
ATOM     16  C   UNL     1     111.505 126.899 139.315  0.00  0.00    +0.000 A 
ATOM     17  C   UNL     1     112.531 126.939 140.607  0.00  0.00    +0.000 A 
ATOM     18  C   UNL     1     111.298 126.522 140.019  0.00  0.00    +0.000 A 
ATOM     19  C   UNL     1     111.811 126.542 140.665  0.00  0.00    +0.000 A 
ENDBRANCH   8  14
BRANCH   4  20
ATOM     20  O   UNL     1     113.391 126.648 138.286  0.00  0.00    +0.000 OA
BRANCH  20  29
ATOM     21  O   UNL     1     112.710 125.882 137.290  0.00  0.00    +0.000 OA
ATOM     22  O   UNL     1     113.261 124.018 136.296  0.00  0.00    +0.000 OA
ATOM     23  O   UNL     1     114.558 124.235 137.293  0.00  0.00    +0.000 OA
ATOM     24  O   UNL     1     114.623 125.550 138.288  0.00  0.00    +0.000 OA
ATOM     25  C   UNL     1     113.293 124.676 136.794  0.00  0.00    +0.000 C 
ATOM     26  C   UNL     1     113.942 124.784 137.292  0.00  0.00    +0.000 C 
ATOM     27  C   UNL     1     112.678 125.225 136.793  0.00  0.00    +0.000 C 
ATOM     28  C   UNL     1     113.974 125.442 137.790  0.00  0.00    +0.000 C 
ATOM     29  C   UNL     1     113.359 125.991 137.789  0.00  0.00    +0.000 C 
BRANCH  27  30
ATOM     30  C   UNL     1     112.029 125.116 136.295  0.00  0.00    +0.000 C 
BRANCH  30  31
ATOM     31  O   UNL     1     111.269 125.292 136.561  0.00  0.00    +0.000 OA
BRANCH  31  33
ATOM     32  O   UNL     1     110.595 124.919 135.358  0.00  0.00    +0.000 OA
ATOM     33  C   UNL     1     110.659 125.409 136.019  0.00  0.00    +0.000 C 
ATOM     34  C   UNL     1     110.112 126.015 136.137  0.00  0.00    +0.000 C 
ENDBRANCH  31  33
ENDBRANCH  30  31
ENDBRANCH  27  30
ENDBRANCH  20  29
ENDBRANCH   4  20
BRANCH   5  35
ATOM     35  O   UNL     1     111.701 130.581 136.468  0.00  0.00    +0.000 OA
BRANCH  35  44
ATOM     36  O   UNL     1     110.784 129.999 135.540  0.00  0.00    +0.000 OA
ATOM     37  O   UNL     1     109.043 131.606 136.254  0.00  0.00    +0.000 OA
ATOM     38  O   UNL     1     108.705 130.488 135.088  0.00  0.00    +0.000 OA
ATOM     39  O   UNL     1     110.540 131.653 136.943  0.00  0.00    +0.000 OA
ATOM     40  C   UNL     1     109.623 131.070 136.015  0.00  0.00    +0.000 C 
ATOM     41  C   UNL     1     109.454 130.511 135.433  0.00  0.00    +0.000 C 
ATOM     42  C   UNL     1     110.372 131.094 136.360  0.00  0.00    +0.000 C 
ATOM     43  C   UNL     1     110.034 129.976 135.195  0.00  0.00    +0.000 C 
ATOM     44  C   UNL     1     110.952 130.558 136.123  0.00  0.00    +0.000 C 
ATOM     45  C   UNL     1     109.866 129.416 134.612  0.00  0.00    +0.000 C 
ENDBRANCH  35  44
ENDBRANCH   5  35
TORSDOF 8
ENDMDL
MODEL 3
REMARK VINA RESULT:      -9.9      1.683      5.845
REMARK  Name = 14353454
REMARK  8 active torsions:
REMARK  status: ('A' for Active; 'I' for Inactive)
REMARK    1  A    between atoms: O_3  and  C_21
REMARK    2  A    between atoms: O_3  and  C_29
REMARK    3  A    between atoms: O_7  and  C_26
REMARK    4  A    between atoms: O_7  and  C_30
REMARK    5  A    between atoms: O_11  and  C_27
REMARK    6  A    between atoms: O_11  and  C_39
REMARK    7  A    between atoms: C_19  and  C_27
REMARK    8  A    between atoms: C_33  and  C_38
REMARK                            x       y       z     vdW  Elec       q    Type
REMARK                         _______ _______ _______ _____ _____    ______ ____
ROOT
ATOM      1  O   UNL     1     112.827 128.629 138.204  0.00  0.00    +0.000 OA
ATOM      2  O   UNL     1     114.085 128.645 140.336  0.00  0.00    +0.000 OA
ATOM      3  O   UNL     1     113.731 127.269 140.589  0.00  0.00    +0.000 OA
ATOM      4  C   UNL     1     113.639 129.318 139.157  0.00  0.00    +0.000 A 
ATOM      5  C   UNL     1     112.466 126.534 138.892  0.00  0.00    +0.000 A 
ATOM      6  C   UNL     1     113.273 127.955 139.383  0.00  0.00    +0.000 A 
ATOM      7  C   UNL     1     113.665 128.639 139.625  0.00  0.00    +0.000 A 
ATOM      8  C   UNL     1     113.219 129.313 138.446  0.00  0.00    +0.000 A 
ATOM      9  C   UNL     1     112.854 127.950 138.672  0.00  0.00    +0.000 A 
ATOM     10  C   UNL     1     112.442 127.244 138.408  0.00  0.00    +0.000 A 
ATOM     11  C   UNL     1     112.903 126.539 139.633  0.00  0.00    +0.000 A 
ATOM     12  C   UNL     1     113.309 127.255 139.879  0.00  0.00    +0.000 A 
ENDROOT
BRANCH   8  14
ATOM     13  O   UNL     1     113.110 132.030 136.576  0.00  0.00    +0.000 OA
ATOM     14  C   UNL     1     113.193 129.992 137.979  0.00  0.00    +0.000 A 
ATOM     15  C   UNL     1     113.860 130.228 137.555  0.00  0.00    +0.000 A 
ATOM     16  C   UNL     1     112.497 130.435 137.934  0.00  0.00    +0.000 A 
ATOM     17  C   UNL     1     113.832 130.908 137.088  0.00  0.00    +0.000 A 
ATOM     18  C   UNL     1     112.471 131.114 137.466  0.00  0.00    +0.000 A 
ATOM     19  C   UNL     1     113.138 131.350 137.043  0.00  0.00    +0.000 A 
ENDBRANCH   8  14
BRANCH   4  20
ATOM     20  O   UNL     1     114.031 130.002 139.400  0.00  0.00    +0.000 OA
BRANCH  20  29
ATOM     21  O   UNL     1     113.074 130.315 140.414  0.00  0.00    +0.000 OA
ATOM     22  O   UNL     1     113.291 131.387 142.302  0.00  0.00    +0.000 OA
ATOM     23  O   UNL     1     114.836 131.455 141.726  0.00  0.00    +0.000 OA
ATOM     24  O   UNL     1     115.206 130.763 140.274  0.00  0.00    +0.000 OA
ATOM     25  C   UNL     1     113.476 131.041 141.576  0.00  0.00    +0.000 C 
ATOM     26  C   UNL     1     114.248 131.075 141.288  0.00  0.00    +0.000 C 
ATOM     27  C   UNL     1     112.889 130.661 141.139  0.00  0.00    +0.000 C 
ATOM     28  C   UNL     1     114.433 130.728 140.562  0.00  0.00    +0.000 C 
ATOM     29  C   UNL     1     113.846 130.348 140.125  0.00  0.00    +0.000 C 
BRANCH  27  30
ATOM     30  C   UNL     1     112.117 130.627 141.428  0.00  0.00    +0.000 C 
BRANCH  30  31
ATOM     31  O   UNL     1     111.486 130.856 140.949  0.00  0.00    +0.000 OA
BRANCH  31  33
ATOM     32  O   UNL     1     110.308 131.330 141.603  0.00  0.00    +0.000 OA
ATOM     33  C   UNL     1     110.711 130.733 141.200  0.00  0.00    +0.000 C 
ATOM     34  C   UNL     1     110.337 130.013 141.051  0.00  0.00    +0.000 C 
ENDBRANCH  31  33
ENDBRANCH  30  31
ENDBRANCH  27  30
ENDBRANCH  20  29
ENDBRANCH   4  20
BRANCH   5  35
ATOM     35  O   UNL     1     112.073 125.851 138.647  0.00  0.00    +0.000 OA
BRANCH  35  44
ATOM     36  O   UNL     1     113.207 125.294 137.979  0.00  0.00    +0.000 OA
ATOM     37  O   UNL     1     111.705 124.180 136.359  0.00  0.00    +0.000 OA
ATOM     38  O   UNL     1     113.340 123.994 136.230  0.00  0.00    +0.000 OA
ATOM     39  O   UNL     1     111.072 125.108 137.566  0.00  0.00    +0.000 OA
ATOM     40  C   UNL     1     112.206 124.551 136.899  0.00  0.00    +0.000 C 
ATOM     41  C   UNL     1     113.023 124.458 136.835  0.00  0.00    +0.000 C 
ATOM     42  C   UNL     1     111.889 125.015 137.502  0.00  0.00    +0.000 C 
ATOM     43  C   UNL     1     113.523 124.829 137.375  0.00  0.00    +0.000 C 
ATOM     44  C   UNL     1     112.390 125.387 138.043  0.00  0.00    +0.000 C 
ATOM     45  C   UNL     1     114.341 124.737 137.311  0.00  0.00    +0.000 C 
ENDBRANCH  35  44
ENDBRANCH   5  35
TORSDOF 8
ENDMDL
MODEL 4
REMARK VINA RESULT:      -9.7      1.799      4.918
REMARK  Name = 14353454
REMARK  8 active torsions:
REMARK  status: ('A' for Active; 'I' for Inactive)
REMARK    1  A    between atoms: O_3  and  C_21
REMARK    2  A    between atoms: O_3  and  C_29
REMARK    3  A    between atoms: O_7  and  C_26
REMARK    4  A    between atoms: O_7  and  C_30
REMARK    5  A    between atoms: O_11  and  C_27
REMARK    6  A    between atoms: O_11  and  C_39
REMARK    7  A    between atoms: C_19  and  C_27
REMARK    8  A    between atoms: C_33  and  C_38
REMARK                            x       y       z     vdW  Elec       q    Type
REMARK                         _______ _______ _______ _____ _____    ______ ____
ROOT
ATOM      1  O   UNL     1     112.450 127.399 136.687  0.00  0.00    +0.000 OA
ATOM      2  O   UNL     1     112.876 128.498 138.864  0.00  0.00    +0.000 OA
ATOM      3  O   UNL     1     112.197 129.693 138.426  0.00  0.00    +0.000 OA
ATOM      4  C   UNL     1     113.002 127.362 138.005  0.00  0.00    +0.000 A 
ATOM      5  C   UNL     1     111.475 129.377 136.328  0.00  0.00    +0.000 A 
ATOM      6  C   UNL     1     112.324 128.534 137.546  0.00  0.00    +0.000 A 
ATOM      7  C   UNL     1     112.734 128.131 138.138  0.00  0.00    +0.000 A 
ATOM      8  C   UNL     1     112.859 126.996 137.279  0.00  0.00    +0.000 A 
ATOM      9  C   UNL     1     112.182 128.168 136.821  0.00  0.00    +0.000 A 
ATOM     10  C   UNL     1     111.757 128.576 136.196  0.00  0.00    +0.000 A 
ATOM     11  C   UNL     1     111.623 129.759 137.085  0.00  0.00    +0.000 A 
ATOM     12  C   UNL     1     112.051 129.334 137.697  0.00  0.00    +0.000 A 
ENDROOT
BRANCH   8  14
ATOM     13  O   UNL     1     113.928 123.919 136.748  0.00  0.00    +0.000 OA
ATOM     14  C   UNL     1     113.127 126.227 137.146  0.00  0.00    +0.000 A 
ATOM     15  C   UNL     1     113.933 126.083 137.040  0.00  0.00    +0.000 A 
ATOM     16  C   UNL     1     112.589 125.602 137.119  0.00  0.00    +0.000 A 
ATOM     17  C   UNL     1     114.199 125.313 136.907  0.00  0.00    +0.000 A 
ATOM     18  C   UNL     1     112.856 124.833 136.986  0.00  0.00    +0.000 A 
ATOM     19  C   UNL     1     113.662 124.689 136.880  0.00  0.00    +0.000 A 
ENDBRANCH   8  14
BRANCH   4  20
ATOM     20  O   UNL     1     113.412 126.960 138.597  0.00  0.00    +0.000 OA
BRANCH  20  29
ATOM     21  O   UNL     1     112.254 126.704 139.395  0.00  0.00    +0.000 OA
ATOM     22  O   UNL     1     112.021 126.516 141.557  0.00  0.00    +0.000 OA
ATOM     23  O   UNL     1     113.641 126.805 141.441  0.00  0.00    +0.000 OA
ATOM     24  O   UNL     1     114.337 127.027 139.961  0.00  0.00    +0.000 OA
ATOM     25  C   UNL     1     112.369 126.627 140.816  0.00  0.00    +0.000 C 
ATOM     26  C   UNL     1     113.179 126.772 140.759  0.00  0.00    +0.000 C 
ATOM     27  C   UNL     1     111.906 126.593 140.134  0.00  0.00    +0.000 C 
ATOM     28  C   UNL     1     113.527 126.883 140.018  0.00  0.00    +0.000 C 
ATOM     29  C   UNL     1     113.064 126.849 139.336  0.00  0.00    +0.000 C 
BRANCH  27  30
ATOM     30  C   UNL     1     111.096 126.449 140.192  0.00  0.00    +0.000 C 
BRANCH  30  31
ATOM     31  O   UNL     1     110.739 125.894 139.697  0.00  0.00    +0.000 OA
BRANCH  31  33
ATOM     32  O   UNL     1     109.541 125.331 140.234  0.00  0.00    +0.000 OA
ATOM     33  C   UNL     1     109.918 125.820 139.686  0.00  0.00    +0.000 C 
ATOM     34  C   UNL     1     109.472 126.233 139.128  0.00  0.00    +0.000 C 
ENDBRANCH  31  33
ENDBRANCH  30  31
ENDBRANCH  27  30
ENDBRANCH  20  29
ENDBRANCH   4  20
BRANCH   5  35
ATOM     35  O   UNL     1     111.066 129.778 135.735  0.00  0.00    +0.000 OA
BRANCH  35  44
ATOM     36  O   UNL     1     109.833 129.057 135.793  0.00  0.00    +0.000 OA
ATOM     37  O   UNL     1     108.583 131.182 135.570  0.00  0.00    +0.000 OA
ATOM     38  O   UNL     1     107.765 129.754 135.702  0.00  0.00    +0.000 OA
ATOM     39  O   UNL     1     110.232 131.194 135.586  0.00  0.00    +0.000 OA
ATOM     40  C   UNL     1     108.999 130.473 135.644  0.00  0.00    +0.000 C 
ATOM     41  C   UNL     1     108.591 129.759 135.710  0.00  0.00    +0.000 C 
ATOM     42  C   UNL     1     109.824 130.480 135.652  0.00  0.00    +0.000 C 
ATOM     43  C   UNL     1     109.007 129.052 135.784  0.00  0.00    +0.000 C 
ATOM     44  C   UNL     1     110.241 129.772 135.726  0.00  0.00    +0.000 C 
ATOM     45  C   UNL     1     108.599 128.338 135.850  0.00  0.00    +0.000 C 
ENDBRANCH  35  44
ENDBRANCH   5  35
TORSDOF 8
ENDMDL
MODEL 5
REMARK VINA RESULT:      -9.7      1.187      2.928
REMARK  Name = 14353454
REMARK  8 active torsions:
REMARK  status: ('A' for Active; 'I' for Inactive)
REMARK    1  A    between atoms: O_3  and  C_21
REMARK    2  A    between atoms: O_3  and  C_29
REMARK    3  A    between atoms: O_7  and  C_26
REMARK    4  A    between atoms: O_7  and  C_30
REMARK    5  A    between atoms: O_11  and  C_27
REMARK    6  A    between atoms: O_11  and  C_39
REMARK    7  A    between atoms: C_19  and  C_27
REMARK    8  A    between atoms: C_33  and  C_38
REMARK                            x       y       z     vdW  Elec       q    Type
REMARK                         _______ _______ _______ _____ _____    ______ ____
ROOT
ATOM      1  O   UNL     1     112.868 128.464 138.112  0.00  0.00    +0.000 OA
ATOM      2  O   UNL     1     111.894 126.289 138.782  0.00  0.00    +0.000 OA
ATOM      3  O   UNL     1     112.548 126.360 140.066  0.00  0.00    +0.000 OA
ATOM      4  C   UNL     1     112.052 127.328 137.814  0.00  0.00    +0.000 A 
ATOM      5  C   UNL     1     113.726 128.263 140.165  0.00  0.00    +0.000 A 
ATOM      6  C   UNL     1     112.710 127.424 139.079  0.00  0.00    +0.000 A 
ATOM      7  C   UNL     1     112.219 127.014 138.558  0.00  0.00    +0.000 A 
ATOM      8  C   UNL     1     112.376 128.054 137.591  0.00  0.00    +0.000 A 
ATOM      9  C   UNL     1     113.034 128.149 138.856  0.00  0.00    +0.000 A 
ATOM     10  C   UNL     1     113.548 128.586 139.388  0.00  0.00    +0.000 A 
ATOM     11  C   UNL     1     113.388 127.507 140.398  0.00  0.00    +0.000 A 
ATOM     12  C   UNL     1     112.877 127.085 139.851  0.00  0.00    +0.000 A 
ENDROOT
BRANCH   8  14
ATOM     13  O   UNL     1     111.709 129.311 134.614  0.00  0.00    +0.000 OA
ATOM     14  C   UNL     1     112.209 128.368 136.847  0.00  0.00    +0.000 A 
ATOM     15  C   UNL     1     111.466 128.693 136.693  0.00  0.00    +0.000 A 
ATOM     16  C   UNL     1     112.785 128.358 136.256  0.00  0.00    +0.000 A 
ATOM     17  C   UNL     1     111.300 129.007 135.949  0.00  0.00    +0.000 A 
ATOM     18  C   UNL     1     112.618 128.672 135.512  0.00  0.00    +0.000 A 
ATOM     19  C   UNL     1     111.875 128.997 135.358  0.00  0.00    +0.000 A 
ENDBRANCH   8  14
BRANCH   4  20
ATOM     20  O   UNL     1     111.560 126.918 137.294  0.00  0.00    +0.000 OA
BRANCH  20  29
ATOM     21  O   UNL     1     112.555 125.931 137.014  0.00  0.00    +0.000 OA
ATOM     22  O   UNL     1     112.368 123.871 136.318  0.00  0.00    +0.000 OA
ATOM     23  O   UNL     1     110.782 124.322 136.388  0.00  0.00    +0.000 OA
ATOM     24  O   UNL     1     110.378 125.846 136.877  0.00  0.00    +0.000 OA
ATOM     25  C   UNL     1     112.166 124.634 136.562  0.00  0.00    +0.000 C 
ATOM     26  C   UNL     1     111.373 124.858 136.597  0.00  0.00    +0.000 C 
ATOM     27  C   UNL     1     112.757 125.170 136.770  0.00  0.00    +0.000 C 
ATOM     28  C   UNL     1     111.171 125.621 136.841  0.00  0.00    +0.000 C 
ATOM     29  C   UNL     1     111.762 126.157 137.050  0.00  0.00    +0.000 C 
BRANCH  27  30
ATOM     30  C   UNL     1     113.550 124.944 136.735  0.00  0.00    +0.000 C 
BRANCH  30  31
ATOM     31  O   UNL     1     114.115 125.467 136.442  0.00  0.00    +0.000 OA
BRANCH  31  33
ATOM     32  O   UNL     1     115.223 125.004 137.215  0.00  0.00    +0.000 OA
ATOM     33  C   UNL     1     114.917 125.284 136.502  0.00  0.00    +0.000 C 
ATOM     34  C   UNL     1     115.413 125.381 135.850  0.00  0.00    +0.000 C 
ENDBRANCH  31  33
ENDBRANCH  30  31
ENDBRANCH  27  30
ENDBRANCH  20  29
ENDBRANCH   4  20
BRANCH   5  35
ATOM     35  O   UNL     1     114.217 128.675 140.684  0.00  0.00    +0.000 OA
BRANCH  35  44
ATOM     36  O   UNL     1     113.231 129.416 141.406  0.00  0.00    +0.000 OA
ATOM     37  O   UNL     1     114.648 131.440 141.262  0.00  0.00    +0.000 OA
ATOM     38  O   UNL     1     113.190 131.507 142.033  0.00  0.00    +0.000 OA
ATOM     39  O   UNL     1     115.161 130.025 140.588  0.00  0.00    +0.000 OA
ATOM     40  C   UNL     1     114.175 130.766 141.311  0.00  0.00    +0.000 C 
ATOM     41  C   UNL     1     113.446 130.798 141.696  0.00  0.00    +0.000 C 
ATOM     42  C   UNL     1     114.432 130.058 140.973  0.00  0.00    +0.000 C 
ATOM     43  C   UNL     1     112.975 130.124 141.743  0.00  0.00    +0.000 C 
ATOM     44  C   UNL     1     113.960 129.383 141.021  0.00  0.00    +0.000 C 
ATOM     45  C   UNL     1     112.246 130.157 142.129  0.00  0.00    +0.000 C 
ENDBRANCH  35  44
ENDBRANCH   5  35
TORSDOF 8
ENDMDL
MODEL 6
REMARK VINA RESULT:      -9.7      2.349      5.341
REMARK  Name = 14353454
REMARK  8 active torsions:
REMARK  status: ('A' for Active; 'I' for Inactive)
REMARK    1  A    between atoms: O_3  and  C_21
REMARK    2  A    between atoms: O_3  and  C_29
REMARK    3  A    between atoms: O_7  and  C_26
REMARK    4  A    between atoms: O_7  and  C_30
REMARK    5  A    between atoms: O_11  and  C_27
REMARK    6  A    between atoms: O_11  and  C_39
REMARK    7  A    between atoms: C_19  and  C_27
REMARK    8  A    between atoms: C_33  and  C_38
REMARK                            x       y       z     vdW  Elec       q    Type
REMARK                         _______ _______ _______ _____ _____    ______ ____
ROOT
ATOM      1  O   UNL     1     110.216 127.616 136.860  0.00  0.00    +0.000 OA
ATOM      2  O   UNL     1     109.657 128.191 139.203  0.00  0.00    +0.000 OA
ATOM      3  O   UNL     1     110.163 126.921 139.665  0.00  0.00    +0.000 OA
ATOM      4  C   UNL     1     109.683 128.536 137.816  0.00  0.00    +0.000 A 
ATOM      5  C   UNL     1     110.907 125.762 137.898  0.00  0.00    +0.000 A 
ATOM      6  C   UNL     1     110.190 127.271 138.247  0.00  0.00    +0.000 A 
ATOM      7  C   UNL     1     109.844 127.999 138.422  0.00  0.00    +0.000 A 
ATOM      8  C   UNL     1     109.869 128.344 137.035  0.00  0.00    +0.000 A 
ATOM      9  C   UNL     1     110.376 127.080 137.467  0.00  0.00    +0.000 A 
ATOM     10  C   UNL     1     110.737 126.325 137.271  0.00  0.00    +0.000 A 
ATOM     11  C   UNL     1     110.713 125.961 138.712  0.00  0.00    +0.000 A 
ATOM     12  C   UNL     1     110.352 126.721 138.887  0.00  0.00    +0.000 A 
ENDROOT
BRANCH   8  14
ATOM     13  O   UNL     1     109.229 130.493 134.614  0.00  0.00    +0.000 OA
ATOM     14  C   UNL     1     109.709 128.881 136.430  0.00  0.00    +0.000 A 
ATOM     15  C   UNL     1     108.930 129.017 136.194  0.00  0.00    +0.000 A 
ATOM     16  C   UNL     1     110.328 129.283 136.060  0.00  0.00    +0.000 A 
ATOM     17  C   UNL     1     108.770 129.554 135.588  0.00  0.00    +0.000 A 
ATOM     18  C   UNL     1     110.167 129.820 135.455  0.00  0.00    +0.000 A 
ATOM     19  C   UNL     1     109.389 129.955 135.219  0.00  0.00    +0.000 A 
ENDBRANCH   8  14
BRANCH   4  20
ATOM     20  O   UNL     1     109.336 129.264 137.991  0.00  0.00    +0.000 OA
BRANCH  20  29
ATOM     21  O   UNL     1     110.526 129.815 138.560  0.00  0.00    +0.000 OA
ATOM     22  O   UNL     1     110.800 131.320 140.117  0.00  0.00    +0.000 OA
ATOM     23  O   UNL     1     109.153 131.246 140.043  0.00  0.00    +0.000 OA
ATOM     24  O   UNL     1     108.422 130.217 138.980  0.00  0.00    +0.000 OA
ATOM     25  C   UNL     1     110.434 130.806 139.585  0.00  0.00    +0.000 C 
ATOM     26  C   UNL     1     109.611 130.769 139.548  0.00  0.00    +0.000 C 
ATOM     27  C   UNL     1     110.891 130.329 139.091  0.00  0.00    +0.000 C 
ATOM     28  C   UNL     1     109.245 130.254 139.016  0.00  0.00    +0.000 C 
ATOM     29  C   UNL     1     109.702 129.778 138.522  0.00  0.00    +0.000 C 
BRANCH  27  30
ATOM     30  C   UNL     1     111.715 130.367 139.129  0.00  0.00    +0.000 C 
BRANCH  30  31
ATOM     31  O   UNL     1     112.159 130.390 138.435  0.00  0.00    +0.000 OA
BRANCH  31  33
ATOM     32  O   UNL     1     113.441 130.994 138.612  0.00  0.00    +0.000 OA
ATOM     33  C   UNL     1     112.981 130.325 138.469  0.00  0.00    +0.000 C 
ATOM     34  C   UNL     1     113.342 129.591 138.360  0.00  0.00    +0.000 C 
ENDBRANCH  31  33
ENDBRANCH  30  31
ENDBRANCH  27  30
ENDBRANCH  20  29
ENDBRANCH   4  20
BRANCH   5  35
ATOM     35  O   UNL     1     111.254 125.035 137.720  0.00  0.00    +0.000 OA
BRANCH  35  44
ATOM     36  O   UNL     1     112.594 125.437 138.012  0.00  0.00    +0.000 OA
ATOM     37  O   UNL     1     113.428 123.964 136.206  0.00  0.00    +0.000 OA
ATOM     38  O   UNL     1     114.490 124.857 137.099  0.00  0.00    +0.000 OA
ATOM     39  O   UNL     1     111.810 124.053 136.516  0.00  0.00    +0.000 OA
ATOM     40  C   UNL     1     113.150 124.455 136.808  0.00  0.00    +0.000 C 
ATOM     41  C   UNL     1     113.681 124.902 137.255  0.00  0.00    +0.000 C 
ATOM     42  C   UNL     1     112.341 124.499 136.963  0.00  0.00    +0.000 C 
ATOM     43  C   UNL     1     113.403 125.392 137.856  0.00  0.00    +0.000 C 
ATOM     44  C   UNL     1     112.063 124.990 137.565  0.00  0.00    +0.000 C 
ATOM     45  C   UNL     1     113.934 125.838 138.303  0.00  0.00    +0.000 C 
ENDBRANCH  35  44
ENDBRANCH   5  35
TORSDOF 8
ENDMDL
MODEL 7
REMARK VINA RESULT:      -9.6      2.147      4.953
REMARK  Name = 14353454
REMARK  8 active torsions:
REMARK  status: ('A' for Active; 'I' for Inactive)
REMARK    1  A    between atoms: O_3  and  C_21
REMARK    2  A    between atoms: O_3  and  C_29
REMARK    3  A    between atoms: O_7  and  C_26
REMARK    4  A    between atoms: O_7  and  C_30
REMARK    5  A    between atoms: O_11  and  C_27
REMARK    6  A    between atoms: O_11  and  C_39
REMARK    7  A    between atoms: C_19  and  C_27
REMARK    8  A    between atoms: C_33  and  C_38
REMARK                            x       y       z     vdW  Elec       q    Type
REMARK                         _______ _______ _______ _____ _____    ______ ____
ROOT
ATOM      1  O   UNL     1     113.615 128.386 136.870  0.00  0.00    +0.000 OA
ATOM      2  O   UNL     1     111.872 129.548 138.190  0.00  0.00    +0.000 OA
ATOM      3  O   UNL     1     111.513 128.317 138.852  0.00  0.00    +0.000 OA
ATOM      4  C   UNL     1     112.912 129.584 137.210  0.00  0.00    +0.000 A 
ATOM      5  C   UNL     1     112.819 126.675 138.067  0.00  0.00    +0.000 A 
ATOM      6  C   UNL     1     112.576 128.351 137.850  0.00  0.00    +0.000 A 
ATOM      7  C   UNL     1     112.454 129.160 137.750  0.00  0.00    +0.000 A 
ATOM      8  C   UNL     1     113.493 129.196 136.770  0.00  0.00    +0.000 A 
ATOM      9  C   UNL     1     113.156 127.964 137.411  0.00  0.00    +0.000 A 
ATOM     10  C   UNL     1     113.294 127.121 137.505  0.00  0.00    +0.000 A 
ATOM     11  C   UNL     1     112.214 127.078 138.525  0.00  0.00    +0.000 A 
ATOM     12  C   UNL     1     112.092 127.922 138.416  0.00  0.00    +0.000 A 
ENDROOT
BRANCH   8  14
ATOM     13  O   UNL     1     115.327 130.890 134.612  0.00  0.00    +0.000 OA
ATOM     14  C   UNL     1     113.951 129.619 136.230  0.00  0.00    +0.000 A 
ATOM     15  C   UNL     1     113.849 129.502 135.420  0.00  0.00    +0.000 A 
ATOM     16  C   UNL     1     114.512 130.161 136.501  0.00  0.00    +0.000 A 
ATOM     17  C   UNL     1     114.308 129.926 134.881  0.00  0.00    +0.000 A 
ATOM     18  C   UNL     1     114.971 130.584 135.962  0.00  0.00    +0.000 A 
ATOM     19  C   UNL     1     114.868 130.466 135.151  0.00  0.00    +0.000 A 
ENDBRANCH   8  14
BRANCH   4  20
ATOM     20  O   UNL     1     112.789 130.393 137.110  0.00  0.00    +0.000 OA
BRANCH  20  29
ATOM     21  O   UNL     1     111.607 130.243 136.321  0.00  0.00    +0.000 OA
ATOM     22  O   UNL     1     109.838 131.509 136.143  0.00  0.00    +0.000 OA
ATOM     23  O   UNL     1     110.727 132.367 137.236  0.00  0.00    +0.000 OA
ATOM     24  O   UNL     1     112.202 131.810 137.720  0.00  0.00    +0.000 OA
ATOM     25  C   UNL     1     110.577 131.230 136.385  0.00  0.00    +0.000 C 
ATOM     26  C   UNL     1     111.020 131.659 136.931  0.00  0.00    +0.000 C 
ATOM     27  C   UNL     1     110.870 130.521 136.080  0.00  0.00    +0.000 C 
ATOM     28  C   UNL     1     111.759 131.380 137.173  0.00  0.00    +0.000 C 
ATOM     29  C   UNL     1     112.052 130.672 136.868  0.00  0.00    +0.000 C 
BRANCH  27  30
ATOM     30  C   UNL     1     110.425 130.093 135.533  0.00  0.00    +0.000 C 
BRANCH  30  31
ATOM     31  O   UNL     1     110.300 129.286 135.644  0.00  0.00    +0.000 OA
BRANCH  31  33
ATOM     32  O   UNL     1     109.163 128.918 134.862  0.00  0.00    +0.000 OA
ATOM     33  C   UNL     1     109.963 128.833 135.043  0.00  0.00    +0.000 C 
ATOM     34  C   UNL     1     110.426 128.296 134.621  0.00  0.00    +0.000 C 
ENDBRANCH  31  33
ENDBRANCH  30  31
ENDBRANCH  27  30
ENDBRANCH  20  29
ENDBRANCH   4  20
BRANCH   5  35
ATOM     35  O   UNL     1     112.944 125.865 138.165  0.00  0.00    +0.000 OA
BRANCH  35  44
ATOM     36  O   UNL     1     111.891 125.432 137.301  0.00  0.00    +0.000 OA
ATOM     37  O   UNL     1     113.291 123.535 136.548  0.00  0.00    +0.000 OA
ATOM     38  O   UNL     1     111.772 123.733 135.934  0.00  0.00    +0.000 OA
ATOM     39  O   UNL     1     113.877 124.600 137.663  0.00  0.00    +0.000 OA
ATOM     40  C   UNL     1     112.824 124.167 136.799  0.00  0.00    +0.000 C 
ATOM     41  C   UNL     1     112.065 124.267 136.492  0.00  0.00    +0.000 C 
ATOM     42  C   UNL     1     113.117 124.700 137.356  0.00  0.00    +0.000 C 
ATOM     43  C   UNL     1     111.599 124.898 136.743  0.00  0.00    +0.000 C 
ATOM     44  C   UNL     1     112.651 125.332 137.607  0.00  0.00    +0.000 C 
ATOM     45  C   UNL     1     110.839 124.998 136.436  0.00  0.00    +0.000 C 
ENDBRANCH  35  44
ENDBRANCH   5  35
TORSDOF 8
ENDMDL
MODEL 8
REMARK VINA RESULT:      -9.6      1.516      2.990
REMARK  Name = 14353454
REMARK  8 active torsions:
REMARK  status: ('A' for Active; 'I' for Inactive)
REMARK    1  A    between atoms: O_3  and  C_21
REMARK    2  A    between atoms: O_3  and  C_29
REMARK    3  A    between atoms: O_7  and  C_26
REMARK    4  A    between atoms: O_7  and  C_30
REMARK    5  A    between atoms: O_11  and  C_27
REMARK    6  A    between atoms: O_11  and  C_39
REMARK    7  A    between atoms: C_19  and  C_27
REMARK    8  A    between atoms: C_33  and  C_38
REMARK                            x       y       z     vdW  Elec       q    Type
REMARK                         _______ _______ _______ _____ _____    ______ ____
ROOT
ATOM      1  O   UNL     1     113.102 128.707 138.394  0.00  0.00    +0.000 OA
ATOM      2  O   UNL     1     113.634 126.335 138.865  0.00  0.00    +0.000 OA
ATOM      3  O   UNL     1     114.007 126.658 140.221  0.00  0.00    +0.000 OA
ATOM      4  C   UNL     1     113.187 127.347 137.960  0.00  0.00    +0.000 A 
ATOM      5  C   UNL     1     113.746 128.863 140.528  0.00  0.00    +0.000 A 
ATOM      6  C   UNL     1     113.550 127.695 139.298  0.00  0.00    +0.000 A 
ATOM      7  C   UNL     1     113.457 127.126 138.708  0.00  0.00    +0.000 A 
ATOM      8  C   UNL     1     113.009 128.138 137.803  0.00  0.00    +0.000 A 
ATOM      9  C   UNL     1     113.372 128.484 139.141  0.00  0.00    +0.000 A 
ATOM     10  C   UNL     1     113.465 129.087 139.747  0.00  0.00    +0.000 A 
ATOM     11  C   UNL     1     113.931 128.039 140.692  0.00  0.00    +0.000 A 
ATOM     12  C   UNL     1     113.832 127.451 140.073  0.00  0.00    +0.000 A 
ENDROOT
BRANCH   8  14
ATOM     13  O   UNL     1     111.926 129.021 134.814  0.00  0.00    +0.000 OA
ATOM     14  C   UNL     1     112.739 128.359 137.056  0.00  0.00    +0.000 A 
ATOM     15  C   UNL     1     113.262 128.386 136.419  0.00  0.00    +0.000 A 
ATOM     16  C   UNL     1     111.944 128.552 136.946  0.00  0.00    +0.000 A 
ATOM     17  C   UNL     1     112.991 128.607 135.672  0.00  0.00    +0.000 A 
ATOM     18  C   UNL     1     111.674 128.773 136.198  0.00  0.00    +0.000 A 
ATOM     19  C   UNL     1     112.197 128.800 135.561  0.00  0.00    +0.000 A 
ENDBRANCH   8  14
BRANCH   4  20
ATOM     20  O   UNL     1     113.094 126.778 137.370  0.00  0.00    +0.000 OA
BRANCH  20  29
ATOM     21  O   UNL     1     111.922 126.200 137.948  0.00  0.00    +0.000 OA
ATOM     22  O   UNL     1     111.164 124.154 137.897  0.00  0.00    +0.000 OA
ATOM     23  O   UNL     1     112.543 123.998 137.005  0.00  0.00    +0.000 OA
ATOM     24  O   UNL     1     113.508 125.310 136.741  0.00  0.00    +0.000 OA
ATOM     25  C   UNL     1     111.646 124.810 137.765  0.00  0.00    +0.000 C 
ATOM     26  C   UNL     1     112.336 124.732 137.319  0.00  0.00    +0.000 C 
ATOM     27  C   UNL     1     111.439 125.544 138.079  0.00  0.00    +0.000 C 
ATOM     28  C   UNL     1     112.819 125.388 137.187  0.00  0.00    +0.000 C 
ATOM     29  C   UNL     1     112.611 126.123 137.502  0.00  0.00    +0.000 C 
BRANCH  27  30
ATOM     30  C   UNL     1     110.749 125.622 138.526  0.00  0.00    +0.000 C 
BRANCH  30  31
ATOM     31  O   UNL     1     110.296 126.308 138.470  0.00  0.00    +0.000 OA
BRANCH  31  33
ATOM     32  O   UNL     1     108.912 126.185 138.798  0.00  0.00    +0.000 OA
ATOM     33  C   UNL     1     109.673 126.435 138.994  0.00  0.00    +0.000 C 
ATOM     34  C   UNL     1     109.809 126.812 139.716  0.00  0.00    +0.000 C 
ENDBRANCH  31  33
ENDBRANCH  30  31
ENDBRANCH  27  30
ENDBRANCH  20  29
ENDBRANCH   4  20
BRANCH   5  35
ATOM     35  O   UNL     1     113.838 129.434 141.116  0.00  0.00    +0.000 OA
BRANCH  35  44
ATOM     36  O   UNL     1     112.664 129.113 141.865  0.00  0.00    +0.000 OA
ATOM     37  O   UNL     1     112.281 131.521 142.293  0.00  0.00    +0.000 OA
ATOM     38  O   UNL     1     111.234 130.399 142.900  0.00  0.00    +0.000 OA
ATOM     39  O   UNL     1     113.582 131.039 141.401  0.00  0.00    +0.000 OA
ATOM     40  C   UNL     1     112.408 130.718 142.151  0.00  0.00    +0.000 C 
ATOM     41  C   UNL     1     111.885 130.157 142.454  0.00  0.00    +0.000 C 
ATOM     42  C   UNL     1     113.059 130.477 141.705  0.00  0.00    +0.000 C 
ATOM     43  C   UNL     1     112.013 129.355 142.312  0.00  0.00    +0.000 C 
ATOM     44  C   UNL     1     113.187 129.675 141.562  0.00  0.00    +0.000 C 
ATOM     45  C   UNL     1     111.490 128.794 142.615  0.00  0.00    +0.000 C 
ENDBRANCH  35  44
ENDBRANCH   5  35
TORSDOF 8
ENDMDL
MODEL 9
REMARK VINA RESULT:      -9.5      1.745      5.844
REMARK  Name = 14353454
REMARK  8 active torsions:
REMARK  status: ('A' for Active; 'I' for Inactive)
REMARK    1  A    between atoms: O_3  and  C_21
REMARK    2  A    between atoms: O_3  and  C_29
REMARK    3  A    between atoms: O_7  and  C_26
REMARK    4  A    between atoms: O_7  and  C_30
REMARK    5  A    between atoms: O_11  and  C_27
REMARK    6  A    between atoms: O_11  and  C_39
REMARK    7  A    between atoms: C_19  and  C_27
REMARK    8  A    between atoms: C_33  and  C_38
REMARK                            x       y       z     vdW  Elec       q    Type
REMARK                         _______ _______ _______ _____ _____    ______ ____
ROOT
ATOM      1  O   UNL     1     112.594 128.573 138.274  0.00  0.00    +0.000 OA
ATOM      2  O   UNL     1     111.886 128.307 140.632  0.00  0.00    +0.000 OA
ATOM      3  O   UNL     1     112.515 127.010 140.704  0.00  0.00    +0.000 OA
ATOM      4  C   UNL     1     111.924 129.081 139.431  0.00  0.00    +0.000 A 
ATOM      5  C   UNL     1     113.453 126.559 138.720  0.00  0.00    +0.000 A 
ATOM      6  C   UNL     1     112.556 127.799 139.475  0.00  0.00    +0.000 A 
ATOM      7  C   UNL     1     112.122 128.395 139.845  0.00  0.00    +0.000 A 
ATOM      8  C   UNL     1     112.160 129.169 138.645  0.00  0.00    +0.000 A 
ATOM      9  C   UNL     1     112.792 127.888 138.690  0.00  0.00    +0.000 A 
ATOM     10  C   UNL     1     113.244 127.275 138.293  0.00  0.00    +0.000 A 
ATOM     11  C   UNL     1     113.207 126.466 139.539  0.00  0.00    +0.000 A 
ATOM     12  C   UNL     1     112.755 127.091 139.918  0.00  0.00    +0.000 A 
ENDROOT
BRANCH   8  14
ATOM     13  O   UNL     1     111.371 131.911 136.987  0.00  0.00    +0.000 OA
ATOM     14  C   UNL     1     111.962 129.855 138.230  0.00  0.00    +0.000 A 
ATOM     15  C   UNL     1     111.183 129.983 137.992  0.00  0.00    +0.000 A 
ATOM     16  C   UNL     1     112.545 130.412 138.054  0.00  0.00    +0.000 A 
ATOM     17  C   UNL     1     110.986 130.668 137.577  0.00  0.00    +0.000 A 
ATOM     18  C   UNL     1     112.347 131.098 137.640  0.00  0.00    +0.000 A 
ATOM     19  C   UNL     1     111.568 131.226 137.401  0.00  0.00    +0.000 A 
ENDBRANCH   8  14
BRANCH   4  20
ATOM     20  O   UNL     1     111.490 129.677 139.801  0.00  0.00    +0.000 OA
BRANCH  20  29
ATOM     21  O   UNL     1     112.585 130.152 140.587  0.00  0.00    +0.000 OA
ATOM     22  O   UNL     1     112.631 131.072 142.566  0.00  0.00    +0.000 OA
ATOM     23  O   UNL     1     111.011 130.820 142.376  0.00  0.00    +0.000 OA
ATOM     24  O   UNL     1     110.441 130.122 140.994  0.00  0.00    +0.000 OA
ATOM     25  C   UNL     1     112.346 130.723 141.874  0.00  0.00    +0.000 C 
ATOM     26  C   UNL     1     111.536 130.597 141.780  0.00  0.00    +0.000 C 
ATOM     27  C   UNL     1     112.870 130.500 141.278  0.00  0.00    +0.000 C 
ATOM     28  C   UNL     1     111.251 130.248 141.088  0.00  0.00    +0.000 C 
ATOM     29  C   UNL     1     111.775 130.025 140.492  0.00  0.00    +0.000 C 
BRANCH  27  30
ATOM     30  C   UNL     1     113.680 130.626 141.373  0.00  0.00    +0.000 C 
BRANCH  30  31
ATOM     31  O   UNL     1     114.124 130.946 140.756  0.00  0.00    +0.000 OA
BRANCH  31  33
ATOM     32  O   UNL     1     115.322 131.668 141.048  0.00  0.00    +0.000 OA
ATOM     33  C   UNL     1     114.946 130.973 140.810  0.00  0.00    +0.000 C 
ATOM     34  C   UNL     1     115.394 130.305 140.626  0.00  0.00    +0.000 C 
ENDBRANCH  31  33
ENDBRANCH  30  31
ENDBRANCH  27  30
ENDBRANCH  20  29
ENDBRANCH   4  20
BRANCH   5  35
ATOM     35  O   UNL     1     113.887 125.965 138.347  0.00  0.00    +0.000 OA
BRANCH  35  44
ATOM     36  O   UNL     1     112.718 125.255 137.929  0.00  0.00    +0.000 OA
ATOM     37  O   UNL     1     113.984 124.288 136.035  0.00  0.00    +0.000 OA
ATOM     38  O   UNL     1     112.394 123.901 136.248  0.00  0.00    +0.000 OA
ATOM     39  O   UNL     1     114.730 125.319 137.083  0.00  0.00    +0.000 OA
ATOM     40  C   UNL     1     113.561 124.610 136.666  0.00  0.00    +0.000 C 
ATOM     41  C   UNL     1     112.766 124.417 136.773  0.00  0.00    +0.000 C 
ATOM     42  C   UNL     1     113.935 125.126 137.191  0.00  0.00    +0.000 C 
ATOM     43  C   UNL     1     112.345 124.739 137.404  0.00  0.00    +0.000 C 
ATOM     44  C   UNL     1     113.513 125.449 137.822  0.00  0.00    +0.000 C 
ATOM     45  C   UNL     1     111.551 124.546 137.511  0.00  0.00    +0.000 C 
ENDBRANCH  35  44
ENDBRANCH   5  35
TORSDOF 8
ENDMDL
MODEL 10
REMARK VINA RESULT:      -9.5      2.113      5.521
REMARK  Name = 14353454
REMARK  8 active torsions:
REMARK  status: ('A' for Active; 'I' for Inactive)
REMARK    1  A    between atoms: O_3  and  C_21
REMARK    2  A    between atoms: O_3  and  C_29
REMARK    3  A    between atoms: O_7  and  C_26
REMARK    4  A    between atoms: O_7  and  C_30
REMARK    5  A    between atoms: O_11  and  C_27
REMARK    6  A    between atoms: O_11  and  C_39
REMARK    7  A    between atoms: C_19  and  C_27
REMARK    8  A    between atoms: C_33  and  C_38
REMARK                            x       y       z     vdW  Elec       q    Type
REMARK                         _______ _______ _______ _____ _____    ______ ____
ROOT
ATOM      1  O   UNL     1     112.211 128.375 138.321  0.00  0.00    +0.000 OA
ATOM      2  O   UNL     1     112.479 130.074 136.541  0.00  0.00    +0.000 OA
ATOM      3  O   UNL     1     113.208 129.139 135.719  0.00  0.00    +0.000 OA
ATOM      4  C   UNL     1     111.986 129.698 137.828  0.00  0.00    +0.000 A 
ATOM      5  C   UNL     1     113.359 127.190 136.814  0.00  0.00    +0.000 A 
ATOM      6  C   UNL     1     112.704 128.751 137.034  0.00  0.00    +0.000 A 
ATOM      7  C   UNL     1     112.390 129.507 137.135  0.00  0.00    +0.000 A 
ATOM      8  C   UNL     1     111.896 129.131 138.422  0.00  0.00    +0.000 A 
ATOM      9  C   UNL     1     112.615 128.185 137.627  0.00  0.00    +0.000 A 
ATOM     10  C   UNL     1     112.937 127.395 137.535  0.00  0.00    +0.000 A 
ATOM     11  C   UNL     1     113.453 127.781 136.195  0.00  0.00    +0.000 A 
ATOM     12  C   UNL     1     113.123 128.566 136.307  0.00  0.00    +0.000 A 
ENDROOT
BRANCH   8  14
ATOM     13  O   UNL     1     110.278 129.891 141.196  0.00  0.00    +0.000 OA
ATOM     14  C   UNL     1     111.492 129.321 139.115  0.00  0.00    +0.000 A 
ATOM     15  C   UNL     1     111.846 129.808 139.679  0.00  0.00    +0.000 A 
ATOM     16  C   UNL     1     110.733 129.023 139.245  0.00  0.00    +0.000 A 
ATOM     17  C   UNL     1     111.441 129.998 140.373  0.00  0.00    +0.000 A 
ATOM     18  C   UNL     1     110.329 129.214 139.939  0.00  0.00    +0.000 A 
ATOM     19  C   UNL     1     110.683 129.701 140.502  0.00  0.00    +0.000 A 
ENDBRANCH   8  14
BRANCH   4  20
ATOM     20  O   UNL     1     111.672 130.454 137.929  0.00  0.00    +0.000 OA
BRANCH  20  29
ATOM     21  O   UNL     1     110.619 130.244 136.985  0.00  0.00    +0.000 OA
ATOM     22  O   UNL     1     109.525 131.655 135.729  0.00  0.00    +0.000 OA
ATOM     23  O   UNL     1     110.556 132.674 136.516  0.00  0.00    +0.000 OA
ATOM     24  O   UNL     1     111.630 132.073 137.616  0.00  0.00    +0.000 OA
ATOM     25  C   UNL     1     110.062 131.354 136.279  0.00  0.00    +0.000 C 
ATOM     26  C   UNL     1     110.577 131.864 136.673  0.00  0.00    +0.000 C 
ATOM     27  C   UNL     1     110.083 130.544 136.436  0.00  0.00    +0.000 C 
ATOM     28  C   UNL     1     111.114 131.563 137.223  0.00  0.00    +0.000 C 
ATOM     29  C   UNL     1     111.135 130.754 137.379  0.00  0.00    +0.000 C 
BRANCH  27  30
ATOM     30  C   UNL     1     109.566 130.035 136.042  0.00  0.00    +0.000 C 
BRANCH  30  31
ATOM     31  O   UNL     1     109.198 129.422 136.452  0.00  0.00    +0.000 OA
BRANCH  31  33
ATOM     32  O   UNL     1     107.980 129.012 135.829  0.00  0.00    +0.000 OA
ATOM     33  C   UNL     1     108.762 128.856 136.042  0.00  0.00    +0.000 C 
ATOM     34  C   UNL     1     109.106 128.132 135.844  0.00  0.00    +0.000 C 
ENDBRANCH  31  33
ENDBRANCH  30  31
ENDBRANCH  27  30
ENDBRANCH  20  29
ENDBRANCH   4  20
BRANCH   5  35
ATOM     35  O   UNL     1     113.672 126.433 136.716  0.00  0.00    +0.000 OA
BRANCH  35  44
ATOM     36  O   UNL     1     112.455 125.887 136.204  0.00  0.00    +0.000 OA
ATOM     37  O   UNL     1     113.083 123.663 137.091  0.00  0.00    +0.000 OA
ATOM     38  O   UNL     1     111.657 123.856 136.283  0.00  0.00    +0.000 OA
ATOM     39  O   UNL     1     114.090 124.951 137.307  0.00  0.00    +0.000 OA
ATOM     40  C   UNL     1     112.873 124.404 136.795  0.00  0.00    +0.000 C 
ATOM     41  C   UNL     1     112.161 124.501 136.391  0.00  0.00    +0.000 C 
ATOM     42  C   UNL     1     113.377 125.048 136.903  0.00  0.00    +0.000 C 
ATOM     43  C   UNL     1     111.952 125.242 136.096  0.00  0.00    +0.000 C 
ATOM     44  C   UNL     1     113.168 125.789 136.608  0.00  0.00    +0.000 C 
ATOM     45  C   UNL     1     111.239 125.339 135.692  0.00  0.00    +0.000 C 
ENDBRANCH  35  44
ENDBRANCH   5  35
TORSDOF 8
ENDMDL
