MODEL 1
REMARK VINA RESULT:      -8.4      0.000      0.000
REMARK  Name = 44259883
REMARK  8 active torsions:
REMARK  status: ('A' for Active; 'I' for Inactive)
REMARK    1  A    between atoms: O_2  and  C_19
REMARK    2  A    between atoms: O_2  and  C_21
REMARK    3  A    between atoms: O_8  and  C_22
REMARK    4  A    between atoms: O_10  and  C_29
REMARK    5  A    between atoms: O_12  and  C_34
REMARK    6  A    between atoms: O_13  and  C_35
REMARK    7  A    between atoms: C_18  and  C_20
REMARK    8  A    between atoms: C_28  and  C_30
REMARK                            x       y       z     vdW  Elec       q    Type
REMARK                         _______ _______ _______ _____ _____    ______ ____
ROOT
ATOM      1  O   UNL     1     104.747 125.731 145.905  0.00  0.00    +0.000 OA
ATOM      2  O   UNL     1     107.377 126.650 146.670  0.00  0.00    +0.000 OA
ATOM      3  O   UNL     1     106.735 125.565 147.370  0.00  0.00    +0.000 OA
ATOM      4  C   UNL     1     106.010 127.363 145.046  0.00  0.00    +0.000 A 
ATOM      5  C   UNL     1     106.700 127.305 145.555  0.00  0.00    +0.000 A 
ATOM      6  C   UNL     1     105.348 126.828 145.166  0.00  0.00    +0.000 A 
ATOM      7  C   UNL     1     105.385 126.242 145.794  0.00  0.00    +0.000 A 
ATOM      8  C   UNL     1     106.048 126.187 146.282  0.00  0.00    +0.000 A 
ATOM      9  C   UNL     1     106.719 126.713 146.177  0.00  0.00    +0.000 A 
ATOM     10  C   UNL     1     106.072 125.621 146.882  0.00  0.00    +0.000 A 
ATOM     11  C   UNL     1     104.771 125.165 146.504  0.00  0.00    +0.000 A 
ATOM     12  C   UNL     1     105.434 125.110 146.993  0.00  0.00    +0.000 A 
ENDROOT
BRANCH  11  14
ATOM     13  O   UNL     1     102.219 123.121 146.947  0.00  0.00    +0.000 OA
ATOM     14  C   UNL     1     104.133 124.654 146.615  0.00  0.00    +0.000 A 
ATOM     15  C   UNL     1     104.088 123.952 146.183  0.00  0.00    +0.000 A 
ATOM     16  C   UNL     1     103.542 124.845 147.156  0.00  0.00    +0.000 A 
ATOM     17  C   UNL     1     102.904 124.334 147.267  0.00  0.00    +0.000 A 
ATOM     18  C   UNL     1     103.449 123.441 146.294  0.00  0.00    +0.000 A 
ATOM     19  C   UNL     1     102.857 123.632 146.836  0.00  0.00    +0.000 A 
BRANCH  17  20
ATOM     20  O   UNL     1     102.311 124.524 147.809  0.00  0.00    +0.000 OA
ATOM     21  C   UNL     1     102.006 125.290 147.835  0.00  0.00    +0.000 C 
ENDBRANCH  17  20
BRANCH  18  22
ATOM     22  O   UNL     1     103.403 122.739 145.863  0.00  0.00    +0.000 OA
ATOM     23  C   UNL     1     103.570 122.739 145.055  0.00  0.00    +0.000 C 
ENDBRANCH  18  22
ENDBRANCH  11  14
BRANCH   5  24
ATOM     24  O   UNL     1     107.340 127.814 145.446  0.00  0.00    +0.000 OA
ATOM     25  C   UNL     1     107.454 128.449 145.961  0.00  0.00    +0.000 C 
ENDBRANCH   5  24
BRANCH  12  26
ATOM     26  O   UNL     1     105.458 124.543 147.592  0.00  0.00    +0.000 OA
ATOM     27  C   UNL     1     106.001 124.618 148.208  0.00  0.00    +0.000 C 
ENDBRANCH  12  26
BRANCH   4  28
ATOM     28  O   UNL     1     105.983 127.929 144.445  0.00  0.00    +0.000 OA
BRANCH  28  37
ATOM     29  O   UNL     1     106.259 127.093 143.320  0.00  0.00    +0.000 OA
ATOM     30  O   UNL     1     104.466 128.223 142.041  0.00  0.00    +0.000 OA
ATOM     31  O   UNL     1     105.340 127.011 141.342  0.00  0.00    +0.000 OA
ATOM     32  O   UNL     1     104.788 128.682 143.593  0.00  0.00    +0.000 OA
ATOM     33  C   UNL     1     105.064 127.846 142.467  0.00  0.00    +0.000 C 
ATOM     34  C   UNL     1     105.501 127.240 142.118  0.00  0.00    +0.000 C 
ATOM     35  C   UNL     1     105.225 128.076 143.244  0.00  0.00    +0.000 C 
ATOM     36  C   UNL     1     106.098 126.863 142.544  0.00  0.00    +0.000 C 
ATOM     37  C   UNL     1     105.823 127.699 143.670  0.00  0.00    +0.000 C 
BRANCH  36  39
ATOM     38  O   UNL     1     107.315 126.122 142.428  0.00  0.00    +0.000 OA
ATOM     39  C   UNL     1     106.535 126.258 142.195  0.00  0.00    +0.000 C 
ENDBRANCH  36  39
ENDBRANCH  28  37
ENDBRANCH   4  28
TORSDOF 8
ENDMDL
MODEL 2
REMARK VINA RESULT:      -8.1      8.093     11.011
REMARK  Name = 44259883
REMARK  8 active torsions:
REMARK  status: ('A' for Active; 'I' for Inactive)
REMARK    1  A    between atoms: O_2  and  C_19
REMARK    2  A    between atoms: O_2  and  C_21
REMARK    3  A    between atoms: O_8  and  C_22
REMARK    4  A    between atoms: O_10  and  C_29
REMARK    5  A    between atoms: O_12  and  C_34
REMARK    6  A    between atoms: O_13  and  C_35
REMARK    7  A    between atoms: C_18  and  C_20
REMARK    8  A    between atoms: C_28  and  C_30
REMARK                            x       y       z     vdW  Elec       q    Type
REMARK                         _______ _______ _______ _____ _____    ______ ____
ROOT
ATOM      1  O   UNL     1     112.523 128.133 138.322  0.00  0.00    +0.000 OA
ATOM      2  O   UNL     1     113.902 127.793 135.806  0.00  0.00    +0.000 OA
ATOM      3  O   UNL     1     113.732 126.688 136.718  0.00  0.00    +0.000 OA
ATOM      4  C   UNL     1     112.953 129.613 136.703  0.00  0.00    +0.000 A 
ATOM      5  C   UNL     1     113.373 129.110 136.147  0.00  0.00    +0.000 A 
ATOM      6  C   UNL     1     112.665 129.279 137.441  0.00  0.00    +0.000 A 
ATOM      7  C   UNL     1     112.801 128.448 137.612  0.00  0.00    +0.000 A 
ATOM      8  C   UNL     1     113.204 127.966 137.077  0.00  0.00    +0.000 A 
ATOM      9  C   UNL     1     113.500 128.282 136.335  0.00  0.00    +0.000 A 
ATOM     10  C   UNL     1     113.329 127.170 137.253  0.00  0.00    +0.000 A 
ATOM     11  C   UNL     1     112.647 127.337 138.497  0.00  0.00    +0.000 A 
ATOM     12  C   UNL     1     113.050 126.855 137.963  0.00  0.00    +0.000 A 
ENDROOT
BRANCH  11  14
ATOM     13  O   UNL     1     111.532 126.078 141.336  0.00  0.00    +0.000 OA
ATOM     14  C   UNL     1     112.368 127.022 139.207  0.00  0.00    +0.000 A 
ATOM     15  C   UNL     1     111.631 126.653 139.233  0.00  0.00    +0.000 A 
ATOM     16  C   UNL     1     112.826 127.077 139.890  0.00  0.00    +0.000 A 
ATOM     17  C   UNL     1     112.548 126.762 140.600  0.00  0.00    +0.000 A 
ATOM     18  C   UNL     1     111.352 126.338 139.943  0.00  0.00    +0.000 A 
ATOM     19  C   UNL     1     111.811 126.393 140.626  0.00  0.00    +0.000 A 
BRANCH  17  20
ATOM     20  O   UNL     1     113.006 126.816 141.284  0.00  0.00    +0.000 OA
ATOM     21  C   UNL     1     113.727 127.217 141.267  0.00  0.00    +0.000 C 
ENDBRANCH  17  20
BRANCH  18  22
ATOM     22  O   UNL     1     110.615 125.968 139.969  0.00  0.00    +0.000 OA
ATOM     23  C   UNL     1     109.982 126.279 139.540  0.00  0.00    +0.000 C 
ENDBRANCH  18  22
ENDBRANCH  11  14
BRANCH   5  24
ATOM     24  O   UNL     1     113.653 129.422 135.435  0.00  0.00    +0.000 OA
ATOM     25  C   UNL     1     114.462 129.544 135.329  0.00  0.00    +0.000 C 
ENDBRANCH   5  24
BRANCH  12  26
ATOM     26  O   UNL     1     113.175 126.059 138.138  0.00  0.00    +0.000 OA
ATOM     27  C   UNL     1     113.784 125.645 137.768  0.00  0.00    +0.000 C 
ENDBRANCH  12  26
BRANCH   4  28
ATOM     28  O   UNL     1     112.827 130.410 136.530  0.00  0.00    +0.000 OA
BRANCH  28  37
ATOM     29  O   UNL     1     111.433 130.394 136.219  0.00  0.00    +0.000 OA
ATOM     30  O   UNL     1     111.093 132.392 137.639  0.00  0.00    +0.000 OA
ATOM     31  O   UNL     1     109.813 131.711 136.854  0.00  0.00    +0.000 OA
ATOM     32  O   UNL     1     112.601 131.742 137.477  0.00  0.00    +0.000 OA
ATOM     33  C   UNL     1     111.207 131.726 137.166  0.00  0.00    +0.000 C 
ATOM     34  C   UNL     1     110.566 131.385 136.773  0.00  0.00    +0.000 C 
ATOM     35  C   UNL     1     111.961 131.401 137.085  0.00  0.00    +0.000 C 
ATOM     36  C   UNL     1     110.680 130.719 136.299  0.00  0.00    +0.000 C 
ATOM     37  C   UNL     1     112.074 130.735 136.611  0.00  0.00    +0.000 C 
BRANCH  36  39
ATOM     38  O   UNL     1     110.126 130.107 135.133  0.00  0.00    +0.000 OA
ATOM     39  C   UNL     1     110.039 130.379 135.907  0.00  0.00    +0.000 C 
ENDBRANCH  36  39
ENDBRANCH  28  37
ENDBRANCH   4  28
TORSDOF 8
ENDMDL
MODEL 3
REMARK VINA RESULT:      -8.1      8.985     11.884
REMARK  Name = 44259883
REMARK  8 active torsions:
REMARK  status: ('A' for Active; 'I' for Inactive)
REMARK    1  A    between atoms: O_2  and  C_19
REMARK    2  A    between atoms: O_2  and  C_21
REMARK    3  A    between atoms: O_8  and  C_22
REMARK    4  A    between atoms: O_10  and  C_29
REMARK    5  A    between atoms: O_12  and  C_34
REMARK    6  A    between atoms: O_13  and  C_35
REMARK    7  A    between atoms: C_18  and  C_20
REMARK    8  A    between atoms: C_28  and  C_30
REMARK                            x       y       z     vdW  Elec       q    Type
REMARK                         _______ _______ _______ _____ _____    ______ ____
ROOT
ATOM      1  O   UNL     1     112.980 128.881 138.252  0.00  0.00    +0.000 OA
ATOM      2  O   UNL     1     113.386 127.975 140.965  0.00  0.00    +0.000 OA
ATOM      3  O   UNL     1     113.739 129.316 140.567  0.00  0.00    +0.000 OA
ATOM      4  C   UNL     1     112.550 126.898 139.189  0.00  0.00    +0.000 A 
ATOM      5  C   UNL     1     112.814 127.049 139.992  0.00  0.00    +0.000 A 
ATOM      6  C   UNL     1     112.607 127.521 138.599  0.00  0.00    +0.000 A 
ATOM      7  C   UNL     1     112.928 128.286 138.822  0.00  0.00    +0.000 A 
ATOM      8  C   UNL     1     113.181 128.431 139.593  0.00  0.00    +0.000 A 
ATOM      9  C   UNL     1     113.131 127.821 140.196  0.00  0.00    +0.000 A 
ATOM     10  C   UNL     1     113.486 129.171 139.795  0.00  0.00    +0.000 A 
ATOM     11  C   UNL     1     113.286 129.620 138.454  0.00  0.00    +0.000 A 
ATOM     12  C   UNL     1     113.539 129.765 139.225  0.00  0.00    +0.000 A 
ENDROOT
BRANCH  11  14
ATOM     13  O   UNL     1     113.498 131.996 136.174  0.00  0.00    +0.000 OA
ATOM     14  C   UNL     1     113.339 130.214 137.884  0.00  0.00    +0.000 A 
ATOM     15  C   UNL     1     114.012 130.272 137.409  0.00  0.00    +0.000 A 
ATOM     16  C   UNL     1     112.720 130.750 137.788  0.00  0.00    +0.000 A 
ATOM     17  C   UNL     1     112.773 131.344 137.219  0.00  0.00    +0.000 A 
ATOM     18  C   UNL     1     114.065 130.866 136.839  0.00  0.00    +0.000 A 
ATOM     19  C   UNL     1     113.445 131.402 136.744  0.00  0.00    +0.000 A 
BRANCH  17  20
ATOM     20  O   UNL     1     112.154 131.881 137.122  0.00  0.00    +0.000 OA
ATOM     21  C   UNL     1     111.372 131.624 137.185  0.00  0.00    +0.000 C 
ENDBRANCH  17  20
BRANCH  18  22
ATOM     22  O   UNL     1     114.737 130.924 136.365  0.00  0.00    +0.000 OA
ATOM     23  C   UNL     1     115.008 130.264 135.951  0.00  0.00    +0.000 C 
ENDBRANCH  18  22
ENDBRANCH  11  14
BRANCH   5  24
ATOM     24  O   UNL     1     112.762 126.457 140.565  0.00  0.00    +0.000 OA
ATOM     25  C   UNL     1     112.207 126.517 141.172  0.00  0.00    +0.000 C 
ENDBRANCH   5  24
BRANCH  12  26
ATOM     26  O   UNL     1     113.845 130.504 139.427  0.00  0.00    +0.000 OA
ATOM     27  C   UNL     1     114.396 130.570 140.037  0.00  0.00    +0.000 C 
ENDBRANCH  12  26
BRANCH   4  28
ATOM     28  O   UNL     1     112.244 126.159 138.984  0.00  0.00    +0.000 OA
BRANCH  28  37
ATOM     29  O   UNL     1     113.337 125.698 138.187  0.00  0.00    +0.000 OA
ATOM     30  O   UNL     1     111.742 124.733 136.559  0.00  0.00    +0.000 OA
ATOM     31  O   UNL     1     113.365 124.593 136.306  0.00  0.00    +0.000 OA
ATOM     32  O   UNL     1     111.181 125.516 137.899  0.00  0.00    +0.000 OA
ATOM     33  C   UNL     1     112.273 125.054 137.102  0.00  0.00    +0.000 C 
ATOM     34  C   UNL     1     113.085 124.985 136.975  0.00  0.00    +0.000 C 
ATOM     35  C   UNL     1     111.993 125.446 137.772  0.00  0.00    +0.000 C 
ATOM     36  C   UNL     1     113.617 125.307 137.518  0.00  0.00    +0.000 C 
ATOM     37  C   UNL     1     112.524 125.768 138.315  0.00  0.00    +0.000 C 
BRANCH  36  39
ATOM     38  O   UNL     1     114.932 125.061 138.021  0.00  0.00    +0.000 OA
ATOM     39  C   UNL     1     114.428 125.237 137.391  0.00  0.00    +0.000 C 
ENDBRANCH  36  39
ENDBRANCH  28  37
ENDBRANCH   4  28
TORSDOF 8
ENDMDL
MODEL 4
REMARK VINA RESULT:      -8.1      8.758     11.276
REMARK  Name = 44259883
REMARK  8 active torsions:
REMARK  status: ('A' for Active; 'I' for Inactive)
REMARK    1  A    between atoms: O_2  and  C_19
REMARK    2  A    between atoms: O_2  and  C_21
REMARK    3  A    between atoms: O_8  and  C_22
REMARK    4  A    between atoms: O_10  and  C_29
REMARK    5  A    between atoms: O_12  and  C_34
REMARK    6  A    between atoms: O_13  and  C_35
REMARK    7  A    between atoms: C_18  and  C_20
REMARK    8  A    between atoms: C_28  and  C_30
REMARK                            x       y       z     vdW  Elec       q    Type
REMARK                         _______ _______ _______ _____ _____    ______ ____
ROOT
ATOM      1  O   UNL     1     112.978 128.537 139.267  0.00  0.00    +0.000 OA
ATOM      2  O   UNL     1     113.803 125.825 138.710  0.00  0.00    +0.000 OA
ATOM      3  O   UNL     1     114.162 126.472 139.948  0.00  0.00    +0.000 OA
ATOM      4  C   UNL     1     112.600 127.254 137.475  0.00  0.00    +0.000 A 
ATOM      5  C   UNL     1     113.011 126.538 137.713  0.00  0.00    +0.000 A 
ATOM      6  C   UNL     1     112.590 127.932 138.005  0.00  0.00    +0.000 A 
ATOM      7  C   UNL     1     112.991 127.883 138.763  0.00  0.00    +0.000 A 
ATOM      8  C   UNL     1     113.386 127.195 138.990  0.00  0.00    +0.000 A 
ATOM      9  C   UNL     1     113.407 126.508 138.475  0.00  0.00    +0.000 A 
ATOM     10  C   UNL     1     113.767 127.161 139.721  0.00  0.00    +0.000 A 
ATOM     11  C   UNL     1     113.359 128.502 139.997  0.00  0.00    +0.000 A 
ATOM     12  C   UNL     1     113.754 127.814 140.224  0.00  0.00    +0.000 A 
ENDROOT
BRANCH  11  14
ATOM     13  O   UNL     1     113.308 131.115 142.012  0.00  0.00    +0.000 OA
ATOM     14  C   UNL     1     113.346 129.155 140.501  0.00  0.00    +0.000 A 
ATOM     15  C   UNL     1     113.884 129.772 140.391  0.00  0.00    +0.000 A 
ATOM     16  C   UNL     1     112.796 129.192 141.114  0.00  0.00    +0.000 A 
ATOM     17  C   UNL     1     112.783 129.846 141.618  0.00  0.00    +0.000 A 
ATOM     18  C   UNL     1     113.871 130.425 140.895  0.00  0.00    +0.000 A 
ATOM     19  C   UNL     1     113.321 130.462 141.508  0.00  0.00    +0.000 A 
BRANCH  17  20
ATOM     20  O   UNL     1     112.233 129.883 142.231  0.00  0.00    +0.000 OA
ATOM     21  C   UNL     1     111.453 129.647 142.101  0.00  0.00    +0.000 C 
ENDBRANCH  17  20
BRANCH  18  22
ATOM     22  O   UNL     1     114.409 131.041 140.785  0.00  0.00    +0.000 OA
ATOM     23  C   UNL     1     115.200 130.874 140.621  0.00  0.00    +0.000 C 
ENDBRANCH  18  22
ENDBRANCH  11  14
BRANCH   5  24
ATOM     24  O   UNL     1     113.026 125.883 137.211  0.00  0.00    +0.000 OA
ATOM     25  C   UNL     1     112.578 125.214 137.392  0.00  0.00    +0.000 C 
ENDBRANCH   5  24
BRANCH  12  26
ATOM     26  O   UNL     1     114.135 127.779 140.955  0.00  0.00    +0.000 OA
ATOM     27  C   UNL     1     114.626 127.142 141.134  0.00  0.00    +0.000 C 
ENDBRANCH  12  26
BRANCH   4  28
ATOM     28  O   UNL     1     112.218 127.292 136.745  0.00  0.00    +0.000 OA
BRANCH  28  37
ATOM     29  O   UNL     1     113.171 128.118 136.074  0.00  0.00    +0.000 OA
ATOM     30  O   UNL     1     111.328 129.330 134.950  0.00  0.00    +0.000 OA
ATOM     31  O   UNL     1     112.894 129.752 134.654  0.00  0.00    +0.000 OA
ATOM     32  O   UNL     1     110.989 128.099 135.996  0.00  0.00    +0.000 OA
ATOM     33  C   UNL     1     111.942 128.926 135.325  0.00  0.00    +0.000 C 
ATOM     34  C   UNL     1     112.726 129.137 135.177  0.00  0.00    +0.000 C 
ATOM     35  C   UNL     1     111.773 128.310 135.848  0.00  0.00    +0.000 C 
ATOM     36  C   UNL     1     113.340 128.733 135.551  0.00  0.00    +0.000 C 
ATOM     37  C   UNL     1     112.387 127.906 136.223  0.00  0.00    +0.000 C 
BRANCH  36  39
ATOM     38  O   UNL     1     114.695 128.360 135.293  0.00  0.00    +0.000 OA
ATOM     39  C   UNL     1     114.123 128.945 135.403  0.00  0.00    +0.000 C 
ENDBRANCH  36  39
ENDBRANCH  28  37
ENDBRANCH   4  28
TORSDOF 8
ENDMDL
MODEL 5
REMARK VINA RESULT:      -8.1      7.646     11.251
REMARK  Name = 44259883
REMARK  8 active torsions:
REMARK  status: ('A' for Active; 'I' for Inactive)
REMARK    1  A    between atoms: O_2  and  C_19
REMARK    2  A    between atoms: O_2  and  C_21
REMARK    3  A    between atoms: O_8  and  C_22
REMARK    4  A    between atoms: O_10  and  C_29
REMARK    5  A    between atoms: O_12  and  C_34
REMARK    6  A    between atoms: O_13  and  C_35
REMARK    7  A    between atoms: C_18  and  C_20
REMARK    8  A    between atoms: C_28  and  C_30
REMARK                            x       y       z     vdW  Elec       q    Type
REMARK                         _______ _______ _______ _____ _____    ______ ____
ROOT
ATOM      1  O   UNL     1     110.965 129.130 136.967  0.00  0.00    +0.000 OA
ATOM      2  O   UNL     1     108.411 129.695 135.739  0.00  0.00    +0.000 OA
ATOM      3  O   UNL     1     109.274 128.661 135.222  0.00  0.00    +0.000 OA
ATOM      4  C   UNL     1     109.408 130.641 137.507  0.00  0.00    +0.000 A 
ATOM      5  C   UNL     1     108.822 130.477 136.901  0.00  0.00    +0.000 A 
ATOM      6  C   UNL     1     110.135 130.182 137.527  0.00  0.00    +0.000 A 
ATOM      7  C   UNL     1     110.265 129.567 136.942  0.00  0.00    +0.000 A 
ATOM      8  C   UNL     1     109.701 129.411 136.360  0.00  0.00    +0.000 A 
ATOM      9  C   UNL     1     108.969 129.858 136.324  0.00  0.00    +0.000 A 
ATOM     10  C   UNL     1     109.837 128.817 135.803  0.00  0.00    +0.000 A 
ATOM     11  C   UNL     1     111.101 128.537 136.410  0.00  0.00    +0.000 A 
ATOM     12  C   UNL     1     110.537 128.381 135.828  0.00  0.00    +0.000 A 
ENDROOT
BRANCH  11  14
ATOM     13  O   UNL     1     113.898 126.790 136.509  0.00  0.00    +0.000 OA
ATOM     14  C   UNL     1     111.800 128.100 136.435  0.00  0.00    +0.000 A 
ATOM     15  C   UNL     1     111.823 127.381 136.839  0.00  0.00    +0.000 A 
ATOM     16  C   UNL     1     112.475 128.382 136.056  0.00  0.00    +0.000 A 
ATOM     17  C   UNL     1     113.175 127.945 136.080  0.00  0.00    +0.000 A 
ATOM     18  C   UNL     1     112.522 126.944 136.864  0.00  0.00    +0.000 A 
ATOM     19  C   UNL     1     113.198 127.226 136.484  0.00  0.00    +0.000 A 
BRANCH  17  20
ATOM     20  O   UNL     1     113.852 128.226 135.701  0.00  0.00    +0.000 OA
ATOM     21  C   UNL     1     113.997 129.038 135.665  0.00  0.00    +0.000 C 
ENDBRANCH  17  20
BRANCH  18  22
ATOM     22  O   UNL     1     112.546 126.226 137.268  0.00  0.00    +0.000 OA
ATOM     23  C   UNL     1     112.183 126.155 138.006  0.00  0.00    +0.000 C 
ENDBRANCH  18  22
ENDBRANCH  11  14
BRANCH   5  24
ATOM     24  O   UNL     1     108.121 130.912 136.873  0.00  0.00    +0.000 OA
ATOM     25  C   UNL     1     108.012 131.482 136.287  0.00  0.00    +0.000 C 
ENDBRANCH   5  24
BRANCH  12  26
ATOM     26  O   UNL     1     110.673 127.787 135.271  0.00  0.00    +0.000 OA
ATOM     27  C   UNL     1     110.182 127.720 134.612  0.00  0.00    +0.000 C 
ENDBRANCH  12  26
BRANCH   4  28
ATOM     28  O   UNL     1     109.275 131.234 138.065  0.00  0.00    +0.000 OA
BRANCH  28  37
ATOM     29  O   UNL     1     109.026 130.464 139.243  0.00  0.00    +0.000 OA
ATOM     30  O   UNL     1     110.610 131.886 140.506  0.00  0.00    +0.000 OA
ATOM     31  O   UNL     1     109.833 130.644 141.263  0.00  0.00    +0.000 OA
ATOM     32  O   UNL     1     110.331 132.182 138.907  0.00  0.00    +0.000 OA
ATOM     33  C   UNL     1     110.082 131.412 140.085  0.00  0.00    +0.000 C 
ATOM     34  C   UNL     1     109.693 130.791 140.463  0.00  0.00    +0.000 C 
ATOM     35  C   UNL     1     109.942 131.560 139.285  0.00  0.00    +0.000 C 
ATOM     36  C   UNL     1     109.165 130.317 140.042  0.00  0.00    +0.000 C 
ATOM     37  C   UNL     1     109.414 131.086 138.864  0.00  0.00    +0.000 C 
BRANCH  36  39
ATOM     38  O   UNL     1     107.968 129.583 140.306  0.00  0.00    +0.000 OA
ATOM     39  C   UNL     1     108.777 129.696 140.421  0.00  0.00    +0.000 C 
ENDBRANCH  36  39
ENDBRANCH  28  37
ENDBRANCH   4  28
TORSDOF 8
ENDMDL
MODEL 6
REMARK VINA RESULT:      -8.1      9.330     11.341
REMARK  Name = 44259883
REMARK  8 active torsions:
REMARK  status: ('A' for Active; 'I' for Inactive)
REMARK    1  A    between atoms: O_2  and  C_19
REMARK    2  A    between atoms: O_2  and  C_21
REMARK    3  A    between atoms: O_8  and  C_22
REMARK    4  A    between atoms: O_10  and  C_29
REMARK    5  A    between atoms: O_12  and  C_34
REMARK    6  A    between atoms: O_13  and  C_35
REMARK    7  A    between atoms: C_18  and  C_20
REMARK    8  A    between atoms: C_28  and  C_30
REMARK                            x       y       z     vdW  Elec       q    Type
REMARK                         _______ _______ _______ _____ _____    ______ ____
ROOT
ATOM      1  O   UNL     1     112.661 128.800 138.226  0.00  0.00    +0.000 OA
ATOM      2  O   UNL     1     113.015 126.418 139.822  0.00  0.00    +0.000 OA
ATOM      3  O   UNL     1     112.170 126.412 138.653  0.00  0.00    +0.000 OA
ATOM      4  C   UNL     1     113.881 128.468 140.070  0.00  0.00    +0.000 A 
ATOM      5  C   UNL     1     113.710 127.639 140.217  0.00  0.00    +0.000 A 
ATOM      6  C   UNL     1     113.524 128.860 139.393  0.00  0.00    +0.000 A 
ATOM      7  C   UNL     1     113.001 128.418 138.874  0.00  0.00    +0.000 A 
ATOM      8  C   UNL     1     112.837 127.622 139.016  0.00  0.00    +0.000 A 
ATOM      9  C   UNL     1     113.184 127.213 139.687  0.00  0.00    +0.000 A 
ATOM     10  C   UNL     1     112.334 127.208 138.511  0.00  0.00    +0.000 A 
ATOM     11  C   UNL     1     112.158 128.386 137.721  0.00  0.00    +0.000 A 
ATOM     12  C   UNL     1     111.994 127.590 137.863  0.00  0.00    +0.000 A 
ENDROOT
BRANCH  11  14
ATOM     13  O   UNL     1     110.800 129.913 135.129  0.00  0.00    +0.000 OA
ATOM     14  C   UNL     1     111.818 128.768 137.073  0.00  0.00    +0.000 A 
ATOM     15  C   UNL     1     112.217 128.787 136.350  0.00  0.00    +0.000 A 
ATOM     16  C   UNL     1     111.082 129.129 137.147  0.00  0.00    +0.000 A 
ATOM     17  C   UNL     1     110.742 129.511 136.499  0.00  0.00    +0.000 A 
ATOM     18  C   UNL     1     111.878 129.169 135.702  0.00  0.00    +0.000 A 
ATOM     19  C   UNL     1     111.140 129.531 135.777  0.00  0.00    +0.000 A 
BRANCH  17  20
ATOM     20  O   UNL     1     110.004 129.873 136.573  0.00  0.00    +0.000 OA
ATOM     21  C   UNL     1     109.817 130.292 137.259  0.00  0.00    +0.000 C 
ENDBRANCH  17  20
BRANCH  18  22
ATOM     22  O   UNL     1     112.276 129.189 134.980  0.00  0.00    +0.000 OA
ATOM     23  C   UNL     1     113.100 129.226 134.964  0.00  0.00    +0.000 C 
ENDBRANCH  18  22
ENDBRANCH  11  14
BRANCH   5  24
ATOM     24  O   UNL     1     114.048 127.254 140.864  0.00  0.00    +0.000 OA
ATOM     25  C   UNL     1     114.700 126.761 140.756  0.00  0.00    +0.000 C 
ENDBRANCH   5  24
BRANCH  12  26
ATOM     26  O   UNL     1     111.490 127.176 137.357  0.00  0.00    +0.000 OA
ATOM     27  C   UNL     1     111.452 126.354 137.396  0.00  0.00    +0.000 C 
ENDBRANCH  12  26
BRANCH   4  28
ATOM     28  O   UNL     1     114.384 128.884 140.574  0.00  0.00    +0.000 OA
BRANCH  28  37
ATOM     29  O   UNL     1     113.406 129.603 141.328  0.00  0.00    +0.000 OA
ATOM     30  O   UNL     1     114.797 131.645 141.186  0.00  0.00    +0.000 OA
ATOM     31  O   UNL     1     113.356 131.683 141.988  0.00  0.00    +0.000 OA
ATOM     32  O   UNL     1     115.311 130.246 140.479  0.00  0.00    +0.000 OA
ATOM     33  C   UNL     1     114.333 130.965 141.233  0.00  0.00    +0.000 C 
ATOM     34  C   UNL     1     113.613 130.983 141.634  0.00  0.00    +0.000 C 
ATOM     35  C   UNL     1     114.590 130.264 140.879  0.00  0.00    +0.000 C 
ATOM     36  C   UNL     1     113.149 130.302 141.682  0.00  0.00    +0.000 C 
ATOM     37  C   UNL     1     114.127 129.583 140.927  0.00  0.00    +0.000 C 
BRANCH  36  39
ATOM     38  O   UNL     1     112.234 129.718 142.611  0.00  0.00    +0.000 OA
ATOM     39  C   UNL     1     112.429 130.321 142.083  0.00  0.00    +0.000 C 
ENDBRANCH  36  39
ENDBRANCH  28  37
ENDBRANCH   4  28
TORSDOF 8
ENDMDL
MODEL 7
REMARK VINA RESULT:      -8.1      9.762     11.857
REMARK  Name = 44259883
REMARK  8 active torsions:
REMARK  status: ('A' for Active; 'I' for Inactive)
REMARK    1  A    between atoms: O_2  and  C_19
REMARK    2  A    between atoms: O_2  and  C_21
REMARK    3  A    between atoms: O_8  and  C_22
REMARK    4  A    between atoms: O_10  and  C_29
REMARK    5  A    between atoms: O_12  and  C_34
REMARK    6  A    between atoms: O_13  and  C_35
REMARK    7  A    between atoms: C_18  and  C_20
REMARK    8  A    between atoms: C_28  and  C_30
REMARK                            x       y       z     vdW  Elec       q    Type
REMARK                         _______ _______ _______ _____ _____    ______ ____
ROOT
ATOM      1  O   UNL     1     111.829 127.405 136.712  0.00  0.00    +0.000 OA
ATOM      2  O   UNL     1     110.365 128.972 134.776  0.00  0.00    +0.000 OA
ATOM      3  O   UNL     1     110.527 127.548 134.612  0.00  0.00    +0.000 OA
ATOM      4  C   UNL     1     111.396 129.597 136.663  0.00  0.00    +0.000 A 
ATOM      5  C   UNL     1     110.945 129.646 135.934  0.00  0.00    +0.000 A 
ATOM      6  C   UNL     1     111.696 128.835 136.926  0.00  0.00    +0.000 A 
ATOM      7  C   UNL     1     111.539 128.133 136.455  0.00  0.00    +0.000 A 
ATOM      8  C   UNL     1     111.105 128.181 135.755  0.00  0.00    +0.000 A 
ATOM      9  C   UNL     1     110.798 128.933 135.477  0.00  0.00    +0.000 A 
ATOM     10  C   UNL     1     110.961 127.500 135.312  0.00  0.00    +0.000 A 
ATOM     11  C   UNL     1     111.685 126.724 136.269  0.00  0.00    +0.000 A 
ATOM     12  C   UNL     1     111.251 126.772 135.569  0.00  0.00    +0.000 A 
ENDROOT
BRANCH  11  14
ATOM     13  O   UNL     1     112.845 123.810 137.295  0.00  0.00    +0.000 OA
ATOM     14  C   UNL     1     111.975 125.995 136.526  0.00  0.00    +0.000 A 
ATOM     15  C   UNL     1     112.706 125.724 136.254  0.00  0.00    +0.000 A 
ATOM     16  C   UNL     1     111.535 125.539 137.053  0.00  0.00    +0.000 A 
ATOM     17  C   UNL     1     111.825 124.811 137.309  0.00  0.00    +0.000 A 
ATOM     18  C   UNL     1     112.996 124.995 136.511  0.00  0.00    +0.000 A 
ATOM     19  C   UNL     1     112.555 124.539 137.039  0.00  0.00    +0.000 A 
BRANCH  17  20
ATOM     20  O   UNL     1     111.386 124.354 137.837  0.00  0.00    +0.000 OA
ATOM     21  C   UNL     1     110.914 124.720 138.406  0.00  0.00    +0.000 C 
ENDBRANCH  17  20
BRANCH  18  22
ATOM     22  O   UNL     1     113.726 124.723 136.240  0.00  0.00    +0.000 OA
ATOM     23  C   UNL     1     114.408 125.168 136.375  0.00  0.00    +0.000 C 
ENDBRANCH  18  22
ENDBRANCH  11  14
BRANCH   5  24
ATOM     24  O   UNL     1     110.653 130.373 135.674  0.00  0.00    +0.000 OA
ATOM     25  C   UNL     1     109.841 130.519 135.684  0.00  0.00    +0.000 C 
ENDBRANCH   5  24
BRANCH  12  26
ATOM     26  O   UNL     1     111.107 126.091 135.126  0.00  0.00    +0.000 OA
ATOM     27  C   UNL     1     110.448 126.052 134.632  0.00  0.00    +0.000 C 
ENDBRANCH  12  26
BRANCH   4  28
ATOM     28  O   UNL     1     111.542 130.276 137.108  0.00  0.00    +0.000 OA
BRANCH  28  37
ATOM     29  O   UNL     1     112.952 130.432 136.936  0.00  0.00    +0.000 OA
ATOM     30  O   UNL     1     113.215 130.746 139.377  0.00  0.00    +0.000 OA
ATOM     31  O   UNL     1     114.537 130.797 138.391  0.00  0.00    +0.000 OA
ATOM     32  O   UNL     1     111.718 130.485 138.736  0.00  0.00    +0.000 OA
ATOM     33  C   UNL     1     113.128 130.641 138.563  0.00  0.00    +0.000 C 
ATOM     34  C   UNL     1     113.788 130.667 138.070  0.00  0.00    +0.000 C 
ATOM     35  C   UNL     1     112.378 130.511 138.242  0.00  0.00    +0.000 C 
ATOM     36  C   UNL     1     113.700 130.562 137.256  0.00  0.00    +0.000 C 
ATOM     37  C   UNL     1     112.290 130.406 137.429  0.00  0.00    +0.000 C 
BRANCH  36  39
ATOM     38  O   UNL     1     114.336 131.020 136.062  0.00  0.00    +0.000 OA
ATOM     39  C   UNL     1     114.361 130.588 136.764  0.00  0.00    +0.000 C 
ENDBRANCH  36  39
ENDBRANCH  28  37
ENDBRANCH   4  28
TORSDOF 8
ENDMDL
MODEL 8
REMARK VINA RESULT:      -8.1      8.055     11.053
REMARK  Name = 44259883
REMARK  8 active torsions:
REMARK  status: ('A' for Active; 'I' for Inactive)
REMARK    1  A    between atoms: O_2  and  C_19
REMARK    2  A    between atoms: O_2  and  C_21
REMARK    3  A    between atoms: O_8  and  C_22
REMARK    4  A    between atoms: O_10  and  C_29
REMARK    5  A    between atoms: O_12  and  C_34
REMARK    6  A    between atoms: O_13  and  C_35
REMARK    7  A    between atoms: C_18  and  C_20
REMARK    8  A    between atoms: C_28  and  C_30
REMARK                            x       y       z     vdW  Elec       q    Type
REMARK                         _______ _______ _______ _____ _____    ______ ____
ROOT
ATOM      1  O   UNL     1     111.693 129.130 137.737  0.00  0.00    +0.000 OA
ATOM      2  O   UNL     1     112.409 131.836 137.023  0.00  0.00    +0.000 OA
ATOM      3  O   UNL     1     113.278 130.729 136.709  0.00  0.00    +0.000 OA
ATOM      4  C   UNL     1     110.593 131.047 138.069  0.00  0.00    +0.000 A 
ATOM      5  C   UNL     1     111.144 131.601 137.712  0.00  0.00    +0.000 A 
ATOM      6  C   UNL     1     110.782 130.208 138.077  0.00  0.00    +0.000 A 
ATOM      7  C   UNL     1     111.518 129.936 137.727  0.00  0.00    +0.000 A 
ATOM      8  C   UNL     1     112.046 130.469 137.384  0.00  0.00    +0.000 A 
ATOM      9  C   UNL     1     111.875 131.310 137.367  0.00  0.00    +0.000 A 
ATOM     10  C   UNL     1     112.750 130.196 137.052  0.00  0.00    +0.000 A 
ATOM     11  C   UNL     1     112.397 128.857 137.405  0.00  0.00    +0.000 A 
ATOM     12  C   UNL     1     112.925 129.390 137.062  0.00  0.00    +0.000 A 
ENDROOT
BRANCH  11  14
ATOM     13  O   UNL     1     113.099 125.633 137.444  0.00  0.00    +0.000 OA
ATOM     14  C   UNL     1     112.573 128.051 137.415  0.00  0.00    +0.000 A 
ATOM     15  C   UNL     1     112.326 127.567 136.793  0.00  0.00    +0.000 A 
ATOM     16  C   UNL     1     112.995 127.729 138.045  0.00  0.00    +0.000 A 
ATOM     17  C   UNL     1     113.170 126.922 138.055  0.00  0.00    +0.000 A 
ATOM     18  C   UNL     1     112.501 126.761 136.803  0.00  0.00    +0.000 A 
ATOM     19  C   UNL     1     112.924 126.439 137.434  0.00  0.00    +0.000 A 
BRANCH  17  20
ATOM     20  O   UNL     1     113.592 126.599 138.686  0.00  0.00    +0.000 OA
ATOM     21  C   UNL     1     113.415 126.825 139.460  0.00  0.00    +0.000 C 
ENDBRANCH  17  20
BRANCH  18  22
ATOM     22  O   UNL     1     112.255 126.277 136.182  0.00  0.00    +0.000 OA
ATOM     23  C   UNL     1     111.514 126.394 135.837  0.00  0.00    +0.000 C 
ENDBRANCH  18  22
ENDBRANCH  11  14
BRANCH   5  24
ATOM     24  O   UNL     1     110.971 132.408 137.700  0.00  0.00    +0.000 OA
ATOM     25  C   UNL     1     110.742 132.771 136.996  0.00  0.00    +0.000 C 
ENDBRANCH   5  24
BRANCH  12  26
ATOM     26  O   UNL     1     113.629 129.117 136.729  0.00  0.00    +0.000 OA
ATOM     27  C   UNL     1     114.010 129.560 136.148  0.00  0.00    +0.000 C 
ENDBRANCH  12  26
BRANCH   4  28
ATOM     28  O   UNL     1     109.888 131.317 138.403  0.00  0.00    +0.000 OA
BRANCH  28  37
ATOM     29  O   UNL     1     110.206 131.196 139.791  0.00  0.00    +0.000 OA
ATOM     30  O   UNL     1     107.991 130.172 140.207  0.00  0.00    +0.000 OA
ATOM     31  O   UNL     1     109.047 130.392 141.456  0.00  0.00    +0.000 OA
ATOM     32  O   UNL     1     108.412 130.634 138.680  0.00  0.00    +0.000 OA
ATOM     33  C   UNL     1     108.729 130.513 140.068  0.00  0.00    +0.000 C 
ATOM     34  C   UNL     1     109.257 130.624 140.692  0.00  0.00    +0.000 C 
ATOM     35  C   UNL     1     108.940 130.745 139.304  0.00  0.00    +0.000 C 
ATOM     36  C   UNL     1     109.996 130.965 140.553  0.00  0.00    +0.000 C 
ATOM     37  C   UNL     1     109.678 131.086 139.165  0.00  0.00    +0.000 C 
BRANCH  36  39
ATOM     38  O   UNL     1     110.897 131.803 141.280  0.00  0.00    +0.000 OA
ATOM     39  C   UNL     1     110.523 131.075 141.178  0.00  0.00    +0.000 C 
ENDBRANCH  36  39
ENDBRANCH  28  37
ENDBRANCH   4  28
TORSDOF 8
ENDMDL
MODEL 9
REMARK VINA RESULT:      -8.0      8.414     11.695
REMARK  Name = 44259883
REMARK  8 active torsions:
REMARK  status: ('A' for Active; 'I' for Inactive)
REMARK    1  A    between atoms: O_2  and  C_19
REMARK    2  A    between atoms: O_2  and  C_21
REMARK    3  A    between atoms: O_8  and  C_22
REMARK    4  A    between atoms: O_10  and  C_29
REMARK    5  A    between atoms: O_12  and  C_34
REMARK    6  A    between atoms: O_13  and  C_35
REMARK    7  A    between atoms: C_18  and  C_20
REMARK    8  A    between atoms: C_28  and  C_30
REMARK                            x       y       z     vdW  Elec       q    Type
REMARK                         _______ _______ _______ _____ _____    ______ ____
ROOT
ATOM      1  O   UNL     1     111.837 128.366 137.296  0.00  0.00    +0.000 OA
ATOM      2  O   UNL     1     114.125 126.776 136.531  0.00  0.00    +0.000 OA
ATOM      3  O   UNL     1     113.638 127.836 135.683  0.00  0.00    +0.000 OA
ATOM      4  C   UNL     1     112.836 126.673 138.360  0.00  0.00    +0.000 A 
ATOM      5  C   UNL     1     113.461 126.490 137.800  0.00  0.00    +0.000 A 
ATOM      6  C   UNL     1     112.285 127.310 138.187  0.00  0.00    +0.000 A 
ATOM      7  C   UNL     1     112.368 127.755 137.457  0.00  0.00    +0.000 A 
ATOM      8  C   UNL     1     112.968 127.579 136.919  0.00  0.00    +0.000 A 
ATOM      9  C   UNL     1     113.527 126.945 137.074  0.00  0.00    +0.000 A 
ATOM     10  C   UNL     1     113.037 128.013 136.221  0.00  0.00    +0.000 A 
ATOM     11  C   UNL     1     111.906 128.800 136.598  0.00  0.00    +0.000 A 
ATOM     12  C   UNL     1     112.506 128.623 136.060  0.00  0.00    +0.000 A 
ENDROOT
BRANCH  11  14
ATOM     13  O   UNL     1     109.781 131.241 135.956  0.00  0.00    +0.000 OA
ATOM     14  C   UNL     1     111.375 129.410 136.437  0.00  0.00    +0.000 A 
ATOM     15  C   UNL     1     110.668 129.248 136.043  0.00  0.00    +0.000 A 
ATOM     16  C   UNL     1     111.550 130.181 136.670  0.00  0.00    +0.000 A 
ATOM     17  C   UNL     1     111.019 130.791 136.510  0.00  0.00    +0.000 A 
ATOM     18  C   UNL     1     110.136 129.859 135.883  0.00  0.00    +0.000 A 
ATOM     19  C   UNL     1     110.312 130.630 136.116  0.00  0.00    +0.000 A 
BRANCH  17  20
ATOM     20  O   UNL     1     111.193 131.563 136.743  0.00  0.00    +0.000 OA
ATOM     21  C   UNL     1     111.584 131.700 137.457  0.00  0.00    +0.000 C 
ENDBRANCH  17  20
BRANCH  18  22
ATOM     22  O   UNL     1     109.430 129.698 135.489  0.00  0.00    +0.000 OA
ATOM     23  C   UNL     1     108.962 129.060 135.724  0.00  0.00    +0.000 C 
ENDBRANCH  18  22
ENDBRANCH  11  14
BRANCH   5  24
ATOM     24  O   UNL     1     113.994 125.879 137.957  0.00  0.00    +0.000 OA
ATOM     25  C   UNL     1     113.949 125.173 137.533  0.00  0.00    +0.000 C 
ENDBRANCH   5  24
BRANCH  12  26
ATOM     26  O   UNL     1     112.575 129.057 135.362  0.00  0.00    +0.000 OA
ATOM     27  C   UNL     1     113.304 129.113 134.982  0.00  0.00    +0.000 C 
ENDBRANCH  12  26
BRANCH   4  28
ATOM     28  O   UNL     1     112.764 126.240 139.059  0.00  0.00    +0.000 OA
BRANCH  28  37
ATOM     29  O   UNL     1     113.274 127.169 140.018  0.00  0.00    +0.000 OA
ATOM     30  O   UNL     1     111.319 126.737 141.474  0.00  0.00    +0.000 OA
ATOM     31  O   UNL     1     112.480 127.809 141.947  0.00  0.00    +0.000 OA
ATOM     32  O   UNL     1     111.461 125.952 140.029  0.00  0.00    +0.000 OA
ATOM     33  C   UNL     1     111.971 126.881 140.989  0.00  0.00    +0.000 C 
ATOM     34  C   UNL     1     112.551 127.417 141.225  0.00  0.00    +0.000 C 
ATOM     35  C   UNL     1     112.042 126.488 140.266  0.00  0.00    +0.000 C 
ATOM     36  C   UNL     1     113.203 127.561 140.740  0.00  0.00    +0.000 C 
ATOM     37  C   UNL     1     112.694 126.632 139.781  0.00  0.00    +0.000 C 
BRANCH  36  39
ATOM     38  O   UNL     1     114.581 127.904 140.898  0.00  0.00    +0.000 OA
ATOM     39  C   UNL     1     113.783 128.097 140.977  0.00  0.00    +0.000 C 
ENDBRANCH  36  39
ENDBRANCH  28  37
ENDBRANCH   4  28
TORSDOF 8
ENDMDL
MODEL 10
REMARK VINA RESULT:      -8.0      8.062     10.550
REMARK  Name = 44259883
REMARK  8 active torsions:
REMARK  status: ('A' for Active; 'I' for Inactive)
REMARK    1  A    between atoms: O_2  and  C_19
REMARK    2  A    between atoms: O_2  and  C_21
REMARK    3  A    between atoms: O_8  and  C_22
REMARK    4  A    between atoms: O_10  and  C_29
REMARK    5  A    between atoms: O_12  and  C_34
REMARK    6  A    between atoms: O_13  and  C_35
REMARK    7  A    between atoms: C_18  and  C_20
REMARK    8  A    between atoms: C_28  and  C_30
REMARK                            x       y       z     vdW  Elec       q    Type
REMARK                         _______ _______ _______ _____ _____    ______ ____
ROOT
ATOM      1  O   UNL     1     110.910 127.700 137.443  0.00  0.00    +0.000 OA
ATOM      2  O   UNL     1     109.238 128.916 139.461  0.00  0.00    +0.000 OA
ATOM      3  O   UNL     1     109.151 127.505 139.173  0.00  0.00    +0.000 OA
ATOM      4  C   UNL     1     110.792 129.824 138.129  0.00  0.00    +0.000 A 
ATOM      5  C   UNL     1     110.181 129.756 138.729  0.00  0.00    +0.000 A 
ATOM      6  C   UNL     1     111.038 129.124 137.693  0.00  0.00    +0.000 A 
ATOM      7  C   UNL     1     110.670 128.367 137.864  0.00  0.00    +0.000 A 
ATOM      8  C   UNL     1     110.083 128.303 138.441  0.00  0.00    +0.000 A 
ATOM      9  C   UNL     1     109.825 128.990 138.886  0.00  0.00    +0.000 A 
ATOM     10  C   UNL     1     109.737 127.570 138.596  0.00  0.00    +0.000 A 
ATOM     11  C   UNL     1     110.564 126.967 137.599  0.00  0.00    +0.000 A 
ATOM     12  C   UNL     1     109.977 126.902 138.175  0.00  0.00    +0.000 A 
ENDROOT
BRANCH  11  14
ATOM     13  O   UNL     1     111.523 124.297 135.914  0.00  0.00    +0.000 OA
ATOM     14  C   UNL     1     110.804 126.300 137.177  0.00  0.00    +0.000 A 
ATOM     15  C   UNL     1     110.426 126.100 136.471  0.00  0.00    +0.000 A 
ATOM     16  C   UNL     1     111.420 125.832 137.462  0.00  0.00    +0.000 A 
ATOM     17  C   UNL     1     111.660 125.165 137.041  0.00  0.00    +0.000 A 
ATOM     18  C   UNL     1     110.666 125.433 136.050  0.00  0.00    +0.000 A 
ATOM     19  C   UNL     1     111.283 124.965 136.335  0.00  0.00    +0.000 A 
BRANCH  17  20
ATOM     20  O   UNL     1     112.276 124.696 137.325  0.00  0.00    +0.000 OA
ATOM     21  C   UNL     1     112.982 125.047 137.570  0.00  0.00    +0.000 C 
ENDBRANCH  17  20
BRANCH  18  22
ATOM     22  O   UNL     1     110.290 125.233 135.343  0.00  0.00    +0.000 OA
ATOM     23  C   UNL     1     110.024 125.826 134.836  0.00  0.00    +0.000 C 
ENDBRANCH  18  22
ENDBRANCH  11  14
BRANCH   5  24
ATOM     24  O   UNL     1     109.939 130.421 139.152  0.00  0.00    +0.000 OA
ATOM     25  C   UNL     1     109.205 130.763 138.997  0.00  0.00    +0.000 C 
ENDBRANCH   5  24
BRANCH  12  26
ATOM     26  O   UNL     1     109.631 126.170 138.331  0.00  0.00    +0.000 OA
ATOM     27  C   UNL     1     109.297 126.020 139.069  0.00  0.00    +0.000 C 
ENDBRANCH  12  26
BRANCH   4  28
ATOM     28  O   UNL     1     111.140 130.555 137.971  0.00  0.00    +0.000 OA
BRANCH  28  37
ATOM     29  O   UNL     1     112.407 130.391 138.612  0.00  0.00    +0.000 OA
ATOM     30  O   UNL     1     113.538 131.310 136.611  0.00  0.00    +0.000 OA
ATOM     31  O   UNL     1     114.427 130.840 137.918  0.00  0.00    +0.000 OA
ATOM     32  O   UNL     1     111.894 131.168 136.637  0.00  0.00    +0.000 OA
ATOM     33  C   UNL     1     113.161 131.004 137.278  0.00  0.00    +0.000 C 
ATOM     34  C   UNL     1     113.605 130.769 137.932  0.00  0.00    +0.000 C 
ATOM     35  C   UNL     1     112.338 130.933 137.291  0.00  0.00    +0.000 C 
ATOM     36  C   UNL     1     113.228 130.462 138.599  0.00  0.00    +0.000 C 
ATOM     37  C   UNL     1     111.962 130.626 137.958  0.00  0.00    +0.000 C 
BRANCH  36  39
ATOM     38  O   UNL     1     113.466 130.485 140.008  0.00  0.00    +0.000 OA
ATOM     39  C   UNL     1     113.673 130.228 139.252  0.00  0.00    +0.000 C 
ENDBRANCH  36  39
ENDBRANCH  28  37
ENDBRANCH   4  28
TORSDOF 8
ENDMDL
