MODEL 1
REMARK VINA RESULT:      -9.4      0.000      0.000
REMARK  Name = 44258587
REMARK  9 active torsions:
REMARK  status: ('A' for Active; 'I' for Inactive)
REMARK    1  A    between atoms: S_1  and  O_4
REMARK    2  A    between atoms: S_2  and  O_5
REMARK    3  A    between atoms: O_4  and  C_22
REMARK    4  A    between atoms: O_5  and  C_23
REMARK    5  A    between atoms: O_6  and  C_25
REMARK    6  A    between atoms: O_6  and  C_27
REMARK    7  A    between atoms: O_20  and  C_41
REMARK    8  A    between atoms: C_24  and  C_26
REMARK    9  A    between atoms: C_34  and  C_36
REMARK                            x       y       z     vdW  Elec       q    Type
REMARK                         _______ _______ _______ _____ _____    ______ ____
ROOT
ATOM      1  O   UNL     1     111.332 128.820 135.776  0.00  0.00    +0.000 OA
ENDROOT
BRANCH   1   6
ATOM      2  O   UNL     1     110.580 127.366 136.027  0.00  0.00    +0.000 OA
ATOM      3  O   UNL     1     110.465 130.199 135.513  0.00  0.00    +0.000 OA
ATOM      4  O   UNL     1     108.034 128.714 135.741  0.00  0.00    +0.000 OA
ATOM      5  O   UNL     1     108.048 127.294 135.998  0.00  0.00    +0.000 OA
ATOM      6  C   UNL     1     110.508 128.793 135.768  0.00  0.00    +0.000 A 
ATOM      7  C   UNL     1     110.116 128.078 135.891  0.00  0.00    +0.000 A 
ATOM      8  C   UNL     1     110.074 129.483 135.636  0.00  0.00    +0.000 A 
ATOM      9  C   UNL     1     109.293 128.051 135.882  0.00  0.00    +0.000 A 
ATOM     10  C   UNL     1     109.250 129.457 135.627  0.00  0.00    +0.000 A 
ATOM     11  C   UNL     1     108.859 128.740 135.750  0.00  0.00    +0.000 A 
ATOM     12  C   UNL     1     108.873 127.311 136.009  0.00  0.00    +0.000 A 
ATOM     13  C   UNL     1     110.178 126.618 136.156  0.00  0.00    +0.000 A 
ATOM     14  C   UNL     1     109.319 126.590 136.146  0.00  0.00    +0.000 A 
BRANCH  13  15
ATOM     15  C   UNL     1     110.614 125.930 136.287  0.00  0.00    +0.000 A 
ATOM     16  C   UNL     1     110.813 125.708 137.057  0.00  0.00    +0.000 A 
ATOM     17  C   UNL     1     110.851 125.463 135.649  0.00  0.00    +0.000 A 
ATOM     18  C   UNL     1     111.249 125.020 137.188  0.00  0.00    +0.000 A 
ATOM     19  C   UNL     1     111.287 124.775 135.781  0.00  0.00    +0.000 A 
ATOM     20  C   UNL     1     111.486 124.554 136.550  0.00  0.00    +0.000 A 
BRANCH  20  21
ATOM     21  O   UNL     1     111.922 123.865 136.681  0.00  0.00    +0.000 OA
ATOM     22  C   UNL     1     112.743 123.906 136.761  0.00  0.00    +0.000 C 
ENDBRANCH  20  21
ENDBRANCH  13  15
ENDBRANCH   1   6
BRANCH   1  29
ATOM     23  O   UNL     1     111.350 129.142 137.168  0.00  0.00    +0.000 OA
ATOM     24  O   UNL     1     113.673 129.968 136.947  0.00  0.00    +0.000 OA
ATOM     25  C   UNL     1     112.899 129.693 137.021  0.00  0.00    +0.000 C 
ATOM     26  C   UNL     1     112.521 129.717 137.754  0.00  0.00    +0.000 C 
ATOM     27  C   UNL     1     112.503 129.394 136.362  0.00  0.00    +0.000 C 
ATOM     28  C   UNL     1     111.746 129.441 137.828  0.00  0.00    +0.000 C 
ATOM     29  C   UNL     1     111.728 129.118 136.436  0.00  0.00    +0.000 C 
BRANCH  28  32
ATOM     30  O   UNL     1     111.237 128.766 138.979  0.00  0.00    +0.000 OA
ATOM     31  O   UNL     1     111.007 129.895 139.165  0.00  0.00    +0.000 OA
ATOM     32  C   UNL     1     111.368 129.465 138.560  0.00  0.00    +0.000 C 
ENDBRANCH  28  32
BRANCH  26  33
ATOM     33  O   UNL     1     112.917 130.015 138.413  0.00  0.00    +0.000 OA
BRANCH  33  34
ATOM     34  S   UNL     1     113.561 130.415 138.739  0.00  0.00    +0.000 S 
ATOM     35  O   UNL     1     113.222 131.136 138.526  0.00  0.00    +0.000 OA
ATOM     36  O   UNL     1     114.205 130.814 139.066  0.00  0.00    +0.000 OA
ATOM     37  O   UNL     1     113.900 129.693 138.953  0.00  0.00    +0.000 OA
ENDBRANCH  33  34
ENDBRANCH  26  33
BRANCH  27  38
ATOM     38  O   UNL     1     112.881 129.370 135.629  0.00  0.00    +0.000 OA
BRANCH  38  39
ATOM     39  S   UNL     1     113.630 129.031 135.562  0.00  0.00    +0.000 S 
ATOM     40  O   UNL     1     114.379 128.692 135.495  0.00  0.00    +0.000 OA
ATOM     41  O   UNL     1     113.316 128.296 135.768  0.00  0.00    +0.000 OA
ATOM     42  O   UNL     1     113.944 129.765 135.356  0.00  0.00    +0.000 OA
ENDBRANCH  38  39
ENDBRANCH  27  38
ENDBRANCH   1  29
TORSDOF 9
ENDMDL
MODEL 2
REMARK VINA RESULT:      -9.4      2.444      5.332
REMARK  Name = 44258587
REMARK  9 active torsions:
REMARK  status: ('A' for Active; 'I' for Inactive)
REMARK    1  A    between atoms: S_1  and  O_4
REMARK    2  A    between atoms: S_2  and  O_5
REMARK    3  A    between atoms: O_4  and  C_22
REMARK    4  A    between atoms: O_5  and  C_23
REMARK    5  A    between atoms: O_6  and  C_25
REMARK    6  A    between atoms: O_6  and  C_27
REMARK    7  A    between atoms: O_20  and  C_41
REMARK    8  A    between atoms: C_24  and  C_26
REMARK    9  A    between atoms: C_34  and  C_36
REMARK                            x       y       z     vdW  Elec       q    Type
REMARK                         _______ _______ _______ _____ _____    ______ ____
ROOT
ATOM      1  O   UNL     1     111.253 125.590 137.939  0.00  0.00    +0.000 OA
ENDROOT
BRANCH   1   6
ATOM      2  O   UNL     1     112.714 126.114 138.517  0.00  0.00    +0.000 OA
ATOM      3  O   UNL     1     111.161 124.425 136.774  0.00  0.00    +0.000 OA
ATOM      4  O   UNL     1     114.014 124.260 136.714  0.00  0.00    +0.000 OA
ATOM      5  O   UNL     1     114.827 125.088 137.570  0.00  0.00    +0.000 OA
ATOM      6  C   UNL     1     111.943 125.257 137.633  0.00  0.00    +0.000 A 
ATOM      7  C   UNL     1     112.680 125.507 137.909  0.00  0.00    +0.000 A 
ATOM      8  C   UNL     1     111.898 124.675 137.050  0.00  0.00    +0.000 A 
ATOM      9  C   UNL     1     113.369 125.175 137.603  0.00  0.00    +0.000 A 
ATOM     10  C   UNL     1     112.587 124.343 136.744  0.00  0.00    +0.000 A 
ATOM     11  C   UNL     1     113.324 124.593 137.020  0.00  0.00    +0.000 A 
ATOM     12  C   UNL     1     114.143 125.426 137.883  0.00  0.00    +0.000 A 
ATOM     13  C   UNL     1     113.477 126.378 138.809  0.00  0.00    +0.000 A 
ATOM     14  C   UNL     1     114.197 126.032 138.489  0.00  0.00    +0.000 A 
BRANCH  13  15
ATOM     15  C   UNL     1     113.520 126.961 139.391  0.00  0.00    +0.000 A 
ATOM     16  C   UNL     1     113.491 127.758 139.181  0.00  0.00    +0.000 A 
ATOM     17  C   UNL     1     113.593 126.746 140.184  0.00  0.00    +0.000 A 
ATOM     18  C   UNL     1     113.534 128.340 139.764  0.00  0.00    +0.000 A 
ATOM     19  C   UNL     1     113.636 127.328 140.767  0.00  0.00    +0.000 A 
ATOM     20  C   UNL     1     113.606 128.125 140.557  0.00  0.00    +0.000 A 
BRANCH  20  21
ATOM     21  O   UNL     1     113.650 128.707 141.141  0.00  0.00    +0.000 OA
ATOM     22  C   UNL     1     112.957 129.024 141.459  0.00  0.00    +0.000 C 
ENDBRANCH  20  21
ENDBRANCH  13  15
ENDBRANCH   1   6
BRANCH   1  29
ATOM     23  O   UNL     1     111.200 126.531 136.865  0.00  0.00    +0.000 OA
ATOM     24  O   UNL     1     108.865 127.087 137.467  0.00  0.00    +0.000 OA
ATOM     25  C   UNL     1     109.644 126.901 137.267  0.00  0.00    +0.000 C 
ATOM     26  C   UNL     1     110.006 127.280 136.629  0.00  0.00    +0.000 C 
ATOM     27  C   UNL     1     110.059 126.339 137.703  0.00  0.00    +0.000 C 
ATOM     28  C   UNL     1     110.785 127.094 136.428  0.00  0.00    +0.000 C 
ATOM     29  C   UNL     1     110.838 126.153 137.502  0.00  0.00    +0.000 C 
BRANCH  28  32
ATOM     30  O   UNL     1     111.730 128.040 135.925  0.00  0.00    +0.000 OA
ATOM     31  O   UNL     1     111.230 127.580 134.977  0.00  0.00    +0.000 OA
ATOM     32  C   UNL     1     111.147 127.471 135.791  0.00  0.00    +0.000 C 
ENDBRANCH  28  32
BRANCH  26  33
ATOM     33  O   UNL     1     109.591 127.842 136.192  0.00  0.00    +0.000 OA
BRANCH  33  34
ATOM     34  S   UNL     1     108.881 128.218 136.002  0.00  0.00    +0.000 S 
ATOM     35  O   UNL     1     109.100 128.866 136.463  0.00  0.00    +0.000 OA
ATOM     36  O   UNL     1     108.172 128.593 135.811  0.00  0.00    +0.000 OA
ATOM     37  O   UNL     1     108.662 127.570 135.541  0.00  0.00    +0.000 OA
ENDBRANCH  33  34
ENDBRANCH  26  33
BRANCH  27  38
ATOM     38  O   UNL     1     109.697 125.961 138.341  0.00  0.00    +0.000 OA
BRANCH  38  39
ATOM     39  S   UNL     1     109.334 126.407 138.933  0.00  0.00    +0.000 S 
ATOM     40  O   UNL     1     108.972 126.853 139.525  0.00  0.00    +0.000 OA
ATOM     41  O   UNL     1     108.600 126.101 138.714  0.00  0.00    +0.000 OA
ATOM     42  O   UNL     1     110.069 126.713 139.152  0.00  0.00    +0.000 OA
ENDBRANCH  38  39
ENDBRANCH  27  38
ENDBRANCH   1  29
TORSDOF 9
ENDMDL
MODEL 3
REMARK VINA RESULT:      -9.2     10.646     12.227
REMARK  Name = 44258587
REMARK  9 active torsions:
REMARK  status: ('A' for Active; 'I' for Inactive)
REMARK    1  A    between atoms: S_1  and  O_4
REMARK    2  A    between atoms: S_2  and  O_5
REMARK    3  A    between atoms: O_4  and  C_22
REMARK    4  A    between atoms: O_5  and  C_23
REMARK    5  A    between atoms: O_6  and  C_25
REMARK    6  A    between atoms: O_6  and  C_27
REMARK    7  A    between atoms: O_20  and  C_41
REMARK    8  A    between atoms: C_24  and  C_26
REMARK    9  A    between atoms: C_34  and  C_36
REMARK                            x       y       z     vdW  Elec       q    Type
REMARK                         _______ _______ _______ _____ _____    ______ ____
ROOT
ATOM      1  O   UNL     1     106.045 124.889 146.047  0.00  0.00    +0.000 OA
ENDROOT
BRANCH   1   6
ATOM      2  O   UNL     1     104.814 124.662 147.131  0.00  0.00    +0.000 OA
ATOM      3  O   UNL     1     107.577 125.238 146.551  0.00  0.00    +0.000 OA
ATOM      4  O   UNL     1     106.703 125.147 149.270  0.00  0.00    +0.000 OA
ATOM      5  O   UNL     1     105.329 124.862 149.603  0.00  0.00    +0.000 OA
ATOM      6  C   UNL     1     106.210 124.954 146.853  0.00  0.00    +0.000 A 
ATOM      7  C   UNL     1     105.609 124.844 147.407  0.00  0.00    +0.000 A 
ATOM      8  C   UNL     1     106.976 125.128 147.105  0.00  0.00    +0.000 A 
ATOM      9  C   UNL     1     105.773 124.908 148.212  0.00  0.00    +0.000 A 
ATOM     10  C   UNL     1     107.140 125.193 147.910  0.00  0.00    +0.000 A 
ATOM     11  C   UNL     1     106.538 125.083 148.465  0.00  0.00    +0.000 A 
ATOM     12  C   UNL     1     105.155 124.796 148.799  0.00  0.00    +0.000 A 
ATOM     13  C   UNL     1     104.184 124.546 147.703  0.00  0.00    +0.000 A 
ATOM     14  C   UNL     1     104.355 124.614 148.543  0.00  0.00    +0.000 A 
BRANCH  13  15
ATOM     15  C   UNL     1     103.419 124.372 147.448  0.00  0.00    +0.000 A 
ATOM     16  C   UNL     1     103.233 123.610 147.193  0.00  0.00    +0.000 A 
ATOM     17  C   UNL     1     102.840 124.960 147.448  0.00  0.00    +0.000 A 
ATOM     18  C   UNL     1     102.468 123.435 146.938  0.00  0.00    +0.000 A 
ATOM     19  C   UNL     1     102.075 124.785 147.193  0.00  0.00    +0.000 A 
ATOM     20  C   UNL     1     101.889 124.023 146.938  0.00  0.00    +0.000 A 
BRANCH  20  21
ATOM     21  O   UNL     1     101.123 123.849 146.683  0.00  0.00    +0.000 OA
ATOM     22  C   UNL     1     101.004 123.499 145.946  0.00  0.00    +0.000 C 
ENDBRANCH  20  21
ENDBRANCH  13  15
ENDBRANCH   1   6
BRANCH   1  29
ATOM     23  O   UNL     1     105.792 126.293 145.959  0.00  0.00    +0.000 OA
ATOM     24  O   UNL     1     105.928 126.162 143.491  0.00  0.00    +0.000 OA
ATOM     25  C   UNL     1     105.883 126.205 144.313  0.00  0.00    +0.000 C 
ATOM     26  C   UNL     1     105.733 126.929 144.680  0.00  0.00    +0.000 C 
ATOM     27  C   UNL     1     105.987 125.526 144.768  0.00  0.00    +0.000 C 
ATOM     28  C   UNL     1     105.688 126.973 145.504  0.00  0.00    +0.000 C 
ATOM     29  C   UNL     1     105.941 125.570 145.592  0.00  0.00    +0.000 C 
BRANCH  28  32
ATOM     30  O   UNL     1     104.805 127.838 146.220  0.00  0.00    +0.000 OA
ATOM     31  O   UNL     1     105.790 128.450 146.092  0.00  0.00    +0.000 OA
ATOM     32  C   UNL     1     105.539 127.696 145.870  0.00  0.00    +0.000 C 
ENDBRANCH  28  32
BRANCH  26  33
ATOM     33  O   UNL     1     105.629 127.609 144.225  0.00  0.00    +0.000 OA
BRANCH  33  34
ATOM     34  S   UNL     1     105.688 128.000 143.501  0.00  0.00    +0.000 S 
ATOM     35  O   UNL     1     106.497 128.103 143.622  0.00  0.00    +0.000 OA
ATOM     36  O   UNL     1     105.746 128.391 142.777  0.00  0.00    +0.000 OA
ATOM     37  O   UNL     1     104.878 127.897 143.380  0.00  0.00    +0.000 OA
ENDBRANCH  33  34
ENDBRANCH  26  33
BRANCH  27  38
ATOM     38  O   UNL     1     106.136 124.802 144.402  0.00  0.00    +0.000 OA
BRANCH  38  39
ATOM     39  S   UNL     1     105.672 124.559 143.764  0.00  0.00    +0.000 S 
ATOM     40  O   UNL     1     105.207 124.317 143.127  0.00  0.00    +0.000 OA
ATOM     41  O   UNL     1     106.320 124.641 143.261  0.00  0.00    +0.000 OA
ATOM     42  O   UNL     1     105.023 124.477 144.268  0.00  0.00    +0.000 OA
ENDBRANCH  38  39
ENDBRANCH  27  38
ENDBRANCH   1  29
TORSDOF 9
ENDMDL
MODEL 4
REMARK VINA RESULT:      -9.0      1.461      3.508
REMARK  Name = 44258587
REMARK  9 active torsions:
REMARK  status: ('A' for Active; 'I' for Inactive)
REMARK    1  A    between atoms: S_1  and  O_4
REMARK    2  A    between atoms: S_2  and  O_5
REMARK    3  A    between atoms: O_4  and  C_22
REMARK    4  A    between atoms: O_5  and  C_23
REMARK    5  A    between atoms: O_6  and  C_25
REMARK    6  A    between atoms: O_6  and  C_27
REMARK    7  A    between atoms: O_20  and  C_41
REMARK    8  A    between atoms: C_24  and  C_26
REMARK    9  A    between atoms: C_34  and  C_36
REMARK                            x       y       z     vdW  Elec       q    Type
REMARK                         _______ _______ _______ _____ _____    ______ ____
ROOT
ATOM      1  O   UNL     1     113.519 126.615 136.367  0.00  0.00    +0.000 OA
ENDROOT
BRANCH   1   6
ATOM      2  O   UNL     1     112.077 125.805 136.281  0.00  0.00    +0.000 OA
ATOM      3  O   UNL     1     114.902 125.853 136.847  0.00  0.00    +0.000 OA
ATOM      4  O   UNL     1     113.445 123.417 137.178  0.00  0.00    +0.000 OA
ATOM      5  O   UNL     1     112.030 123.351 136.905  0.00  0.00    +0.000 OA
ATOM      6  C   UNL     1     113.501 125.815 136.570  0.00  0.00    +0.000 A 
ATOM      7  C   UNL     1     112.791 125.396 136.533  0.00  0.00    +0.000 A 
ATOM      8  C   UNL     1     114.192 125.434 136.810  0.00  0.00    +0.000 A 
ATOM      9  C   UNL     1     112.772 124.598 136.735  0.00  0.00    +0.000 A 
ATOM     10  C   UNL     1     114.174 124.635 137.013  0.00  0.00    +0.000 A 
ATOM     11  C   UNL     1     113.463 124.216 136.975  0.00  0.00    +0.000 A 
ATOM     12  C   UNL     1     112.039 124.150 136.701  0.00  0.00    +0.000 A 
ATOM     13  C   UNL     1     111.335 125.374 136.240  0.00  0.00    +0.000 A 
ATOM     14  C   UNL     1     111.316 124.541 136.451  0.00  0.00    +0.000 A 
BRANCH  13  15
ATOM     15  C   UNL     1     110.645 125.758 136.000  0.00  0.00    +0.000 A 
ATOM     16  C   UNL     1     110.175 126.146 136.555  0.00  0.00    +0.000 A 
ATOM     17  C   UNL     1     110.426 125.753 135.204  0.00  0.00    +0.000 A 
ATOM     18  C   UNL     1     109.485 126.530 136.314  0.00  0.00    +0.000 A 
ATOM     19  C   UNL     1     109.737 126.136 134.964  0.00  0.00    +0.000 A 
ATOM     20  C   UNL     1     109.266 126.524 135.519  0.00  0.00    +0.000 A 
BRANCH  20  21
ATOM     21  O   UNL     1     108.576 126.908 135.277  0.00  0.00    +0.000 OA
ATOM     22  C   UNL     1     108.362 127.627 135.621  0.00  0.00    +0.000 C 
ENDBRANCH  20  21
ENDBRANCH  13  15
ENDBRANCH   1   6
BRANCH   1  29
ATOM     23  O   UNL     1     113.437 126.985 137.745  0.00  0.00    +0.000 OA
ATOM     24  O   UNL     1     112.975 129.326 137.088  0.00  0.00    +0.000 OA
ATOM     25  C   UNL     1     113.129 128.546 137.307  0.00  0.00    +0.000 C 
ATOM     26  C   UNL     1     113.165 128.342 138.105  0.00  0.00    +0.000 C 
ATOM     27  C   UNL     1     113.247 127.971 136.728  0.00  0.00    +0.000 C 
ATOM     28  C   UNL     1     113.319 127.560 138.325  0.00  0.00    +0.000 C 
ATOM     29  C   UNL     1     113.401 127.190 136.947  0.00  0.00    +0.000 C 
BRANCH  28  32
ATOM     30  O   UNL     1     112.728 126.948 139.472  0.00  0.00    +0.000 OA
ATOM     31  O   UNL     1     113.758 127.354 139.842  0.00  0.00    +0.000 OA
ATOM     32  C   UNL     1     113.355 127.356 139.122  0.00  0.00    +0.000 C 
ENDBRANCH  28  32
BRANCH  26  33
ATOM     33  O   UNL     1     113.047 128.916 138.684  0.00  0.00    +0.000 OA
BRANCH  33  34
ATOM     34  S   UNL     1     112.934 129.706 138.895  0.00  0.00    +0.000 S 
ATOM     35  O   UNL     1     113.751 129.814 138.928  0.00  0.00    +0.000 OA
ATOM     36  O   UNL     1     112.821 130.496 139.105  0.00  0.00    +0.000 OA
ATOM     37  O   UNL     1     112.117 129.598 138.862  0.00  0.00    +0.000 OA
ENDBRANCH  33  34
ENDBRANCH  26  33
BRANCH  27  38
ATOM     38  O   UNL     1     113.211 128.176 135.929  0.00  0.00    +0.000 OA
BRANCH  38  39
ATOM     39  S   UNL     1     113.627 128.833 135.653  0.00  0.00    +0.000 S 
ATOM     40  O   UNL     1     114.042 129.490 135.377  0.00  0.00    +0.000 OA
ATOM     41  O   UNL     1     112.914 129.221 135.505  0.00  0.00    +0.000 OA
ATOM     42  O   UNL     1     114.339 128.445 135.801  0.00  0.00    +0.000 OA
ENDBRANCH  38  39
ENDBRANCH  27  38
ENDBRANCH   1  29
TORSDOF 9
ENDMDL
MODEL 5
REMARK VINA RESULT:      -9.0     11.713     13.940
REMARK  Name = 44258587
REMARK  9 active torsions:
REMARK  status: ('A' for Active; 'I' for Inactive)
REMARK    1  A    between atoms: S_1  and  O_4
REMARK    2  A    between atoms: S_2  and  O_5
REMARK    3  A    between atoms: O_4  and  C_22
REMARK    4  A    between atoms: O_5  and  C_23
REMARK    5  A    between atoms: O_6  and  C_25
REMARK    6  A    between atoms: O_6  and  C_27
REMARK    7  A    between atoms: O_20  and  C_41
REMARK    8  A    between atoms: C_24  and  C_26
REMARK    9  A    between atoms: C_34  and  C_36
REMARK                            x       y       z     vdW  Elec       q    Type
REMARK                         _______ _______ _______ _____ _____    ______ ____
ROOT
ATOM      1  O   UNL     1     104.732 125.478 148.311  0.00  0.00    +0.000 OA
ENDROOT
BRANCH   1   6
ATOM      2  O   UNL     1     105.720 126.468 147.425  0.00  0.00    +0.000 OA
ATOM      3  O   UNL     1     105.336 124.185 149.140  0.00  0.00    +0.000 OA
ATOM      4  O   UNL     1     107.966 124.826 148.222  0.00  0.00    +0.000 OA
ATOM      5  O   UNL     1     108.200 125.960 147.362  0.00  0.00    +0.000 OA
ATOM      6  C   UNL     1     105.541 125.315 148.289  0.00  0.00    +0.000 A 
ATOM      7  C   UNL     1     106.047 125.798 147.852  0.00  0.00    +0.000 A 
ATOM      8  C   UNL     1     105.843 124.668 148.703  0.00  0.00    +0.000 A 
ATOM      9  C   UNL     1     106.855 125.635 147.830  0.00  0.00    +0.000 A 
ATOM     10  C   UNL     1     106.650 124.505 148.681  0.00  0.00    +0.000 A 
ATOM     11  C   UNL     1     107.157 124.989 148.244  0.00  0.00    +0.000 A 
ATOM     12  C   UNL     1     107.393 126.131 147.378  0.00  0.00    +0.000 A 
ATOM     13  C   UNL     1     106.242 126.975 146.968  0.00  0.00    +0.000 A 
ATOM     14  C   UNL     1     107.085 126.805 146.945  0.00  0.00    +0.000 A 
BRANCH  13  15
ATOM     15  C   UNL     1     105.937 127.621 146.555  0.00  0.00    +0.000 A 
ATOM     16  C   UNL     1     105.743 127.545 145.756  0.00  0.00    +0.000 A 
ATOM     17  C   UNL     1     105.827 128.342 146.940  0.00  0.00    +0.000 A 
ATOM     18  C   UNL     1     105.438 128.190 145.343  0.00  0.00    +0.000 A 
ATOM     19  C   UNL     1     105.522 128.988 146.526  0.00  0.00    +0.000 A 
ATOM     20  C   UNL     1     105.328 128.912 145.728  0.00  0.00    +0.000 A 
BRANCH  20  21
ATOM     21  O   UNL     1     105.023 129.558 145.315  0.00  0.00    +0.000 OA
ATOM     22  C   UNL     1     105.353 129.778 144.592  0.00  0.00    +0.000 C 
ENDBRANCH  20  21
ENDBRANCH  13  15
ENDBRANCH   1   6
BRANCH   1  29
ATOM     23  O   UNL     1     104.485 124.637 147.182  0.00  0.00    +0.000 OA
ATOM     24  O   UNL     1     102.090 124.517 147.794  0.00  0.00    +0.000 OA
ATOM     25  C   UNL     1     102.889 124.557 147.590  0.00  0.00    +0.000 C 
ATOM     26  C   UNL     1     103.164 124.156 146.924  0.00  0.00    +0.000 C 
ATOM     27  C   UNL     1     103.411 124.997 148.052  0.00  0.00    +0.000 C 
ATOM     28  C   UNL     1     103.963 124.196 146.719  0.00  0.00    +0.000 C 
ATOM     29  C   UNL     1     104.210 125.037 147.848  0.00  0.00    +0.000 C 
BRANCH  28  32
ATOM     30  O   UNL     1     104.409 124.213 145.362  0.00  0.00    +0.000 OA
ATOM     31  O   UNL     1     104.459 123.093 145.683  0.00  0.00    +0.000 OA
ATOM     32  C   UNL     1     104.239 123.796 146.053  0.00  0.00    +0.000 C 
ENDBRANCH  28  32
BRANCH  26  33
ATOM     33  O   UNL     1     102.642 123.716 146.462  0.00  0.00    +0.000 OA
BRANCH  33  34
ATOM     34  S   UNL     1     101.911 123.348 146.364  0.00  0.00    +0.000 S 
ATOM     35  O   UNL     1     101.671 123.956 145.862  0.00  0.00    +0.000 OA
ATOM     36  O   UNL     1     101.179 122.979 146.267  0.00  0.00    +0.000 OA
ATOM     37  O   UNL     1     102.150 122.739 146.867  0.00  0.00    +0.000 OA
ENDBRANCH  33  34
ENDBRANCH  26  33
BRANCH  27  38
ATOM     38  O   UNL     1     103.135 125.398 148.719  0.00  0.00    +0.000 OA
BRANCH  38  39
ATOM     39  S   UNL     1     102.487 125.904 148.657  0.00  0.00    +0.000 S 
ATOM     40  O   UNL     1     101.838 126.411 148.594  0.00  0.00    +0.000 OA
ATOM     41  O   UNL     1     102.922 126.401 148.163  0.00  0.00    +0.000 OA
ATOM     42  O   UNL     1     102.052 125.407 149.151  0.00  0.00    +0.000 OA
ENDBRANCH  38  39
ENDBRANCH  27  38
ENDBRANCH   1  29
TORSDOF 9
ENDMDL
MODEL 6
REMARK VINA RESULT:      -9.0      2.317      5.069
REMARK  Name = 44258587
REMARK  9 active torsions:
REMARK  status: ('A' for Active; 'I' for Inactive)
REMARK    1  A    between atoms: S_1  and  O_4
REMARK    2  A    between atoms: S_2  and  O_5
REMARK    3  A    between atoms: O_4  and  C_22
REMARK    4  A    between atoms: O_5  and  C_23
REMARK    5  A    between atoms: O_6  and  C_25
REMARK    6  A    between atoms: O_6  and  C_27
REMARK    7  A    between atoms: O_20  and  C_41
REMARK    8  A    between atoms: C_24  and  C_26
REMARK    9  A    between atoms: C_34  and  C_36
REMARK                            x       y       z     vdW  Elec       q    Type
REMARK                         _______ _______ _______ _____ _____    ______ ____
ROOT
ATOM      1  O   UNL     1     111.236 126.059 136.713  0.00  0.00    +0.000 OA
ENDROOT
BRANCH   1   6
ATOM      2  O   UNL     1     112.667 126.875 136.544  0.00  0.00    +0.000 OA
ATOM      3  O   UNL     1     111.198 124.414 136.838  0.00  0.00    +0.000 OA
ATOM      4  O   UNL     1     114.048 124.333 136.629  0.00  0.00    +0.000 OA
ATOM      5  O   UNL     1     114.819 125.542 136.480  0.00  0.00    +0.000 OA
ATOM      6  C   UNL     1     111.939 125.627 136.692  0.00  0.00    +0.000 A 
ATOM      7  C   UNL     1     112.661 126.018 136.608  0.00  0.00    +0.000 A 
ATOM      8  C   UNL     1     111.920 124.804 136.754  0.00  0.00    +0.000 A 
ATOM      9  C   UNL     1     113.363 125.587 136.587  0.00  0.00    +0.000 A 
ATOM     10  C   UNL     1     112.622 124.373 136.733  0.00  0.00    +0.000 A 
ATOM     11  C   UNL     1     113.345 124.764 136.650  0.00  0.00    +0.000 A 
ATOM     12  C   UNL     1     114.122 125.982 136.500  0.00  0.00    +0.000 A 
ATOM     13  C   UNL     1     113.415 127.288 136.456  0.00  0.00    +0.000 A 
ATOM     14  C   UNL     1     114.148 126.838 136.435  0.00  0.00    +0.000 A 
BRANCH  13  15
ATOM     15  C   UNL     1     113.431 128.110 136.394  0.00  0.00    +0.000 A 
ATOM     16  C   UNL     1     113.443 128.467 135.650  0.00  0.00    +0.000 A 
ATOM     17  C   UNL     1     113.435 128.576 137.075  0.00  0.00    +0.000 A 
ATOM     18  C   UNL     1     113.459 129.290 135.588  0.00  0.00    +0.000 A 
ATOM     19  C   UNL     1     113.451 129.398 137.013  0.00  0.00    +0.000 A 
ATOM     20  C   UNL     1     113.463 129.755 136.269  0.00  0.00    +0.000 A 
BRANCH  20  21
ATOM     21  O   UNL     1     113.479 130.578 136.208  0.00  0.00    +0.000 OA
ATOM     22  C   UNL     1     114.157 130.994 136.425  0.00  0.00    +0.000 C 
ENDBRANCH  20  21
ENDBRANCH  13  15
ENDBRANCH   1   6
BRANCH   1  29
ATOM     23  O   UNL     1     111.275 126.144 138.139  0.00  0.00    +0.000 OA
ATOM     24  O   UNL     1     108.853 126.652 138.174  0.00  0.00    +0.000 OA
ATOM     25  C   UNL     1     109.660 126.483 138.162  0.00  0.00    +0.000 C 
ATOM     26  C   UNL     1     110.083 126.441 138.870  0.00  0.00    +0.000 C 
ATOM     27  C   UNL     1     110.044 126.355 137.444  0.00  0.00    +0.000 C 
ATOM     28  C   UNL     1     110.891 126.272 138.858  0.00  0.00    +0.000 C 
ATOM     29  C   UNL     1     110.852 126.186 137.432  0.00  0.00    +0.000 C 
BRANCH  28  32
ATOM     30  O   UNL     1     111.862 126.817 139.752  0.00  0.00    +0.000 OA
ATOM     31  O   UNL     1     111.485 125.843 140.273  0.00  0.00    +0.000 OA
ATOM     32  C   UNL     1     111.313 126.230 139.565  0.00  0.00    +0.000 C 
ENDBRANCH  28  32
BRANCH  26  33
ATOM     33  O   UNL     1     109.699 126.568 139.588  0.00  0.00    +0.000 OA
BRANCH  33  34
ATOM     34  S   UNL     1     109.001 126.639 140.023  0.00  0.00    +0.000 S 
ATOM     35  O   UNL     1     108.921 125.818 140.028  0.00  0.00    +0.000 OA
ATOM     36  O   UNL     1     108.303 126.710 140.457  0.00  0.00    +0.000 OA
ATOM     37  O   UNL     1     109.081 127.460 140.017  0.00  0.00    +0.000 OA
ENDBRANCH  33  34
ENDBRANCH  26  33
BRANCH  27  38
ATOM     38  O   UNL     1     109.621 126.397 136.736  0.00  0.00    +0.000 OA
BRANCH  38  39
ATOM     39  S   UNL     1     109.170 127.066 136.565  0.00  0.00    +0.000 S 
ATOM     40  O   UNL     1     108.719 127.735 136.393  0.00  0.00    +0.000 OA
ATOM     41  O   UNL     1     108.482 126.613 136.609  0.00  0.00    +0.000 OA
ATOM     42  O   UNL     1     109.859 127.519 136.520  0.00  0.00    +0.000 OA
ENDBRANCH  38  39
ENDBRANCH  27  38
ENDBRANCH   1  29
TORSDOF 9
ENDMDL
MODEL 7
REMARK VINA RESULT:      -8.9      1.718      3.479
REMARK  Name = 44258587
REMARK  9 active torsions:
REMARK  status: ('A' for Active; 'I' for Inactive)
REMARK    1  A    between atoms: S_1  and  O_4
REMARK    2  A    between atoms: S_2  and  O_5
REMARK    3  A    between atoms: O_4  and  C_22
REMARK    4  A    between atoms: O_5  and  C_23
REMARK    5  A    between atoms: O_6  and  C_25
REMARK    6  A    between atoms: O_6  and  C_27
REMARK    7  A    between atoms: O_20  and  C_41
REMARK    8  A    between atoms: C_24  and  C_26
REMARK    9  A    between atoms: C_34  and  C_36
REMARK                            x       y       z     vdW  Elec       q    Type
REMARK                         _______ _______ _______ _____ _____    ______ ____
ROOT
ATOM      1  O   UNL     1     111.064 128.790 136.018  0.00  0.00    +0.000 OA
ENDROOT
BRANCH   1   6
ATOM      2  O   UNL     1     112.087 127.519 136.303  0.00  0.00    +0.000 OA
ATOM      3  O   UNL     1     111.638 130.258 135.528  0.00  0.00    +0.000 OA
ATOM      4  O   UNL     1     114.306 129.236 135.590  0.00  0.00    +0.000 OA
ATOM      5  O   UNL     1     114.574 127.871 135.972  0.00  0.00    +0.000 OA
ATOM      6  C   UNL     1     111.875 128.901 135.911  0.00  0.00    +0.000 A 
ATOM      7  C   UNL     1     112.399 128.279 136.048  0.00  0.00    +0.000 A 
ATOM      8  C   UNL     1     112.162 129.636 135.666  0.00  0.00    +0.000 A 
ATOM      9  C   UNL     1     113.208 128.391 135.941  0.00  0.00    +0.000 A 
ATOM     10  C   UNL     1     112.971 129.747 135.559  0.00  0.00    +0.000 A 
ATOM     11  C   UNL     1     113.496 129.124 135.697  0.00  0.00    +0.000 A 
ATOM     12  C   UNL     1     113.765 127.750 136.082  0.00  0.00    +0.000 A 
ATOM     13  C   UNL     1     112.628 126.868 136.448  0.00  0.00    +0.000 A 
ATOM     14  C   UNL     1     113.472 126.984 136.337  0.00  0.00    +0.000 A 
BRANCH  13  15
ATOM     15  C   UNL     1     112.338 126.135 136.693  0.00  0.00    +0.000 A 
ATOM     16  C   UNL     1     112.044 125.601 136.137  0.00  0.00    +0.000 A 
ATOM     17  C   UNL     1     112.343 125.936 137.493  0.00  0.00    +0.000 A 
ATOM     18  C   UNL     1     111.755 124.868 136.381  0.00  0.00    +0.000 A 
ATOM     19  C   UNL     1     112.054 125.203 137.738  0.00  0.00    +0.000 A 
ATOM     20  C   UNL     1     111.760 124.669 137.182  0.00  0.00    +0.000 A 
BRANCH  20  21
ATOM     21  O   UNL     1     111.470 123.936 137.428  0.00  0.00    +0.000 OA
ATOM     22  C   UNL     1     111.882 123.246 137.238  0.00  0.00    +0.000 C 
ENDBRANCH  20  21
ENDBRANCH  13  15
ENDBRANCH   1   6
BRANCH   1  29
ATOM     23  O   UNL     1     111.101 129.240 137.373  0.00  0.00    +0.000 OA
ATOM     24  O   UNL     1     108.715 129.880 137.226  0.00  0.00    +0.000 OA
ATOM     25  C   UNL     1     109.510 129.667 137.275  0.00  0.00    +0.000 C 
ATOM     26  C   UNL     1     109.926 129.785 137.978  0.00  0.00    +0.000 C 
ATOM     27  C   UNL     1     109.889 129.335 136.622  0.00  0.00    +0.000 C 
ATOM     28  C   UNL     1     110.722 129.572 138.027  0.00  0.00    +0.000 C 
ATOM     29  C   UNL     1     110.686 129.122 136.671  0.00  0.00    +0.000 C 
BRANCH  28  32
ATOM     30  O   UNL     1     111.336 129.046 139.205  0.00  0.00    +0.000 OA
ATOM     31  O   UNL     1     111.504 130.199 139.265  0.00  0.00    +0.000 OA
ATOM     32  C   UNL     1     111.138 129.690 138.729  0.00  0.00    +0.000 C 
ENDBRANCH  28  32
BRANCH  26  33
ATOM     33  O   UNL     1     109.547 130.117 138.631  0.00  0.00    +0.000 OA
BRANCH  33  34
ATOM     34  S   UNL     1     108.932 130.566 138.948  0.00  0.00    +0.000 S 
ATOM     35  O   UNL     1     109.262 131.248 138.623  0.00  0.00    +0.000 OA
ATOM     36  O   UNL     1     108.317 131.014 139.266  0.00  0.00    +0.000 OA
ATOM     37  O   UNL     1     108.602 129.883 139.274  0.00  0.00    +0.000 OA
ENDBRANCH  33  34
ENDBRANCH  26  33
BRANCH  27  38
ATOM     38  O   UNL     1     109.473 129.216 135.919  0.00  0.00    +0.000 OA
BRANCH  38  39
ATOM     39  S   UNL     1     108.771 128.783 135.924  0.00  0.00    +0.000 S 
ATOM     40  O   UNL     1     108.069 128.350 135.929  0.00  0.00    +0.000 OA
ATOM     41  O   UNL     1     108.356 129.453 135.680  0.00  0.00    +0.000 OA
ATOM     42  O   UNL     1     109.186 128.113 136.168  0.00  0.00    +0.000 OA
ENDBRANCH  38  39
ENDBRANCH  27  38
ENDBRANCH   1  29
TORSDOF 9
ENDMDL
MODEL 8
REMARK VINA RESULT:      -8.9      2.348      4.823
REMARK  Name = 44258587
REMARK  9 active torsions:
REMARK  status: ('A' for Active; 'I' for Inactive)
REMARK    1  A    between atoms: S_1  and  O_4
REMARK    2  A    between atoms: S_2  and  O_5
REMARK    3  A    between atoms: O_4  and  C_22
REMARK    4  A    between atoms: O_5  and  C_23
REMARK    5  A    between atoms: O_6  and  C_25
REMARK    6  A    between atoms: O_6  and  C_27
REMARK    7  A    between atoms: O_20  and  C_41
REMARK    8  A    between atoms: C_24  and  C_26
REMARK    9  A    between atoms: C_34  and  C_36
REMARK                            x       y       z     vdW  Elec       q    Type
REMARK                         _______ _______ _______ _____ _____    ______ ____
ROOT
ATOM      1  O   UNL     1     110.278 130.072 138.109  0.00  0.00    +0.000 OA
ENDROOT
BRANCH   1   6
ATOM      2  O   UNL     1     111.598 129.246 137.545  0.00  0.00    +0.000 OA
ATOM      3  O   UNL     1     109.187 129.356 139.119  0.00  0.00    +0.000 OA
ATOM      4  O   UNL     1     110.706 126.936 139.044  0.00  0.00    +0.000 OA
ATOM      5  O   UNL     1     111.918 126.840 138.268  0.00  0.00    +0.000 OA
ATOM      6  C   UNL     1     110.385 129.288 138.342  0.00  0.00    +0.000 A 
ATOM      7  C   UNL     1     111.037 128.862 138.071  0.00  0.00    +0.000 A 
ATOM      8  C   UNL     1     109.839 128.930 138.848  0.00  0.00    +0.000 A 
ATOM      9  C   UNL     1     111.144 128.079 138.305  0.00  0.00    +0.000 A 
ATOM     10  C   UNL     1     109.946 128.147 139.082  0.00  0.00    +0.000 A 
ATOM     11  C   UNL     1     110.599 127.720 138.810  0.00  0.00    +0.000 A 
ATOM     12  C   UNL     1     111.819 127.623 138.029  0.00  0.00    +0.000 A 
ATOM     13  C   UNL     1     112.279 128.808 137.259  0.00  0.00    +0.000 A 
ATOM     14  C   UNL     1     112.390 127.991 137.503  0.00  0.00    +0.000 A 
BRANCH  13  15
ATOM     15  C   UNL     1     112.823 129.168 136.754  0.00  0.00    +0.000 A 
ATOM     16  C   UNL     1     113.435 129.626 137.065  0.00  0.00    +0.000 A 
ATOM     17  C   UNL     1     112.754 129.071 135.937  0.00  0.00    +0.000 A 
ATOM     18  C   UNL     1     113.978 129.986 136.560  0.00  0.00    +0.000 A 
ATOM     19  C   UNL     1     113.298 129.431 135.432  0.00  0.00    +0.000 A 
ATOM     20  C   UNL     1     113.910 129.889 135.744  0.00  0.00    +0.000 A 
BRANCH  20  21
ATOM     21  O   UNL     1     114.454 130.249 135.237  0.00  0.00    +0.000 OA
ATOM     22  C   UNL     1     115.044 130.736 135.546  0.00  0.00    +0.000 C 
ENDBRANCH  20  21
ENDBRANCH  13  15
ENDBRANCH   1   6
BRANCH   1  29
ATOM     23  O   UNL     1     109.448 129.681 137.013  0.00  0.00    +0.000 OA
ATOM     24  O   UNL     1     108.534 131.977 136.885  0.00  0.00    +0.000 OA
ATOM     25  C   UNL     1     108.839 131.211 136.928  0.00  0.00    +0.000 C 
ATOM     26  C   UNL     1     108.576 130.633 136.401  0.00  0.00    +0.000 C 
ATOM     27  C   UNL     1     109.406 131.025 137.496  0.00  0.00    +0.000 C 
ATOM     28  C   UNL     1     108.881 129.867 136.443  0.00  0.00    +0.000 C 
ATOM     29  C   UNL     1     109.711 130.258 137.539  0.00  0.00    +0.000 C 
BRANCH  28  32
ATOM     30  O   UNL     1     109.110 129.036 135.305  0.00  0.00    +0.000 OA
ATOM     31  O   UNL     1     108.032 128.768 135.663  0.00  0.00    +0.000 OA
ATOM     32  C   UNL     1     108.619 129.289 135.917  0.00  0.00    +0.000 C 
ENDBRANCH  28  32
BRANCH  26  33
ATOM     33  O   UNL     1     108.009 130.820 135.832  0.00  0.00    +0.000 OA
BRANCH  33  34
ATOM     34  S   UNL     1     107.487 131.363 135.494  0.00  0.00    +0.000 S 
ATOM     35  O   UNL     1     106.912 131.153 136.047  0.00  0.00    +0.000 OA
ATOM     36  O   UNL     1     106.966 131.905 135.157  0.00  0.00    +0.000 OA
ATOM     37  O   UNL     1     108.063 131.572 134.942  0.00  0.00    +0.000 OA
ENDBRANCH  33  34
ENDBRANCH  26  33
BRANCH  27  38
ATOM     38  O   UNL     1     109.668 131.603 138.023  0.00  0.00    +0.000 OA
BRANCH  38  39
ATOM     39  S   UNL     1     109.931 132.331 137.738  0.00  0.00    +0.000 S 
ATOM     40  O   UNL     1     110.194 133.060 137.453  0.00  0.00    +0.000 OA
ATOM     41  O   UNL     1     109.303 132.707 138.119  0.00  0.00    +0.000 OA
ATOM     42  O   UNL     1     110.560 131.956 137.358  0.00  0.00    +0.000 OA
ENDBRANCH  38  39
ENDBRANCH  27  38
ENDBRANCH   1  29
TORSDOF 9
ENDMDL
MODEL 9
REMARK VINA RESULT:      -8.8      2.358      2.957
REMARK  Name = 44258587
REMARK  9 active torsions:
REMARK  status: ('A' for Active; 'I' for Inactive)
REMARK    1  A    between atoms: S_1  and  O_4
REMARK    2  A    between atoms: S_2  and  O_5
REMARK    3  A    between atoms: O_4  and  C_22
REMARK    4  A    between atoms: O_5  and  C_23
REMARK    5  A    between atoms: O_6  and  C_25
REMARK    6  A    between atoms: O_6  and  C_27
REMARK    7  A    between atoms: O_20  and  C_41
REMARK    8  A    between atoms: C_24  and  C_26
REMARK    9  A    between atoms: C_34  and  C_36
REMARK                            x       y       z     vdW  Elec       q    Type
REMARK                         _______ _______ _______ _____ _____    ______ ____
ROOT
ATOM      1  O   UNL     1     112.111 128.994 138.290  0.00  0.00    +0.000 OA
ENDROOT
BRANCH   1   6
ATOM      2  O   UNL     1     112.175 127.345 138.159  0.00  0.00    +0.000 OA
ATOM      3  O   UNL     1     110.776 129.755 138.893  0.00  0.00    +0.000 OA
ATOM      4  O   UNL     1     109.501 127.223 139.261  0.00  0.00    +0.000 OA
ATOM      5  O   UNL     1     110.167 125.994 138.907  0.00  0.00    +0.000 OA
ATOM      6  C   UNL     1     111.459 128.552 138.533  0.00  0.00    +0.000 A 
ATOM      7  C   UNL     1     111.473 127.729 138.475  0.00  0.00    +0.000 A 
ATOM      8  C   UNL     1     110.790 128.932 138.835  0.00  0.00    +0.000 A 
ATOM      9  C   UNL     1     110.821 127.287 138.717  0.00  0.00    +0.000 A 
ATOM     10  C   UNL     1     110.139 128.490 139.077  0.00  0.00    +0.000 A 
ATOM     11  C   UNL     1     110.154 127.666 139.019  0.00  0.00    +0.000 A 
ATOM     12  C   UNL     1     110.824 126.428 138.662  0.00  0.00    +0.000 A 
ATOM     13  C   UNL     1     112.196 126.489 138.096  0.00  0.00    +0.000 A 
ATOM     14  C   UNL     1     111.516 126.027 138.349  0.00  0.00    +0.000 A 
BRANCH  13  15
ATOM     15  C   UNL     1     112.865 126.111 137.794  0.00  0.00    +0.000 A 
ATOM     16  C   UNL     1     112.923 125.959 136.985  0.00  0.00    +0.000 A 
ATOM     17  C   UNL     1     113.476 125.886 138.301  0.00  0.00    +0.000 A 
ATOM     18  C   UNL     1     113.592 125.581 136.684  0.00  0.00    +0.000 A 
ATOM     19  C   UNL     1     114.144 125.509 138.000  0.00  0.00    +0.000 A 
ATOM     20  C   UNL     1     114.203 125.356 137.191  0.00  0.00    +0.000 A 
BRANCH  20  21
ATOM     21  O   UNL     1     114.872 124.979 136.890  0.00  0.00    +0.000 OA
ATOM     22  C   UNL     1     115.186 125.213 136.164  0.00  0.00    +0.000 C 
ENDBRANCH  20  21
ENDBRANCH  13  15
ENDBRANCH   1   6
BRANCH   1  29
ATOM     23  O   UNL     1     112.665 128.988 139.608  0.00  0.00    +0.000 OA
ATOM     24  O   UNL     1     114.076 130.936 139.024  0.00  0.00    +0.000 OA
ATOM     25  C   UNL     1     113.606 130.287 139.218  0.00  0.00    +0.000 C 
ATOM     26  C   UNL     1     113.648 129.959 139.975  0.00  0.00    +0.000 C 
ATOM     27  C   UNL     1     113.094 129.966 138.657  0.00  0.00    +0.000 C 
ATOM     28  C   UNL     1     113.177 129.309 140.169  0.00  0.00    +0.000 C 
ATOM     29  C   UNL     1     112.623 129.316 138.852  0.00  0.00    +0.000 C 
BRANCH  28  32
ATOM     30  O   UNL     1     113.611 128.265 141.042  0.00  0.00    +0.000 OA
ATOM     31  O   UNL     1     113.042 129.017 141.730  0.00  0.00    +0.000 OA
ATOM     32  C   UNL     1     113.219 128.982 140.925  0.00  0.00    +0.000 C 
ENDBRANCH  28  32
BRANCH  26  33
ATOM     33  O   UNL     1     114.160 130.280 140.535  0.00  0.00    +0.000 OA
BRANCH  33  34
ATOM     34  S   UNL     1     114.659 130.889 140.782  0.00  0.00    +0.000 S 
ATOM     35  O   UNL     1     115.314 130.451 140.537  0.00  0.00    +0.000 OA
ATOM     36  O   UNL     1     115.159 131.498 141.028  0.00  0.00    +0.000 OA
ATOM     37  O   UNL     1     114.005 131.327 141.026  0.00  0.00    +0.000 OA
ENDBRANCH  33  34
ENDBRANCH  26  33
BRANCH  27  38
ATOM     38  O   UNL     1     113.052 130.293 137.901  0.00  0.00    +0.000 OA
BRANCH  38  39
ATOM     39  S   UNL     1     113.741 130.405 137.461  0.00  0.00    +0.000 S 
ATOM     40  O   UNL     1     114.430 130.516 137.021  0.00  0.00    +0.000 OA
ATOM     41  O   UNL     1     113.629 131.221 137.493  0.00  0.00    +0.000 OA
ATOM     42  O   UNL     1     113.853 129.588 137.430  0.00  0.00    +0.000 OA
ENDBRANCH  38  39
ENDBRANCH  27  38
ENDBRANCH   1  29
TORSDOF 9
ENDMDL
MODEL 10
REMARK VINA RESULT:      -8.8      2.903      5.147
REMARK  Name = 44258587
REMARK  9 active torsions:
REMARK  status: ('A' for Active; 'I' for Inactive)
REMARK    1  A    between atoms: S_1  and  O_4
REMARK    2  A    between atoms: S_2  and  O_5
REMARK    3  A    between atoms: O_4  and  C_22
REMARK    4  A    between atoms: O_5  and  C_23
REMARK    5  A    between atoms: O_6  and  C_25
REMARK    6  A    between atoms: O_6  and  C_27
REMARK    7  A    between atoms: O_20  and  C_41
REMARK    8  A    between atoms: C_24  and  C_26
REMARK    9  A    between atoms: C_34  and  C_36
REMARK                            x       y       z     vdW  Elec       q    Type
REMARK                         _______ _______ _______ _____ _____    ______ ____
ROOT
ATOM      1  O   UNL     1     109.834 129.410 137.862  0.00  0.00    +0.000 OA
ENDROOT
BRANCH   1   6
ATOM      2  O   UNL     1     111.400 129.894 138.092  0.00  0.00    +0.000 OA
ATOM      3  O   UNL     1     108.773 129.313 139.123  0.00  0.00    +0.000 OA
ATOM      4  O   UNL     1     110.821 130.189 140.913  0.00  0.00    +0.000 OA
ATOM      5  O   UNL     1     112.149 130.490 140.438  0.00  0.00    +0.000 OA
ATOM      6  C   UNL     1     110.080 129.605 138.625  0.00  0.00    +0.000 A 
ATOM      7  C   UNL     1     110.857 129.848 138.758  0.00  0.00    +0.000 A 
ATOM      8  C   UNL     1     109.550 129.556 139.256  0.00  0.00    +0.000 A 
ATOM      9  C   UNL     1     111.104 130.042 139.520  0.00  0.00    +0.000 A 
ATOM     10  C   UNL     1     109.796 129.751 140.017  0.00  0.00    +0.000 A 
ATOM     11  C   UNL     1     110.574 129.994 140.150  0.00  0.00    +0.000 A 
ATOM     12  C   UNL     1     111.911 130.297 139.671  0.00  0.00    +0.000 A 
ATOM     13  C   UNL     1     112.211 130.147 138.224  0.00  0.00    +0.000 A 
ATOM     14  C   UNL     1     112.468 130.350 139.019  0.00  0.00    +0.000 A 
BRANCH  13  15
ATOM     15  C   UNL     1     112.739 130.194 137.592  0.00  0.00    +0.000 A 
ATOM     16  C   UNL     1     112.902 130.925 137.245  0.00  0.00    +0.000 A 
ATOM     17  C   UNL     1     113.104 129.511 137.308  0.00  0.00    +0.000 A 
ATOM     18  C   UNL     1     113.430 130.972 136.613  0.00  0.00    +0.000 A 
ATOM     19  C   UNL     1     113.632 129.559 136.676  0.00  0.00    +0.000 A 
ATOM     20  C   UNL     1     113.795 130.289 136.328  0.00  0.00    +0.000 A 
BRANCH  20  21
ATOM     21  O   UNL     1     114.324 130.336 135.696  0.00  0.00    +0.000 OA
ATOM     22  C   UNL     1     115.117 130.514 135.835  0.00  0.00    +0.000 C 
ENDBRANCH  20  21
ENDBRANCH  13  15
ENDBRANCH   1   6
BRANCH   1  29
ATOM     23  O   UNL     1     109.422 130.753 137.598  0.00  0.00    +0.000 OA
ATOM     24  O   UNL     1     107.976 129.948 135.758  0.00  0.00    +0.000 OA
ATOM     25  C   UNL     1     108.458 130.216 136.371  0.00  0.00    +0.000 C 
ATOM     26  C   UNL     1     108.493 131.022 136.546  0.00  0.00    +0.000 C 
ATOM     27  C   UNL     1     108.905 129.679 136.809  0.00  0.00    +0.000 C 
ATOM     28  C   UNL     1     108.975 131.291 137.160  0.00  0.00    +0.000 C 
ATOM     29  C   UNL     1     109.387 129.948 137.424  0.00  0.00    +0.000 C 
BRANCH  28  32
ATOM     30  O   UNL     1     108.585 132.397 137.974  0.00  0.00    +0.000 OA
ATOM     31  O   UNL     1     109.296 132.851 137.167  0.00  0.00    +0.000 OA
ATOM     32  C   UNL     1     109.010 132.095 137.335  0.00  0.00    +0.000 C 
ENDBRANCH  28  32
BRANCH  26  33
ATOM     33  O   UNL     1     108.047 131.559 136.107  0.00  0.00    +0.000 OA
BRANCH  33  34
ATOM     34  S   UNL     1     107.547 131.722 135.471  0.00  0.00    +0.000 S 
ATOM     35  O   UNL     1     106.891 131.558 135.944  0.00  0.00    +0.000 OA
ATOM     36  O   UNL     1     107.048 131.884 134.835  0.00  0.00    +0.000 OA
ATOM     37  O   UNL     1     108.203 131.885 134.998  0.00  0.00    +0.000 OA
ENDBRANCH  33  34
ENDBRANCH  26  33
BRANCH  27  38
ATOM     38  O   UNL     1     108.870 128.873 136.635  0.00  0.00    +0.000 OA
BRANCH  38  39
ATOM     39  S   UNL     1     109.000 128.613 135.863  0.00  0.00    +0.000 S 
ATOM     40  O   UNL     1     109.130 128.353 135.091  0.00  0.00    +0.000 OA
ATOM     41  O   UNL     1     108.216 128.360 135.816  0.00  0.00    +0.000 OA
ATOM     42  O   UNL     1     109.784 128.867 135.910  0.00  0.00    +0.000 OA
ENDBRANCH  38  39
ENDBRANCH  27  38
ENDBRANCH   1  29
TORSDOF 9
ENDMDL
