MODEL 1
REMARK VINA RESULT:     -10.0      0.000      0.000
REMARK  Name = 131752667
REMARK  7 active torsions:
REMARK  status: ('A' for Active; 'I' for Inactive)
REMARK    1  A    between atoms: O_3  and  C_20
REMARK    2  A    between atoms: O_3  and  C_25
REMARK    3  A    between atoms: O_6  and  C_23
REMARK    4  A    between atoms: O_6  and  C_27
REMARK    5  A    between atoms: C_16  and  C_25
REMARK    6  A    between atoms: C_24  and  C_26
REMARK    7  A    between atoms: C_28  and  C_32
REMARK                            x       y       z     vdW  Elec       q    Type
REMARK                         _______ _______ _______ _____ _____    ______ ____
ROOT
ATOM      1  O   UNL     1     113.066 127.419 136.664  0.00  0.00    +0.000 OA
ENDROOT
BRANCH   1   6
ATOM      2  O   UNL     1     111.927 125.688 135.978  0.00  0.00    +0.000 OA
ATOM      3  O   UNL     1     111.747 128.157 136.002  0.00  0.00    +0.000 OA
ATOM      4  O   UNL     1     110.474 128.099 135.326  0.00  0.00    +0.000 OA
ATOM      5  O   UNL     1     109.362 125.494 134.612  0.00  0.00    +0.000 OA
ATOM      6  C   UNL     1     112.466 126.965 136.325  0.00  0.00    +0.000 A 
ATOM      7  C   UNL     1     112.526 126.142 136.317  0.00  0.00    +0.000 A 
ATOM      8  C   UNL     1     111.807 127.333 135.994  0.00  0.00    +0.000 A 
ATOM      9  C   UNL     1     111.207 126.879 135.655  0.00  0.00    +0.000 A 
ATOM     10  C   UNL     1     111.267 126.057 135.647  0.00  0.00    +0.000 A 
ATOM     11  C   UNL     1     110.525 127.276 135.313  0.00  0.00    +0.000 A 
ATOM     12  C   UNL     1     110.650 125.573 135.297  0.00  0.00    +0.000 A 
ATOM     13  C   UNL     1     109.897 126.809 134.959  0.00  0.00    +0.000 A 
ATOM     14  C   UNL     1     109.960 125.951 134.951  0.00  0.00    +0.000 A 
BRANCH   7  16
ATOM     15  O   UNL     1     115.167 124.670 137.641  0.00  0.00    +0.000 OA
ATOM     16  C   UNL     1     113.186 125.773 136.649  0.00  0.00    +0.000 A 
ATOM     17  C   UNL     1     113.116 125.364 137.361  0.00  0.00    +0.000 A 
ATOM     18  C   UNL     1     113.916 125.815 136.266  0.00  0.00    +0.000 A 
ATOM     19  C   UNL     1     113.776 124.996 137.692  0.00  0.00    +0.000 A 
ATOM     20  C   UNL     1     114.576 125.447 136.598  0.00  0.00    +0.000 A 
ATOM     21  C   UNL     1     114.506 125.037 137.310  0.00  0.00    +0.000 A 
ENDBRANCH   7  16
ENDBRANCH   1   6
BRANCH   1  30
ATOM     22  O   UNL     1     112.351 127.737 137.860  0.00  0.00    +0.000 OA
ATOM     23  O   UNL     1     112.359 129.537 139.094  0.00  0.00    +0.000 OA
ATOM     24  O   UNL     1     113.435 129.961 137.917  0.00  0.00    +0.000 OA
ATOM     25  O   UNL     1     113.788 128.902 136.703  0.00  0.00    +0.000 OA
ATOM     26  C   UNL     1     112.174 128.266 138.467  0.00  0.00    +0.000 C 
ATOM     27  C   UNL     1     112.535 129.007 138.486  0.00  0.00    +0.000 C 
ATOM     28  C   UNL     1     113.073 129.220 137.898  0.00  0.00    +0.000 C 
ATOM     29  C   UNL     1     113.250 128.690 137.291  0.00  0.00    +0.000 C 
ATOM     30  C   UNL     1     112.889 127.948 137.272  0.00  0.00    +0.000 C 
BRANCH  26  31
ATOM     31  C   UNL     1     111.636 128.054 139.056  0.00  0.00    +0.000 C 
BRANCH  31  32
ATOM     32  O   UNL     1     111.722 127.338 139.456  0.00  0.00    +0.000 OA
BRANCH  32  36
ATOM     33  O   UNL     1     110.359 127.328 140.006  0.00  0.00    +0.000 OA
ATOM     34  O   UNL     1     111.985 126.223 140.837  0.00  0.00    +0.000 OA
ATOM     35  O   UNL     1     110.424 126.034 141.702  0.00  0.00    +0.000 OA
ATOM     36  C   UNL     1     111.150 127.098 140.000  0.00  0.00    +0.000 C 
ATOM     37  C   UNL     1     111.271 126.585 140.636  0.00  0.00    +0.000 C 
ATOM     38  C   UNL     1     110.554 126.498 141.033  0.00  0.00    +0.000 C 
ATOM     39  C   UNL     1     109.990 126.957 140.644  0.00  0.00    +0.000 C 
BRANCH  39  41
ATOM     40  O   UNL     1     108.644 127.292 140.301  0.00  0.00    +0.000 OA
ATOM     41  C   UNL     1     109.196 127.032 140.857  0.00  0.00    +0.000 C 
ENDBRANCH  39  41
ENDBRANCH  32  36
ENDBRANCH  31  32
ENDBRANCH  26  31
ENDBRANCH   1  30
TORSDOF 7
ENDMDL
MODEL 2
REMARK VINA RESULT:      -9.8      1.355      3.096
REMARK  Name = 131752667
REMARK  7 active torsions:
REMARK  status: ('A' for Active; 'I' for Inactive)
REMARK    1  A    between atoms: O_3  and  C_20
REMARK    2  A    between atoms: O_3  and  C_25
REMARK    3  A    between atoms: O_6  and  C_23
REMARK    4  A    between atoms: O_6  and  C_27
REMARK    5  A    between atoms: C_16  and  C_25
REMARK    6  A    between atoms: C_24  and  C_26
REMARK    7  A    between atoms: C_28  and  C_32
REMARK                            x       y       z     vdW  Elec       q    Type
REMARK                         _______ _______ _______ _____ _____    ______ ____
ROOT
ATOM      1  O   UNL     1     111.820 127.215 135.949  0.00  0.00    +0.000 OA
ENDROOT
BRANCH   1   6
ATOM      2  O   UNL     1     110.986 125.263 136.458  0.00  0.00    +0.000 OA
ATOM      3  O   UNL     1     113.198 126.340 136.189  0.00  0.00    +0.000 OA
ATOM      4  O   UNL     1     113.871 125.107 136.519  0.00  0.00    +0.000 OA
ATOM      5  O   UNL     1     112.275 122.739 137.132  0.00  0.00    +0.000 OA
ATOM      6  C   UNL     1     111.772 126.419 136.159  0.00  0.00    +0.000 A 
ATOM      7  C   UNL     1     111.034 126.059 136.248  0.00  0.00    +0.000 A 
ATOM      8  C   UNL     1     112.460 125.981 136.279  0.00  0.00    +0.000 A 
ATOM      9  C   UNL     1     112.412 125.184 136.488  0.00  0.00    +0.000 A 
ATOM     10  C   UNL     1     111.676 124.826 136.578  0.00  0.00    +0.000 A 
ATOM     11  C   UNL     1     113.138 124.740 136.611  0.00  0.00    +0.000 A 
ATOM     12  C   UNL     1     111.611 123.997 136.796  0.00  0.00    +0.000 A 
ATOM     13  C   UNL     1     113.095 123.910 136.829  0.00  0.00    +0.000 A 
ATOM     14  C   UNL     1     112.326 123.536 136.922  0.00  0.00    +0.000 A 
BRANCH   7  16
ATOM     15  O   UNL     1     108.278 127.811 135.771  0.00  0.00    +0.000 OA
ATOM     16  C   UNL     1     110.345 126.497 136.128  0.00  0.00    +0.000 A 
ATOM     17  C   UNL     1     110.118 126.709 135.364  0.00  0.00    +0.000 A 
ATOM     18  C   UNL     1     109.883 126.723 136.774  0.00  0.00    +0.000 A 
ATOM     19  C   UNL     1     109.429 127.147 135.245  0.00  0.00    +0.000 A 
ATOM     20  C   UNL     1     109.194 127.161 136.654  0.00  0.00    +0.000 A 
ATOM     21  C   UNL     1     108.967 127.373 135.890  0.00  0.00    +0.000 A 
ENDBRANCH   7  16
ENDBRANCH   1   6
BRANCH   1  30
ATOM     22  O   UNL     1     112.200 127.656 137.254  0.00  0.00    +0.000 OA
ATOM     23  O   UNL     1     113.439 129.337 137.890  0.00  0.00    +0.000 OA
ATOM     24  O   UNL     1     113.488 129.516 136.250  0.00  0.00    +0.000 OA
ATOM     25  O   UNL     1     112.679 128.455 135.280  0.00  0.00    +0.000 OA
ATOM     26  C   UNL     1     112.604 128.186 137.739  0.00  0.00    +0.000 C 
ATOM     27  C   UNL     1     113.034 128.806 137.404  0.00  0.00    +0.000 C 
ATOM     28  C   UNL     1     113.059 128.896 136.585  0.00  0.00    +0.000 C 
ATOM     29  C   UNL     1     112.654 128.365 136.099  0.00  0.00    +0.000 C 
ATOM     30  C   UNL     1     112.224 127.745 136.434  0.00  0.00    +0.000 C 
BRANCH  26  31
ATOM     31  C   UNL     1     112.580 128.097 138.559  0.00  0.00    +0.000 C 
BRANCH  31  32
ATOM     32  O   UNL     1     112.066 127.551 138.900  0.00  0.00    +0.000 OA
BRANCH  32  36
ATOM     33  O   UNL     1     112.281 127.988 140.287  0.00  0.00    +0.000 OA
ATOM     34  O   UNL     1     111.622 126.032 139.747  0.00  0.00    +0.000 OA
ATOM     35  O   UNL     1     111.805 126.306 141.511  0.00  0.00    +0.000 OA
ATOM     36  C   UNL     1     112.071 127.432 139.717  0.00  0.00    +0.000 C 
ATOM     37  C   UNL     1     111.867 126.733 140.106  0.00  0.00    +0.000 C 
ATOM     38  C   UNL     1     111.951 126.859 140.916  0.00  0.00    +0.000 C 
ATOM     39  C   UNL     1     112.207 127.635 141.028  0.00  0.00    +0.000 C 
BRANCH  39  41
ATOM     40  O   UNL     1     112.666 128.761 141.779  0.00  0.00    +0.000 OA
ATOM     41  C   UNL     1     112.362 127.994 141.755  0.00  0.00    +0.000 C 
ENDBRANCH  39  41
ENDBRANCH  32  36
ENDBRANCH  31  32
ENDBRANCH  26  31
ENDBRANCH   1  30
TORSDOF 7
ENDMDL
MODEL 3
REMARK VINA RESULT:      -9.7      1.392      4.230
REMARK  Name = 131752667
REMARK  7 active torsions:
REMARK  status: ('A' for Active; 'I' for Inactive)
REMARK    1  A    between atoms: O_3  and  C_20
REMARK    2  A    between atoms: O_3  and  C_25
REMARK    3  A    between atoms: O_6  and  C_23
REMARK    4  A    between atoms: O_6  and  C_27
REMARK    5  A    between atoms: C_16  and  C_25
REMARK    6  A    between atoms: C_24  and  C_26
REMARK    7  A    between atoms: C_28  and  C_32
REMARK                            x       y       z     vdW  Elec       q    Type
REMARK                         _______ _______ _______ _____ _____    ______ ____
ROOT
ATOM      1  O   UNL     1     112.145 125.330 137.162  0.00  0.00    +0.000 OA
ENDROOT
BRANCH   1   6
ATOM      2  O   UNL     1     113.400 126.177 138.735  0.00  0.00    +0.000 OA
ATOM      3  O   UNL     1     111.009 125.710 138.297  0.00  0.00    +0.000 OA
ATOM      4  O   UNL     1     110.639 126.246 139.584  0.00  0.00    +0.000 OA
ATOM      5  O   UNL     1     112.729 127.272 141.348  0.00  0.00    +0.000 OA
ATOM      6  C   UNL     1     112.374 125.676 137.875  0.00  0.00    +0.000 A 
ATOM      7  C   UNL     1     113.171 125.831 138.021  0.00  0.00    +0.000 A 
ATOM      8  C   UNL     1     111.806 125.866 138.443  0.00  0.00    +0.000 A 
ATOM      9  C   UNL     1     112.035 126.212 139.156  0.00  0.00    +0.000 A 
ATOM     10  C   UNL     1     112.832 126.367 139.302  0.00  0.00    +0.000 A 
ATOM     11  C   UNL     1     111.434 126.405 139.739  0.00  0.00    +0.000 A 
ATOM     12  C   UNL     1     113.083 126.726 140.040  0.00  0.00    +0.000 A 
ATOM     13  C   UNL     1     111.666 126.765 140.484  0.00  0.00    +0.000 A 
ATOM     14  C   UNL     1     112.497 126.927 140.636  0.00  0.00    +0.000 A 
BRANCH   7  16
ATOM     15  O   UNL     1     115.441 125.072 135.750  0.00  0.00    +0.000 OA
ATOM     16  C   UNL     1     113.739 125.641 137.454  0.00  0.00    +0.000 A 
ATOM     17  C   UNL     1     113.979 124.858 137.357  0.00  0.00    +0.000 A 
ATOM     18  C   UNL     1     114.065 126.235 136.982  0.00  0.00    +0.000 A 
ATOM     19  C   UNL     1     114.547 124.669 136.789  0.00  0.00    +0.000 A 
ATOM     20  C   UNL     1     114.633 126.044 136.415  0.00  0.00    +0.000 A 
ATOM     21  C   UNL     1     114.874 125.261 136.318  0.00  0.00    +0.000 A 
ENDBRANCH   7  16
ENDBRANCH   1   6
BRANCH   1  30
ATOM     22  O   UNL     1     111.577 126.549 136.678  0.00  0.00    +0.000 OA
ATOM     23  O   UNL     1     110.051 126.911 135.160  0.00  0.00    +0.000 OA
ATOM     24  O   UNL     1     110.139 125.263 135.127  0.00  0.00    +0.000 OA
ATOM     25  O   UNL     1     111.186 124.473 136.128  0.00  0.00    +0.000 OA
ATOM     26  C   UNL     1     111.054 126.944 136.178  0.00  0.00    +0.000 C 
ATOM     27  C   UNL     1     110.575 126.515 135.661  0.00  0.00    +0.000 C 
ATOM     28  C   UNL     1     110.618 125.692 135.644  0.00  0.00    +0.000 C 
ATOM     29  C   UNL     1     111.142 125.297 136.145  0.00  0.00    +0.000 C 
ATOM     30  C   UNL     1     111.622 125.725 136.662  0.00  0.00    +0.000 C 
BRANCH  26  31
ATOM     31  C   UNL     1     111.009 127.768 136.194  0.00  0.00    +0.000 C 
BRANCH  31  32
ATOM     32  O   UNL     1     111.690 128.220 136.087  0.00  0.00    +0.000 OA
BRANCH  32  36
ATOM     33  O   UNL     1     111.482 129.141 137.215  0.00  0.00    +0.000 OA
ATOM     34  O   UNL     1     112.495 129.677 135.414  0.00  0.00    +0.000 OA
ATOM     35  O   UNL     1     112.377 130.989 136.632  0.00  0.00    +0.000 OA
ATOM     36  C   UNL     1     111.764 128.951 136.464  0.00  0.00    +0.000 C 
ATOM     37  C   UNL     1     112.134 129.620 136.154  0.00  0.00    +0.000 C 
ATOM     38  C   UNL     1     112.080 130.223 136.714  0.00  0.00    +0.000 C 
ATOM     39  C   UNL     1     111.677 129.927 137.370  0.00  0.00    +0.000 C 
BRANCH  39  41
ATOM     40  O   UNL     1     111.391 129.939 138.770  0.00  0.00    +0.000 OA
ATOM     41  C   UNL     1     111.499 130.344 138.059  0.00  0.00    +0.000 C 
ENDBRANCH  39  41
ENDBRANCH  32  36
ENDBRANCH  31  32
ENDBRANCH  26  31
ENDBRANCH   1  30
TORSDOF 7
ENDMDL
MODEL 4
REMARK VINA RESULT:      -9.6      1.807      4.447
REMARK  Name = 131752667
REMARK  7 active torsions:
REMARK  status: ('A' for Active; 'I' for Inactive)
REMARK    1  A    between atoms: O_3  and  C_20
REMARK    2  A    between atoms: O_3  and  C_25
REMARK    3  A    between atoms: O_6  and  C_23
REMARK    4  A    between atoms: O_6  and  C_27
REMARK    5  A    between atoms: C_16  and  C_25
REMARK    6  A    between atoms: C_24  and  C_26
REMARK    7  A    between atoms: C_28  and  C_32
REMARK                            x       y       z     vdW  Elec       q    Type
REMARK                         _______ _______ _______ _____ _____    ______ ____
ROOT
ATOM      1  O   UNL     1     111.813 126.100 139.170  0.00  0.00    +0.000 OA
ENDROOT
BRANCH   1   6
ATOM      2  O   UNL     1     113.830 126.203 138.341  0.00  0.00    +0.000 OA
ATOM      3  O   UNL     1     111.710 124.984 137.959  0.00  0.00    +0.000 OA
ATOM      4  O   UNL     1     112.294 124.254 136.860  0.00  0.00    +0.000 OA
ATOM      5  O   UNL     1     115.077 124.766 136.136  0.00  0.00    +0.000 OA
ATOM      6  C   UNL     1     112.468 125.948 138.692  0.00  0.00    +0.000 A 
ATOM      7  C   UNL     1     113.175 126.354 138.819  0.00  0.00    +0.000 A 
ATOM      8  C   UNL     1     112.417 125.390 138.086  0.00  0.00    +0.000 A 
ATOM      9  C   UNL     1     113.072 125.239 137.608  0.00  0.00    +0.000 A 
ATOM     10  C   UNL     1     113.778 125.645 137.736  0.00  0.00    +0.000 A 
ATOM     11  C   UNL     1     113.005 124.655 136.980  0.00  0.00    +0.000 A 
ATOM     12  C   UNL     1     114.467 125.496 137.245  0.00  0.00    +0.000 A 
ATOM     13  C   UNL     1     113.684 124.493 136.479  0.00  0.00    +0.000 A 
ATOM     14  C   UNL     1     114.420 124.916 136.612  0.00  0.00    +0.000 A 
BRANCH   7  16
ATOM     15  O   UNL     1     113.380 128.587 141.241  0.00  0.00    +0.000 OA
ATOM     16  C   UNL     1     113.226 126.912 139.425  0.00  0.00    +0.000 A 
ATOM     17  C   UNL     1     113.271 126.665 140.211  0.00  0.00    +0.000 A 
ATOM     18  C   UNL     1     113.233 127.717 139.244  0.00  0.00    +0.000 A 
ATOM     19  C   UNL     1     113.322 127.224 140.816  0.00  0.00    +0.000 A 
ATOM     20  C   UNL     1     113.284 128.275 139.850  0.00  0.00    +0.000 A 
ATOM     21  C   UNL     1     113.329 128.028 140.636  0.00  0.00    +0.000 A 
ENDBRANCH   7  16
ENDBRANCH   1   6
BRANCH   1  30
ATOM     22  O   UNL     1     111.109 126.826 138.161  0.00  0.00    +0.000 OA
ATOM     23  O   UNL     1     108.969 127.075 137.810  0.00  0.00    +0.000 OA
ATOM     24  O   UNL     1     108.955 126.111 139.149  0.00  0.00    +0.000 OA
ATOM     25  O   UNL     1     110.377 125.623 139.829  0.00  0.00    +0.000 OA
ATOM     26  C   UNL     1     110.398 127.069 137.821  0.00  0.00    +0.000 C 
ATOM     27  C   UNL     1     109.680 126.831 138.150  0.00  0.00    +0.000 C 
ATOM     28  C   UNL     1     109.673 126.349 138.820  0.00  0.00    +0.000 C 
ATOM     29  C   UNL     1     110.385 126.105 139.160  0.00  0.00    +0.000 C 
ATOM     30  C   UNL     1     111.103 126.343 138.830  0.00  0.00    +0.000 C 
BRANCH  26  31
ATOM     31  C   UNL     1     110.404 127.552 137.151  0.00  0.00    +0.000 C 
BRANCH  31  32
ATOM     32  O   UNL     1     111.062 128.020 136.985  0.00  0.00    +0.000 OA
BRANCH  32  36
ATOM     33  O   UNL     1     110.435 128.882 135.974  0.00  0.00    +0.000 OA
ATOM     34  O   UNL     1     112.501 128.346 135.963  0.00  0.00    +0.000 OA
ATOM     35  O   UNL     1     111.991 129.412 134.612  0.00  0.00    +0.000 OA
ATOM     36  C   UNL     1     111.077 128.485 136.304  0.00  0.00    +0.000 C 
ATOM     37  C   UNL     1     111.739 128.635 135.834  0.00  0.00    +0.000 C 
ATOM     38  C   UNL     1     111.504 129.125 135.214  0.00  0.00    +0.000 C 
ATOM     39  C   UNL     1     110.699 129.278 135.300  0.00  0.00    +0.000 C 
BRANCH  39  41
ATOM     40  O   UNL     1     109.419 129.774 134.901  0.00  0.00    +0.000 OA
ATOM     41  C   UNL     1     110.237 129.744 134.799  0.00  0.00    +0.000 C 
ENDBRANCH  39  41
ENDBRANCH  32  36
ENDBRANCH  31  32
ENDBRANCH  26  31
ENDBRANCH   1  30
TORSDOF 7
ENDMDL
MODEL 5
REMARK VINA RESULT:      -9.6      1.408      4.415
REMARK  Name = 131752667
REMARK  7 active torsions:
REMARK  status: ('A' for Active; 'I' for Inactive)
REMARK    1  A    between atoms: O_3  and  C_20
REMARK    2  A    between atoms: O_3  and  C_25
REMARK    3  A    between atoms: O_6  and  C_23
REMARK    4  A    between atoms: O_6  and  C_27
REMARK    5  A    between atoms: C_16  and  C_25
REMARK    6  A    between atoms: C_24  and  C_26
REMARK    7  A    between atoms: C_28  and  C_32
REMARK                            x       y       z     vdW  Elec       q    Type
REMARK                         _______ _______ _______ _____ _____    ______ ____
ROOT
ATOM      1  O   UNL     1     112.955 126.363 137.713  0.00  0.00    +0.000 OA
ENDROOT
BRANCH   1   6
ATOM      2  O   UNL     1     112.918 128.487 138.219  0.00  0.00    +0.000 OA
ATOM      3  O   UNL     1     113.527 127.026 136.315  0.00  0.00    +0.000 OA
ATOM      4  O   UNL     1     113.907 128.170 135.522  0.00  0.00    +0.000 OA
ATOM      5  O   UNL     1     113.665 130.842 136.677  0.00  0.00    +0.000 OA
ATOM      6  C   UNL     1     113.038 127.181 137.649  0.00  0.00    +0.000 A 
ATOM      7  C   UNL     1     112.835 127.669 138.283  0.00  0.00    +0.000 A 
ATOM      8  C   UNL     1     113.324 127.514 136.950  0.00  0.00    +0.000 A 
ATOM      9  C   UNL     1     113.407 128.332 136.885  0.00  0.00    +0.000 A 
ATOM     10  C   UNL     1     113.204 128.818 137.519  0.00  0.00    +0.000 A 
ATOM     11  C   UNL     1     113.706 128.665 136.151  0.00  0.00    +0.000 A 
ATOM     12  C   UNL     1     113.286 129.672 137.465  0.00  0.00    +0.000 A 
ATOM     13  C   UNL     1     113.795 129.516 136.077  0.00  0.00    +0.000 A 
ATOM     14  C   UNL     1     113.583 130.024 136.739  0.00  0.00    +0.000 A 
BRANCH   7  16
ATOM     15  O   UNL     1     111.694 126.339 141.080  0.00  0.00    +0.000 OA
ATOM     16  C   UNL     1     112.549 127.337 138.982  0.00  0.00    +0.000 A 
ATOM     17  C   UNL     1     111.746 127.387 139.165  0.00  0.00    +0.000 A 
ATOM     18  C   UNL     1     113.067 126.954 139.499  0.00  0.00    +0.000 A 
ATOM     19  C   UNL     1     111.461 127.054 139.865  0.00  0.00    +0.000 A 
ATOM     20  C   UNL     1     112.781 126.622 140.198  0.00  0.00    +0.000 A 
ATOM     21  C   UNL     1     111.979 126.672 140.380  0.00  0.00    +0.000 A 
ENDBRANCH   7  16
ENDBRANCH   1   6
BRANCH   1  30
ATOM     22  O   UNL     1     111.833 126.343 136.829  0.00  0.00    +0.000 OA
ATOM     23  O   UNL     1     110.999 124.732 135.615  0.00  0.00    +0.000 OA
ATOM     24  O   UNL     1     112.266 123.957 136.334  0.00  0.00    +0.000 OA
ATOM     25  O   UNL     1     113.244 124.773 137.383  0.00  0.00    +0.000 OA
ATOM     26  C   UNL     1     111.344 125.936 136.305  0.00  0.00    +0.000 C 
ATOM     27  C   UNL     1     111.488 125.140 136.140  0.00  0.00    +0.000 C 
ATOM     28  C   UNL     1     112.121 124.752 136.499  0.00  0.00    +0.000 C 
ATOM     29  C   UNL     1     112.611 125.161 137.024  0.00  0.00    +0.000 C 
ATOM     30  C   UNL     1     112.466 125.956 137.189  0.00  0.00    +0.000 C 
BRANCH  26  31
ATOM     31  C   UNL     1     110.710 126.323 135.945  0.00  0.00    +0.000 C 
BRANCH  31  32
ATOM     32  O   UNL     1     110.150 126.715 136.406  0.00  0.00    +0.000 OA
BRANCH  32  36
ATOM     33  O   UNL     1     110.102 127.988 135.672  0.00  0.00    +0.000 OA
ATOM     34  O   UNL     1     108.402 127.079 136.589  0.00  0.00    +0.000 OA
ATOM     35  O   UNL     1     108.068 128.632 135.755  0.00  0.00    +0.000 OA
ATOM     36  C   UNL     1     109.759 127.377 136.107  0.00  0.00    +0.000 C 
ATOM     37  C   UNL     1     108.955 127.544 136.191  0.00  0.00    +0.000 C 
ATOM     38  C   UNL     1     108.802 128.258 135.808  0.00  0.00    +0.000 C 
ATOM     39  C   UNL     1     109.510 128.532 135.487  0.00  0.00    +0.000 C 
BRANCH  39  41
ATOM     40  O   UNL     1     110.356 129.577 135.002  0.00  0.00    +0.000 OA
ATOM     41  C   UNL     1     109.610 129.229 135.056  0.00  0.00    +0.000 C 
ENDBRANCH  39  41
ENDBRANCH  32  36
ENDBRANCH  31  32
ENDBRANCH  26  31
ENDBRANCH   1  30
TORSDOF 7
ENDMDL
MODEL 6
REMARK VINA RESULT:      -9.6      1.163      3.341
REMARK  Name = 131752667
REMARK  7 active torsions:
REMARK  status: ('A' for Active; 'I' for Inactive)
REMARK    1  A    between atoms: O_3  and  C_20
REMARK    2  A    between atoms: O_3  and  C_25
REMARK    3  A    between atoms: O_6  and  C_23
REMARK    4  A    between atoms: O_6  and  C_27
REMARK    5  A    between atoms: C_16  and  C_25
REMARK    6  A    between atoms: C_24  and  C_26
REMARK    7  A    between atoms: C_28  and  C_32
REMARK                            x       y       z     vdW  Elec       q    Type
REMARK                         _______ _______ _______ _____ _____    ______ ____
ROOT
ATOM      1  O   UNL     1     111.664 127.205 135.901  0.00  0.00    +0.000 OA
ENDROOT
BRANCH   1   6
ATOM      2  O   UNL     1     113.568 126.782 136.883  0.00  0.00    +0.000 OA
ATOM      3  O   UNL     1     111.647 125.555 135.917  0.00  0.00    +0.000 OA
ATOM      4  O   UNL     1     112.254 124.288 136.247  0.00  0.00    +0.000 OA
ATOM      5  O   UNL     1     114.853 124.263 137.579  0.00  0.00    +0.000 OA
ATOM      6  C   UNL     1     112.296 126.789 136.231  0.00  0.00    +0.000 A 
ATOM      7  C   UNL     1     112.937 127.198 136.553  0.00  0.00    +0.000 A 
ATOM      8  C   UNL     1     112.288 125.964 136.239  0.00  0.00    +0.000 A 
ATOM      9  C   UNL     1     112.919 125.548 136.569  0.00  0.00    +0.000 A 
ATOM     10  C   UNL     1     113.559 125.957 136.891  0.00  0.00    +0.000 A 
ATOM     11  C   UNL     1     112.898 124.689 136.571  0.00  0.00    +0.000 A 
ATOM     12  C   UNL     1     114.223 125.536 137.237  0.00  0.00    +0.000 A 
ATOM     13  C   UNL     1     113.552 124.250 136.913  0.00  0.00    +0.000 A 
ATOM     14  C   UNL     1     114.220 124.676 137.249  0.00  0.00    +0.000 A 
BRANCH   7  16
ATOM     15  O   UNL     1     112.969 130.498 136.517  0.00  0.00    +0.000 OA
ATOM     16  C   UNL     1     112.945 128.023 136.545  0.00  0.00    +0.000 A 
ATOM     17  C   UNL     1     112.811 128.444 137.241  0.00  0.00    +0.000 A 
ATOM     18  C   UNL     1     113.086 128.426 135.838  0.00  0.00    +0.000 A 
ATOM     19  C   UNL     1     112.819 129.269 137.231  0.00  0.00    +0.000 A 
ATOM     20  C   UNL     1     113.094 129.251 135.830  0.00  0.00    +0.000 A 
ATOM     21  C   UNL     1     112.961 129.673 136.526  0.00  0.00    +0.000 A 
ENDBRANCH   7  16
ENDBRANCH   1   6
BRANCH   1  30
ATOM     22  O   UNL     1     110.768 126.937 136.981  0.00  0.00    +0.000 OA
ATOM     23  O   UNL     1     108.598 126.704 137.013  0.00  0.00    +0.000 OA
ATOM     24  O   UNL     1     108.857 126.989 135.409  0.00  0.00    +0.000 OA
ATOM     25  O   UNL     1     110.390 127.240 134.853  0.00  0.00    +0.000 OA
ATOM     26  C   UNL     1     110.002 126.812 137.259  0.00  0.00    +0.000 C 
ATOM     27  C   UNL     1     109.365 126.829 136.735  0.00  0.00    +0.000 C 
ATOM     28  C   UNL     1     109.494 126.972 135.933  0.00  0.00    +0.000 C 
ATOM     29  C   UNL     1     110.261 127.097 135.655  0.00  0.00    +0.000 C 
ATOM     30  C   UNL     1     110.898 127.080 136.179  0.00  0.00    +0.000 C 
BRANCH  26  31
ATOM     31  C   UNL     1     109.872 126.669 138.061  0.00  0.00    +0.000 C 
BRANCH  31  32
ATOM     32  O   UNL     1     110.471 126.813 138.609  0.00  0.00    +0.000 OA
BRANCH  32  36
ATOM     33  O   UNL     1     109.632 126.875 139.815  0.00  0.00    +0.000 OA
ATOM     34  O   UNL     1     111.635 126.136 139.796  0.00  0.00    +0.000 OA
ATOM     35  O   UNL     1     110.834 126.102 141.401  0.00  0.00    +0.000 OA
ATOM     36  C   UNL     1     110.331 126.698 139.414  0.00  0.00    +0.000 C 
ATOM     37  C   UNL     1     110.866 126.387 139.960  0.00  0.00    +0.000 C 
ATOM     38  C   UNL     1     110.498 126.372 140.698  0.00  0.00    +0.000 C 
ATOM     39  C   UNL     1     109.736 126.673 140.608  0.00  0.00    +0.000 C 
BRANCH  39  41
ATOM     40  O   UNL     1     108.442 127.098 141.041  0.00  0.00    +0.000 OA
ATOM     41  C   UNL     1     109.174 126.757 141.208  0.00  0.00    +0.000 C 
ENDBRANCH  39  41
ENDBRANCH  32  36
ENDBRANCH  31  32
ENDBRANCH  26  31
ENDBRANCH   1  30
TORSDOF 7
ENDMDL
MODEL 7
REMARK VINA RESULT:      -9.6      2.431      4.674
REMARK  Name = 131752667
REMARK  7 active torsions:
REMARK  status: ('A' for Active; 'I' for Inactive)
REMARK    1  A    between atoms: O_3  and  C_20
REMARK    2  A    between atoms: O_3  and  C_25
REMARK    3  A    between atoms: O_6  and  C_23
REMARK    4  A    between atoms: O_6  and  C_27
REMARK    5  A    between atoms: C_16  and  C_25
REMARK    6  A    between atoms: C_24  and  C_26
REMARK    7  A    between atoms: C_28  and  C_32
REMARK                            x       y       z     vdW  Elec       q    Type
REMARK                         _______ _______ _______ _____ _____    ______ ____
ROOT
ATOM      1  O   UNL     1     111.246 127.453 137.160  0.00  0.00    +0.000 OA
ENDROOT
BRANCH   1   6
ATOM      2  O   UNL     1     112.319 128.043 135.352  0.00  0.00    +0.000 OA
ATOM      3  O   UNL     1     112.333 128.529 137.780  0.00  0.00    +0.000 OA
ATOM      4  O   UNL     1     113.425 129.457 137.617  0.00  0.00    +0.000 OA
ATOM      5  O   UNL     1     114.525 129.901 134.948  0.00  0.00    +0.000 OA
ATOM      6  C   UNL     1     111.785 127.829 136.661  0.00  0.00    +0.000 A 
ATOM      7  C   UNL     1     111.780 127.667 135.851  0.00  0.00    +0.000 A 
ATOM      8  C   UNL     1     112.328 128.367 136.970  0.00  0.00    +0.000 A 
ATOM      9  C   UNL     1     112.867 128.743 136.471  0.00  0.00    +0.000 A 
ATOM     10  C   UNL     1     112.862 128.581 135.663  0.00  0.00    +0.000 A 
ATOM     11  C   UNL     1     113.428 129.301 136.806  0.00  0.00    +0.000 A 
ATOM     12  C   UNL     1     113.418 128.965 135.132  0.00  0.00    +0.000 A 
ATOM     13  C   UNL     1     113.992 129.696 136.292  0.00  0.00    +0.000 A 
ATOM     14  C   UNL     1     113.987 129.527 135.449  0.00  0.00    +0.000 A 
BRANCH   7  16
ATOM     15  O   UNL     1     109.604 125.517 134.612  0.00  0.00    +0.000 OA
ATOM     16  C   UNL     1     111.237 127.129 135.542  0.00  0.00    +0.000 A 
ATOM     17  C   UNL     1     111.327 126.322 135.685  0.00  0.00    +0.000 A 
ATOM     18  C   UNL     1     110.602 127.400 135.088  0.00  0.00    +0.000 A 
ATOM     19  C   UNL     1     110.783 125.785 135.375  0.00  0.00    +0.000 A 
ATOM     20  C   UNL     1     110.058 126.862 134.779  0.00  0.00    +0.000 A 
ATOM     21  C   UNL     1     110.149 126.054 134.922  0.00  0.00    +0.000 A 
ENDBRANCH   7  16
ENDBRANCH   1   6
BRANCH   1  30
ATOM     22  O   UNL     1     110.408 128.599 137.319  0.00  0.00    +0.000 OA
ATOM     23  O   UNL     1     109.174 129.244 139.001  0.00  0.00    +0.000 OA
ATOM     24  O   UNL     1     109.815 127.848 139.602  0.00  0.00    +0.000 OA
ATOM     25  O   UNL     1     110.851 126.952 138.681  0.00  0.00    +0.000 OA
ATOM     26  C   UNL     1     109.890 129.047 137.779  0.00  0.00    +0.000 C 
ATOM     27  C   UNL     1     109.693 128.796 138.540  0.00  0.00    +0.000 C 
ATOM     28  C   UNL     1     110.013 128.098 138.841  0.00  0.00    +0.000 C 
ATOM     29  C   UNL     1     110.531 127.650 138.380  0.00  0.00    +0.000 C 
ATOM     30  C   UNL     1     110.728 127.901 137.619  0.00  0.00    +0.000 C 
BRANCH  26  31
ATOM     31  C   UNL     1     109.569 129.745 137.479  0.00  0.00    +0.000 C 
BRANCH  31  32
ATOM     32  O   UNL     1     109.113 129.728 136.792  0.00  0.00    +0.000 OA
BRANCH  32  36
ATOM     33  O   UNL     1     109.354 131.129 136.415  0.00  0.00    +0.000 OA
ATOM     34  O   UNL     1     107.637 130.014 135.811  0.00  0.00    +0.000 OA
ATOM     35  O   UNL     1     107.687 131.704 135.212  0.00  0.00    +0.000 OA
ATOM     36  C   UNL     1     108.912 130.433 136.412  0.00  0.00    +0.000 C 
ATOM     37  C   UNL     1     108.234 130.563 135.960  0.00  0.00    +0.000 C 
ATOM     38  C   UNL     1     108.257 131.341 135.685  0.00  0.00    +0.000 C 
ATOM     39  C   UNL     1     108.949 131.690 135.966  0.00  0.00    +0.000 C 
BRANCH  39  41
ATOM     40  O   UNL     1     109.886 132.749 136.170  0.00  0.00    +0.000 OA
ATOM     41  C   UNL     1     109.194 132.465 135.823  0.00  0.00    +0.000 C 
ENDBRANCH  39  41
ENDBRANCH  32  36
ENDBRANCH  31  32
ENDBRANCH  26  31
ENDBRANCH   1  30
TORSDOF 7
ENDMDL
MODEL 8
REMARK VINA RESULT:      -9.4      2.335      3.888
REMARK  Name = 131752667
REMARK  7 active torsions:
REMARK  status: ('A' for Active; 'I' for Inactive)
REMARK    1  A    between atoms: O_3  and  C_20
REMARK    2  A    between atoms: O_3  and  C_25
REMARK    3  A    between atoms: O_6  and  C_23
REMARK    4  A    between atoms: O_6  and  C_27
REMARK    5  A    between atoms: C_16  and  C_25
REMARK    6  A    between atoms: C_24  and  C_26
REMARK    7  A    between atoms: C_28  and  C_32
REMARK                            x       y       z     vdW  Elec       q    Type
REMARK                         _______ _______ _______ _____ _____    ______ ____
ROOT
ATOM      1  O   UNL     1     112.901 128.708 137.364  0.00  0.00    +0.000 OA
ENDROOT
BRANCH   1   6
ATOM      2  O   UNL     1     112.204 127.442 135.728  0.00  0.00    +0.000 OA
ATOM      3  O   UNL     1     111.747 127.813 138.133  0.00  0.00    +0.000 OA
ATOM      4  O   UNL     1     110.731 126.789 138.127  0.00  0.00    +0.000 OA
ATOM      5  O   UNL     1     110.166 125.363 135.641  0.00  0.00    +0.000 OA
ATOM      6  C   UNL     1     112.476 128.137 136.947  0.00  0.00    +0.000 A 
ATOM      7  C   UNL     1     112.628 128.013 136.145  0.00  0.00    +0.000 A 
ATOM      8  C   UNL     1     111.899 127.689 137.331  0.00  0.00    +0.000 A 
ATOM      9  C   UNL     1     111.475 127.118 136.913  0.00  0.00    +0.000 A 
ATOM     10  C   UNL     1     111.627 126.995 136.113  0.00  0.00    +0.000 A 
ATOM     11  C   UNL     1     110.876 126.659 137.325  0.00  0.00    +0.000 A 
ATOM     12  C   UNL     1     111.192 126.403 135.667  0.00  0.00    +0.000 A 
ATOM     13  C   UNL     1     110.430 126.063 136.897  0.00  0.00    +0.000 A 
ATOM     14  C   UNL     1     110.589 125.934 136.061  0.00  0.00    +0.000 A 
BRANCH   7  16
ATOM     15  O   UNL     1     114.939 129.803 134.612  0.00  0.00    +0.000 OA
ATOM     16  C   UNL     1     113.205 128.461 135.762  0.00  0.00    +0.000 A 
ATOM     17  C   UNL     1     112.984 129.053 135.232  0.00  0.00    +0.000 A 
ATOM     18  C   UNL     1     114.005 128.315 135.908  0.00  0.00    +0.000 A 
ATOM     19  C   UNL     1     113.562 129.501 134.849  0.00  0.00    +0.000 A 
ATOM     20  C   UNL     1     114.582 128.763 135.525  0.00  0.00    +0.000 A 
ATOM     21  C   UNL     1     114.361 129.356 134.995  0.00  0.00    +0.000 A 
ENDBRANCH   7  16
ENDBRANCH   1   6
BRANCH   1  30
ATOM     22  O   UNL     1     111.839 129.664 137.348  0.00  0.00    +0.000 OA
ATOM     23  O   UNL     1     111.322 131.251 138.754  0.00  0.00    +0.000 OA
ATOM     24  O   UNL     1     112.657 130.610 139.483  0.00  0.00    +0.000 OA
ATOM     25  O   UNL     1     113.446 129.339 138.788  0.00  0.00    +0.000 OA
ATOM     26  C   UNL     1     111.444 130.299 137.695  0.00  0.00    +0.000 C 
ATOM     27  C   UNL     1     111.717 130.615 138.407  0.00  0.00    +0.000 C 
ATOM     28  C   UNL     1     112.384 130.295 138.771  0.00  0.00    +0.000 C 
ATOM     29  C   UNL     1     112.779 129.659 138.423  0.00  0.00    +0.000 C 
ATOM     30  C   UNL     1     112.506 129.343 137.711  0.00  0.00    +0.000 C 
BRANCH  26  31
ATOM     31  C   UNL     1     110.777 130.620 137.331  0.00  0.00    +0.000 C 
BRANCH  31  32
ATOM     32  O   UNL     1     110.174 130.125 137.064  0.00  0.00    +0.000 OA
BRANCH  32  36
ATOM     33  O   UNL     1     109.527 131.174 136.262  0.00  0.00    +0.000 OA
ATOM     34  O   UNL     1     108.603 129.314 136.755  0.00  0.00    +0.000 OA
ATOM     35  O   UNL     1     107.594 130.418 135.764  0.00  0.00    +0.000 OA
ATOM     36  C   UNL     1     109.545 130.436 136.630  0.00  0.00    +0.000 C 
ATOM     37  C   UNL     1     108.822 130.063 136.488  0.00  0.00    +0.000 C 
ATOM     38  C   UNL     1     108.359 130.571 136.033  0.00  0.00    +0.000 C 
ATOM     39  C   UNL     1     108.794 131.257 135.893  0.00  0.00    +0.000 C 
BRANCH  39  41
ATOM     40  O   UNL     1     109.081 132.496 135.241  0.00  0.00    +0.000 OA
ATOM     41  C   UNL     1     108.541 131.912 135.460  0.00  0.00    +0.000 C 
ENDBRANCH  39  41
ENDBRANCH  32  36
ENDBRANCH  31  32
ENDBRANCH  26  31
ENDBRANCH   1  30
TORSDOF 7
ENDMDL
MODEL 9
REMARK VINA RESULT:      -9.4      1.711      4.003
REMARK  Name = 131752667
REMARK  7 active torsions:
REMARK  status: ('A' for Active; 'I' for Inactive)
REMARK    1  A    between atoms: O_3  and  C_20
REMARK    2  A    between atoms: O_3  and  C_25
REMARK    3  A    between atoms: O_6  and  C_23
REMARK    4  A    between atoms: O_6  and  C_27
REMARK    5  A    between atoms: C_16  and  C_25
REMARK    6  A    between atoms: C_24  and  C_26
REMARK    7  A    between atoms: C_28  and  C_32
REMARK                            x       y       z     vdW  Elec       q    Type
REMARK                         _______ _______ _______ _____ _____    ______ ____
ROOT
ATOM      1  O   UNL     1     113.176 126.712 137.219  0.00  0.00    +0.000 OA
ENDROOT
BRANCH   1   6
ATOM      2  O   UNL     1     112.013 126.000 138.924  0.00  0.00    +0.000 OA
ATOM      3  O   UNL     1     113.481 127.901 138.322  0.00  0.00    +0.000 OA
ATOM      4  O   UNL     1     113.312 128.483 139.631  0.00  0.00    +0.000 OA
ATOM      5  O   UNL     1     111.626 127.117 141.586  0.00  0.00    +0.000 OA
ATOM      6  C   UNL     1     112.839 126.673 137.971  0.00  0.00    +0.000 A 
ATOM      7  C   UNL     1     112.350 126.039 138.172  0.00  0.00    +0.000 A 
ATOM      8  C   UNL     1     112.991 127.267 138.523  0.00  0.00    +0.000 A 
ATOM      9  C   UNL     1     112.655 127.228 139.275  0.00  0.00    +0.000 A 
ATOM     10  C   UNL     1     112.166 126.595 139.476  0.00  0.00    +0.000 A 
ATOM     11  C   UNL     1     112.821 127.853 139.841  0.00  0.00    +0.000 A 
ATOM     12  C   UNL     1     111.809 126.542 140.255  0.00  0.00    +0.000 A 
ATOM     13  C   UNL     1     112.474 127.819 140.626  0.00  0.00    +0.000 A 
ATOM     14  C   UNL     1     111.964 127.158 140.835  0.00  0.00    +0.000 A 
BRANCH   7  16
ATOM     15  O   UNL     1     111.738 123.664 135.964  0.00  0.00    +0.000 OA
ATOM     16  C   UNL     1     112.197 125.445 137.620  0.00  0.00    +0.000 A 
ATOM     17  C   UNL     1     112.785 124.898 137.430  0.00  0.00    +0.000 A 
ATOM     18  C   UNL     1     111.457 125.399 137.259  0.00  0.00    +0.000 A 
ATOM     19  C   UNL     1     112.631 124.305 136.877  0.00  0.00    +0.000 A 
ATOM     20  C   UNL     1     111.304 124.805 136.707  0.00  0.00    +0.000 A 
ATOM     21  C   UNL     1     111.892 124.258 136.516  0.00  0.00    +0.000 A 
ENDBRANCH   7  16
ENDBRANCH   1   6
BRANCH   1  30
ATOM     22  O   UNL     1     112.313 127.749 136.747  0.00  0.00    +0.000 OA
ATOM     23  O   UNL     1     112.664 129.361 135.318  0.00  0.00    +0.000 OA
ATOM     24  O   UNL     1     114.134 128.612 135.311  0.00  0.00    +0.000 OA
ATOM     25  O   UNL     1     114.390 127.287 136.261  0.00  0.00    +0.000 OA
ATOM     26  C   UNL     1     112.185 128.411 136.272  0.00  0.00    +0.000 C 
ATOM     27  C   UNL     1     112.792 128.698 135.794  0.00  0.00    +0.000 C 
ATOM     28  C   UNL     1     113.527 128.324 135.790  0.00  0.00    +0.000 C 
ATOM     29  C   UNL     1     113.655 127.661 136.265  0.00  0.00    +0.000 C 
ATOM     30  C   UNL     1     113.048 127.374 136.744  0.00  0.00    +0.000 C 
BRANCH  26  31
ATOM     31  C   UNL     1     111.450 128.786 136.276  0.00  0.00    +0.000 C 
BRANCH  31  32
ATOM     32  O   UNL     1     110.762 128.348 136.154  0.00  0.00    +0.000 OA
BRANCH  32  36
ATOM     33  O   UNL     1     109.854 129.432 136.555  0.00  0.00    +0.000 OA
ATOM     34  O   UNL     1     109.252 127.746 135.392  0.00  0.00    +0.000 OA
ATOM     35  O   UNL     1     107.946 128.925 135.744  0.00  0.00    +0.000 OA
ATOM     36  C   UNL     1     110.026 128.720 136.178  0.00  0.00    +0.000 C 
ATOM     37  C   UNL     1     109.332 128.443 135.827  0.00  0.00    +0.000 C 
ATOM     38  C   UNL     1     108.731 128.985 135.989  0.00  0.00    +0.000 C 
ATOM     39  C   UNL     1     109.054 129.596 136.439  0.00  0.00    +0.000 C 
BRANCH  39  41
ATOM     40  O   UNL     1     108.748 130.496 137.505  0.00  0.00    +0.000 OA
ATOM     41  C   UNL     1     108.647 130.256 136.722  0.00  0.00    +0.000 C 
ENDBRANCH  39  41
ENDBRANCH  32  36
ENDBRANCH  31  32
ENDBRANCH  26  31
ENDBRANCH   1  30
TORSDOF 7
ENDMDL
MODEL 10
REMARK VINA RESULT:      -9.4      1.377      3.315
REMARK  Name = 131752667
REMARK  7 active torsions:
REMARK  status: ('A' for Active; 'I' for Inactive)
REMARK    1  A    between atoms: O_3  and  C_20
REMARK    2  A    between atoms: O_3  and  C_25
REMARK    3  A    between atoms: O_6  and  C_23
REMARK    4  A    between atoms: O_6  and  C_27
REMARK    5  A    between atoms: C_16  and  C_25
REMARK    6  A    between atoms: C_24  and  C_26
REMARK    7  A    between atoms: C_28  and  C_32
REMARK                            x       y       z     vdW  Elec       q    Type
REMARK                         _______ _______ _______ _____ _____    ______ ____
ROOT
ATOM      1  O   UNL     1     112.180 125.917 138.298  0.00  0.00    +0.000 OA
ENDROOT
BRANCH   1   6
ATOM      2  O   UNL     1     111.775 125.711 136.163  0.00  0.00    +0.000 OA
ATOM      3  O   UNL     1     110.593 126.364 138.237  0.00  0.00    +0.000 OA
ATOM      4  O   UNL     1     109.375 126.603 137.502  0.00  0.00    +0.000 OA
ATOM      5  O   UNL     1     109.354 126.174 134.613  0.00  0.00    +0.000 OA
ATOM      6  C   UNL     1     111.780 125.923 137.577  0.00  0.00    +0.000 A 
ATOM      7  C   UNL     1     112.175 125.705 136.885  0.00  0.00    +0.000 A 
ATOM      8  C   UNL     1     110.987 126.146 137.545  0.00  0.00    +0.000 A 
ATOM      9  C   UNL     1     110.588 126.152 136.823  0.00  0.00    +0.000 A 
ATOM     10  C   UNL     1     110.982 125.935 136.133  0.00  0.00    +0.000 A 
ATOM     11  C   UNL     1     109.761 126.387 136.805  0.00  0.00    +0.000 A 
ATOM     12  C   UNL     1     110.577 125.937 135.375  0.00  0.00    +0.000 A 
ATOM     13  C   UNL     1     109.339 126.395 136.057  0.00  0.00    +0.000 A 
ATOM     14  C   UNL     1     109.750 126.169 135.336  0.00  0.00    +0.000 A 
BRANCH   7  16
ATOM     15  O   UNL     1     115.348 124.809 137.010  0.00  0.00    +0.000 OA
ATOM     16  C   UNL     1     112.968 125.482 136.916  0.00  0.00    +0.000 A 
ATOM     17  C   UNL     1     113.554 126.000 136.652  0.00  0.00    +0.000 A 
ATOM     18  C   UNL     1     113.176 124.739 137.211  0.00  0.00    +0.000 A 
ATOM     19  C   UNL     1     114.347 125.775 136.684  0.00  0.00    +0.000 A 
ATOM     20  C   UNL     1     113.969 124.516 137.242  0.00  0.00    +0.000 A 
ATOM     21  C   UNL     1     114.555 125.034 136.979  0.00  0.00    +0.000 A 
ENDBRANCH   7  16
ENDBRANCH   1   6
BRANCH   1  30
ATOM     22  O   UNL     1     112.279 127.340 138.389  0.00  0.00    +0.000 OA
ATOM     23  O   UNL     1     112.326 128.661 140.126  0.00  0.00    +0.000 OA
ATOM     24  O   UNL     1     112.200 127.188 140.858  0.00  0.00    +0.000 OA
ATOM     25  O   UNL     1     112.127 125.816 139.944  0.00  0.00    +0.000 OA
ATOM     26  C   UNL     1     112.316 128.025 138.845  0.00  0.00    +0.000 C 
ATOM     27  C   UNL     1     112.290 127.974 139.668  0.00  0.00    +0.000 C 
ATOM     28  C   UNL     1     112.227 127.238 140.035  0.00  0.00    +0.000 C 
ATOM     29  C   UNL     1     112.190 126.552 139.578  0.00  0.00    +0.000 C 
ATOM     30  C   UNL     1     112.216 126.602 138.755  0.00  0.00    +0.000 C 
BRANCH  26  31
ATOM     31  C   UNL     1     112.379 128.762 138.480  0.00  0.00    +0.000 C 
BRANCH  31  32
ATOM     32  O   UNL     1     112.889 128.864 137.840  0.00  0.00    +0.000 OA
BRANCH  32  36
ATOM     33  O   UNL     1     112.411 130.220 137.537  0.00  0.00    +0.000 OA
ATOM     34  O   UNL     1     114.218 129.395 136.756  0.00  0.00    +0.000 OA
ATOM     35  O   UNL     1     113.865 131.073 136.228  0.00  0.00    +0.000 OA
ATOM     36  C   UNL     1     112.949 129.600 137.472  0.00  0.00    +0.000 C 
ATOM     37  C   UNL     1     113.560 129.843 136.974  0.00  0.00    +0.000 C 
ATOM     38  C   UNL     1     113.398 130.615 136.731  0.00  0.00    +0.000 C 
ATOM     39  C   UNL     1     112.688 130.848 137.079  0.00  0.00    +0.000 C 
BRANCH  39  41
ATOM     40  O   UNL     1     111.604 131.733 137.368  0.00  0.00    +0.000 OA
ATOM     41  C   UNL     1     112.319 131.580 136.985  0.00  0.00    +0.000 C 
ENDBRANCH  39  41
ENDBRANCH  32  36
ENDBRANCH  31  32
ENDBRANCH  26  31
ENDBRANCH   1  30
TORSDOF 7
ENDMDL
