MODEL 1
REMARK VINA RESULT:     -10.5      0.000      0.000
REMARK  Name = 44259530
REMARK  7 active torsions:
REMARK  status: ('A' for Active; 'I' for Inactive)
REMARK    1  A    between atoms: O_2  and  C_22
REMARK    2  A    between atoms: O_2  and  C_26
REMARK    3  A    between atoms: O_6  and  C_25
REMARK    4  A    between atoms: O_6  and  C_29
REMARK    5  A    between atoms: O_13  and  C_35
REMARK    6  A    between atoms: C_17  and  C_26
REMARK    7  A    between atoms: C_30  and  C_34
REMARK                            x       y       z     vdW  Elec       q    Type
REMARK                         _______ _______ _______ _____ _____    ______ ____
ROOT
ATOM      1  O   UNL     1     112.089 127.542 136.056  0.00  0.00    +0.000 OA
ENDROOT
BRANCH   1   5
ATOM      2  O   UNL     1     111.085 125.621 136.313  0.00  0.00    +0.000 OA
ATOM      3  O   UNL     1     113.366 126.571 136.442  0.00  0.00    +0.000 OA
ATOM      4  O   UNL     1     112.120 122.989 137.010  0.00  0.00    +0.000 OA
ATOM      5  C   UNL     1     111.966 126.740 136.206  0.00  0.00    +0.000 A 
ATOM      6  C   UNL     1     111.206 126.423 136.163  0.00  0.00    +0.000 A 
ATOM      7  C   UNL     1     112.606 126.254 136.399  0.00  0.00    +0.000 A 
ATOM      8  C   UNL     1     112.483 125.452 136.549  0.00  0.00    +0.000 A 
ATOM      9  C   UNL     1     111.723 125.136 136.506  0.00  0.00    +0.000 A 
ATOM     10  C   UNL     1     113.157 124.957 136.749  0.00  0.00    +0.000 A 
ATOM     11  C   UNL     1     111.583 124.301 136.660  0.00  0.00    +0.000 A 
ATOM     12  C   UNL     1     113.036 124.121 136.906  0.00  0.00    +0.000 A 
ATOM     13  C   UNL     1     112.244 123.791 136.861  0.00  0.00    +0.000 A 
BRANCH   6  16
ATOM     14  O   UNL     1     108.837 127.821 136.938  0.00  0.00    +0.000 OA
ATOM     15  O   UNL     1     108.651 128.364 135.392  0.00  0.00    +0.000 OA
ATOM     16  C   UNL     1     110.568 126.908 135.970  0.00  0.00    +0.000 A 
ATOM     17  C   UNL     1     110.022 127.121 136.551  0.00  0.00    +0.000 A 
ATOM     18  C   UNL     1     110.474 127.180 135.197  0.00  0.00    +0.000 A 
ATOM     19  C   UNL     1     109.383 127.607 136.358  0.00  0.00    +0.000 A 
ATOM     20  C   UNL     1     109.836 127.665 135.004  0.00  0.00    +0.000 A 
ATOM     21  C   UNL     1     109.290 127.879 135.584  0.00  0.00    +0.000 A 
ENDBRANCH   6  16
BRANCH  10  22
ATOM     22  O   UNL     1     113.914 125.283 136.790  0.00  0.00    +0.000 OA
ATOM     23  C   UNL     1     114.489 124.931 137.266  0.00  0.00    +0.000 C 
ENDBRANCH  10  22
ENDBRANCH   1   5
BRANCH   1  32
ATOM     24  O   UNL     1     112.197 127.944 137.423  0.00  0.00    +0.000 OA
ATOM     25  O   UNL     1     113.440 129.467 138.371  0.00  0.00    +0.000 OA
ATOM     26  O   UNL     1     113.900 129.626 136.794  0.00  0.00    +0.000 OA
ATOM     27  O   UNL     1     113.224 128.663 135.637  0.00  0.00    +0.000 OA
ATOM     28  C   UNL     1     112.535 128.425 138.001  0.00  0.00    +0.000 C 
ATOM     29  C   UNL     1     113.102 128.986 137.792  0.00  0.00    +0.000 C 
ATOM     30  C   UNL     1     113.332 129.065 137.003  0.00  0.00    +0.000 C 
ATOM     31  C   UNL     1     112.994 128.584 136.424  0.00  0.00    +0.000 C 
ATOM     32  C   UNL     1     112.427 128.023 136.635  0.00  0.00    +0.000 C 
BRANCH  28  33
ATOM     33  C   UNL     1     112.305 128.346 138.790  0.00  0.00    +0.000 C 
BRANCH  33  34
ATOM     34  O   UNL     1     112.157 127.597 139.104  0.00  0.00    +0.000 OA
BRANCH  34  40
ATOM     35  O   UNL     1     111.416 128.169 140.184  0.00  0.00    +0.000 OA
ATOM     36  O   UNL     1     112.218 126.157 139.908  0.00  0.00    +0.000 OA
ATOM     37  O   UNL     1     111.508 126.009 141.390  0.00  0.00    +0.000 OA
ATOM     38  O   UNL     1     110.737 127.301 142.068  0.00  0.00    +0.000 OA
ATOM     39  C   UNL     1     111.833 126.803 140.246  0.00  0.00    +0.000 C 
ATOM     40  C   UNL     1     111.802 127.523 139.844  0.00  0.00    +0.000 C 
ATOM     41  C   UNL     1     111.477 126.729 140.988  0.00  0.00    +0.000 C 
ATOM     42  C   UNL     1     111.092 127.375 141.326  0.00  0.00    +0.000 C 
ATOM     43  C   UNL     1     111.061 128.095 140.924  0.00  0.00    +0.000 C 
ATOM     44  C   UNL     1     110.676 128.740 141.264  0.00  0.00    +0.000 C 
ENDBRANCH  34  40
ENDBRANCH  33  34
ENDBRANCH  28  33
ENDBRANCH   1  32
TORSDOF 7
ENDMDL
MODEL 2
REMARK VINA RESULT:     -10.4      1.002      2.776
REMARK  Name = 44259530
REMARK  7 active torsions:
REMARK  status: ('A' for Active; 'I' for Inactive)
REMARK    1  A    between atoms: O_2  and  C_22
REMARK    2  A    between atoms: O_2  and  C_26
REMARK    3  A    between atoms: O_6  and  C_25
REMARK    4  A    between atoms: O_6  and  C_29
REMARK    5  A    between atoms: O_13  and  C_35
REMARK    6  A    between atoms: C_17  and  C_26
REMARK    7  A    between atoms: C_30  and  C_34
REMARK                            x       y       z     vdW  Elec       q    Type
REMARK                         _______ _______ _______ _____ _____    ______ ____
ROOT
ATOM      1  O   UNL     1     111.710 127.229 135.915  0.00  0.00    +0.000 OA
ENDROOT
BRANCH   1   5
ATOM      2  O   UNL     1     113.657 126.829 136.818  0.00  0.00    +0.000 OA
ATOM      3  O   UNL     1     111.670 125.583 136.028  0.00  0.00    +0.000 OA
ATOM      4  O   UNL     1     114.941 124.332 137.590  0.00  0.00    +0.000 OA
ATOM      5  C   UNL     1     112.353 126.822 136.235  0.00  0.00    +0.000 A 
ATOM      6  C   UNL     1     113.015 127.237 136.498  0.00  0.00    +0.000 A 
ATOM      7  C   UNL     1     112.333 125.998 136.291  0.00  0.00    +0.000 A 
ATOM      8  C   UNL     1     112.975 125.591 136.611  0.00  0.00    +0.000 A 
ATOM      9  C   UNL     1     113.637 126.007 136.874  0.00  0.00    +0.000 A 
ATOM     10  C   UNL     1     112.942 124.734 136.664  0.00  0.00    +0.000 A 
ATOM     11  C   UNL     1     114.313 125.593 137.209  0.00  0.00    +0.000 A 
ATOM     12  C   UNL     1     113.608 124.304 136.996  0.00  0.00    +0.000 A 
ATOM     13  C   UNL     1     114.297 124.737 137.270  0.00  0.00    +0.000 A 
BRANCH   6  16
ATOM     14  O   UNL     1     112.890 129.806 137.744  0.00  0.00    +0.000 OA
ATOM     15  O   UNL     1     113.095 130.529 136.274  0.00  0.00    +0.000 OA
ATOM     16  C   UNL     1     113.035 128.059 136.442  0.00  0.00    +0.000 A 
ATOM     17  C   UNL     1     112.953 128.521 137.121  0.00  0.00    +0.000 A 
ATOM     18  C   UNL     1     113.137 128.421 135.708  0.00  0.00    +0.000 A 
ATOM     19  C   UNL     1     112.973 129.345 137.065  0.00  0.00    +0.000 A 
ATOM     20  C   UNL     1     113.157 129.243 135.652  0.00  0.00    +0.000 A 
ATOM     21  C   UNL     1     113.075 129.705 136.330  0.00  0.00    +0.000 A 
ENDBRANCH   6  16
BRANCH  10  22
ATOM     22  O   UNL     1     112.275 124.327 136.398  0.00  0.00    +0.000 OA
ATOM     23  C   UNL     1     112.048 123.623 136.764  0.00  0.00    +0.000 C 
ENDBRANCH  10  22
ENDBRANCH   1   5
BRANCH   1  32
ATOM     24  O   UNL     1     110.861 127.142 137.060  0.00  0.00    +0.000 OA
ATOM     25  O   UNL     1     108.703 126.857 137.222  0.00  0.00    +0.000 OA
ATOM     26  O   UNL     1     108.898 126.845 135.583  0.00  0.00    +0.000 OA
ATOM     27  O   UNL     1     110.402 127.031 134.930  0.00  0.00    +0.000 OA
ATOM     28  C   UNL     1     110.110 127.049 137.387  0.00  0.00    +0.000 C 
ATOM     29  C   UNL     1     109.455 126.950 136.895  0.00  0.00    +0.000 C 
ATOM     30  C   UNL     1     109.553 126.944 136.075  0.00  0.00    +0.000 C 
ATOM     31  C   UNL     1     110.304 127.037 135.749  0.00  0.00    +0.000 C 
ATOM     32  C   UNL     1     110.959 127.136 136.242  0.00  0.00    +0.000 C 
BRANCH  28  33
ATOM     33  C   UNL     1     110.012 127.055 138.207  0.00  0.00    +0.000 C 
BRANCH  33  34
ATOM     34  O   UNL     1     110.637 126.835 138.699  0.00  0.00    +0.000 OA
BRANCH  34  40
ATOM     35  O   UNL     1     110.066 127.505 139.824  0.00  0.00    +0.000 OA
ATOM     36  O   UNL     1     111.524 125.884 139.715  0.00  0.00    +0.000 OA
ATOM     37  O   UNL     1     111.397 126.079 141.348  0.00  0.00    +0.000 OA
ATOM     38  O   UNL     1     110.382 127.224 141.966  0.00  0.00    +0.000 OA
ATOM     39  C   UNL     1     111.017 126.457 140.023  0.00  0.00    +0.000 C 
ATOM     40  C   UNL     1     110.573 126.932 139.515  0.00  0.00    +0.000 C 
ATOM     41  C   UNL     1     110.953 126.554 140.840  0.00  0.00    +0.000 C 
ATOM     42  C   UNL     1     110.445 127.127 141.148  0.00  0.00    +0.000 C 
ATOM     43  C   UNL     1     110.002 127.602 140.640  0.00  0.00    +0.000 C 
ATOM     44  C   UNL     1     109.494 128.175 140.950  0.00  0.00    +0.000 C 
ENDBRANCH  34  40
ENDBRANCH  33  34
ENDBRANCH  28  33
ENDBRANCH   1  32
TORSDOF 7
ENDMDL
MODEL 3
REMARK VINA RESULT:     -10.2      1.188      4.414
REMARK  Name = 44259530
REMARK  7 active torsions:
REMARK  status: ('A' for Active; 'I' for Inactive)
REMARK    1  A    between atoms: O_2  and  C_22
REMARK    2  A    between atoms: O_2  and  C_26
REMARK    3  A    between atoms: O_6  and  C_25
REMARK    4  A    between atoms: O_6  and  C_29
REMARK    5  A    between atoms: O_13  and  C_35
REMARK    6  A    between atoms: C_17  and  C_26
REMARK    7  A    between atoms: C_30  and  C_34
REMARK                            x       y       z     vdW  Elec       q    Type
REMARK                         _______ _______ _______ _____ _____    ______ ____
ROOT
ATOM      1  O   UNL     1     112.655 126.573 138.245  0.00  0.00    +0.000 OA
ENDROOT
BRANCH   1   5
ATOM      2  O   UNL     1     113.269 127.096 136.217  0.00  0.00    +0.000 OA
ATOM      3  O   UNL     1     113.020 128.171 138.433  0.00  0.00    +0.000 OA
ATOM      4  O   UNL     1     114.184 129.614 135.077  0.00  0.00    +0.000 OA
ATOM      5  C   UNL     1     112.920 127.013 137.600  0.00  0.00    +0.000 A 
ATOM      6  C   UNL     1     113.003 126.655 136.862  0.00  0.00    +0.000 A 
ATOM      7  C   UNL     1     113.103 127.813 137.694  0.00  0.00    +0.000 A 
ATOM      8  C   UNL     1     113.368 128.253 137.049  0.00  0.00    +0.000 A 
ATOM      9  C   UNL     1     113.451 127.895 136.311  0.00  0.00    +0.000 A 
ATOM     10  C   UNL     1     113.556 129.085 137.160  0.00  0.00    +0.000 A 
ATOM     11  C   UNL     1     113.727 128.344 135.631  0.00  0.00    +0.000 A 
ATOM     12  C   UNL     1     113.833 129.549 136.492  0.00  0.00    +0.000 A 
ATOM     13  C   UNL     1     113.919 129.176 135.723  0.00  0.00    +0.000 A 
BRANCH   6  16
ATOM     14  O   UNL     1     111.223 124.614 135.950  0.00  0.00    +0.000 OA
ATOM     15  O   UNL     1     112.271 123.459 136.487  0.00  0.00    +0.000 OA
ATOM     16  C   UNL     1     112.820 125.856 136.768  0.00  0.00    +0.000 A 
ATOM     17  C   UNL     1     112.113 125.635 136.406  0.00  0.00    +0.000 A 
ATOM     18  C   UNL     1     113.344 125.278 137.037  0.00  0.00    +0.000 A 
ATOM     19  C   UNL     1     111.930 124.835 136.312  0.00  0.00    +0.000 A 
ATOM     20  C   UNL     1     113.162 124.480 136.943  0.00  0.00    +0.000 A 
ATOM     21  C   UNL     1     112.455 124.258 136.581  0.00  0.00    +0.000 A 
ENDBRANCH   6  16
BRANCH  10  22
ATOM     22  O   UNL     1     113.470 129.434 137.902  0.00  0.00    +0.000 OA
ATOM     23  C   UNL     1     113.427 130.256 137.969  0.00  0.00    +0.000 C 
ENDBRANCH  10  22
ENDBRANCH   1   5
BRANCH   1  32
ATOM     24  O   UNL     1     111.380 127.217 138.245  0.00  0.00    +0.000 OA
ATOM     25  O   UNL     1     109.901 127.463 139.832  0.00  0.00    +0.000 OA
ATOM     26  O   UNL     1     111.075 126.618 140.627  0.00  0.00    +0.000 OA
ATOM     27  O   UNL     1     112.452 126.173 139.833  0.00  0.00    +0.000 OA
ATOM     28  C   UNL     1     110.692 127.440 138.642  0.00  0.00    +0.000 C 
ATOM     29  C   UNL     1     110.590 127.240 139.436  0.00  0.00    +0.000 C 
ATOM     30  C   UNL     1     111.177 126.817 139.833  0.00  0.00    +0.000 C 
ATOM     31  C   UNL     1     111.865 126.595 139.436  0.00  0.00    +0.000 C 
ATOM     32  C   UNL     1     111.966 126.795 138.642  0.00  0.00    +0.000 C 
BRANCH  28  33
ATOM     33  C   UNL     1     110.104 127.863 138.244  0.00  0.00    +0.000 C 
BRANCH  33  34
ATOM     34  O   UNL     1     109.869 127.631 137.488  0.00  0.00    +0.000 OA
BRANCH  34  40
ATOM     35  O   UNL     1     109.906 128.940 136.916  0.00  0.00    +0.000 OA
ATOM     36  O   UNL     1     108.585 127.247 136.526  0.00  0.00    +0.000 OA
ATOM     37  O   UNL     1     107.980 128.363 135.473  0.00  0.00    +0.000 OA
ATOM     38  O   UNL     1     108.658 129.864 135.381  0.00  0.00    +0.000 OA
ATOM     39  C   UNL     1     108.925 127.997 136.481  0.00  0.00    +0.000 C 
ATOM     40  C   UNL     1     109.567 128.189 136.962  0.00  0.00    +0.000 C 
ATOM     41  C   UNL     1     108.622 128.555 135.954  0.00  0.00    +0.000 C 
ATOM     42  C   UNL     1     108.961 129.306 135.909  0.00  0.00    +0.000 C 
ATOM     43  C   UNL     1     109.604 129.498 136.390  0.00  0.00    +0.000 C 
ATOM     44  C   UNL     1     109.942 130.249 136.343  0.00  0.00    +0.000 C 
ENDBRANCH  34  40
ENDBRANCH  33  34
ENDBRANCH  28  33
ENDBRANCH   1  32
TORSDOF 7
ENDMDL
MODEL 4
REMARK VINA RESULT:     -10.1      1.122      3.084
REMARK  Name = 44259530
REMARK  7 active torsions:
REMARK  status: ('A' for Active; 'I' for Inactive)
REMARK    1  A    between atoms: O_2  and  C_22
REMARK    2  A    between atoms: O_2  and  C_26
REMARK    3  A    between atoms: O_6  and  C_25
REMARK    4  A    between atoms: O_6  and  C_29
REMARK    5  A    between atoms: O_13  and  C_35
REMARK    6  A    between atoms: C_17  and  C_26
REMARK    7  A    between atoms: C_30  and  C_34
REMARK                            x       y       z     vdW  Elec       q    Type
REMARK                         _______ _______ _______ _____ _____    ______ ____
ROOT
ATOM      1  O   UNL     1     113.074 127.419 136.573  0.00  0.00    +0.000 OA
ENDROOT
BRANCH   1   5
ATOM      2  O   UNL     1     111.879 125.692 135.977  0.00  0.00    +0.000 OA
ATOM      3  O   UNL     1     111.761 128.163 135.906  0.00  0.00    +0.000 OA
ATOM      4  O   UNL     1     109.285 125.510 134.666  0.00  0.00    +0.000 OA
ATOM      5  C   UNL     1     112.457 126.967 136.264  0.00  0.00    +0.000 A 
ATOM      6  C   UNL     1     112.496 126.143 136.287  0.00  0.00    +0.000 A 
ATOM      7  C   UNL     1     111.800 127.339 135.930  0.00  0.00    +0.000 A 
ATOM      8  C   UNL     1     111.184 126.887 135.620  0.00  0.00    +0.000 A 
ATOM      9  C   UNL     1     111.223 126.064 135.644  0.00  0.00    +0.000 A 
ATOM     10  C   UNL     1     110.505 127.287 135.275  0.00  0.00    +0.000 A 
ATOM     11  C   UNL     1     110.587 125.582 135.324  0.00  0.00    +0.000 A 
ATOM     12  C   UNL     1     109.860 126.822 134.950  0.00  0.00    +0.000 A 
ATOM     13  C   UNL     1     109.901 125.964 134.975  0.00  0.00    +0.000 A 
BRANCH   6  16
ATOM     14  O   UNL     1     115.235 125.343 136.126  0.00  0.00    +0.000 OA
ATOM     15  O   UNL     1     115.123 124.655 137.622  0.00  0.00    +0.000 OA
ATOM     16  C   UNL     1     113.152 125.771 136.621  0.00  0.00    +0.000 A 
ATOM     17  C   UNL     1     113.865 125.743 136.207  0.00  0.00    +0.000 A 
ATOM     18  C   UNL     1     113.097 125.427 137.369  0.00  0.00    +0.000 A 
ATOM     19  C   UNL     1     114.522 125.371 136.540  0.00  0.00    +0.000 A 
ATOM     20  C   UNL     1     113.752 125.056 137.702  0.00  0.00    +0.000 A 
ATOM     21  C   UNL     1     114.465 125.028 137.288  0.00  0.00    +0.000 A 
ENDBRANCH   6  16
BRANCH  10  22
ATOM     22  O   UNL     1     110.475 128.111 135.256  0.00  0.00    +0.000 OA
ATOM     23  C   UNL     1     109.779 128.493 135.028  0.00  0.00    +0.000 C 
ENDBRANCH  10  22
ENDBRANCH   1   5
BRANCH   1  32
ATOM     24  O   UNL     1     112.373 127.820 137.751  0.00  0.00    +0.000 OA
ATOM     25  O   UNL     1     112.461 129.671 138.907  0.00  0.00    +0.000 OA
ATOM     26  O   UNL     1     113.557 129.993 137.716  0.00  0.00    +0.000 OA
ATOM     27  O   UNL     1     113.863 128.867 136.550  0.00  0.00    +0.000 OA
ATOM     28  C   UNL     1     112.220 128.383 138.335  0.00  0.00    +0.000 C 
ATOM     29  C   UNL     1     112.614 129.108 138.323  0.00  0.00    +0.000 C 
ATOM     30  C   UNL     1     113.163 129.269 137.728  0.00  0.00    +0.000 C 
ATOM     31  C   UNL     1     113.316 128.706 137.144  0.00  0.00    +0.000 C 
ATOM     32  C   UNL     1     112.920 127.982 137.157  0.00  0.00    +0.000 C 
BRANCH  28  33
ATOM     33  C   UNL     1     111.671 128.222 138.930  0.00  0.00    +0.000 C 
BRANCH  33  34
ATOM     34  O   UNL     1     111.733 127.528 139.371  0.00  0.00    +0.000 OA
BRANCH  34  40
ATOM     35  O   UNL     1     110.480 127.796 140.003  0.00  0.00    +0.000 OA
ATOM     36  O   UNL     1     112.032 126.334 140.471  0.00  0.00    +0.000 OA
ATOM     37  O   UNL     1     110.928 126.006 141.652  0.00  0.00    +0.000 OA
ATOM     38  O   UNL     1     109.525 126.870 141.734  0.00  0.00    +0.000 OA
ATOM     39  C   UNL     1     111.331 126.767 140.511  0.00  0.00    +0.000 C 
ATOM     40  C   UNL     1     111.181 127.364 139.961  0.00  0.00    +0.000 C 
ATOM     41  C   UNL     1     110.778 126.602 141.103  0.00  0.00    +0.000 C 
ATOM     42  C   UNL     1     110.077 127.035 141.143  0.00  0.00    +0.000 C 
ATOM     43  C   UNL     1     109.928 127.631 140.593  0.00  0.00    +0.000 C 
ATOM     44  C   UNL     1     109.226 128.063 140.634  0.00  0.00    +0.000 C 
ENDBRANCH  34  40
ENDBRANCH  33  34
ENDBRANCH  28  33
ENDBRANCH   1  32
TORSDOF 7
ENDMDL
MODEL 5
REMARK VINA RESULT:     -10.1      1.107      4.819
REMARK  Name = 44259530
REMARK  7 active torsions:
REMARK  status: ('A' for Active; 'I' for Inactive)
REMARK    1  A    between atoms: O_2  and  C_22
REMARK    2  A    between atoms: O_2  and  C_26
REMARK    3  A    between atoms: O_6  and  C_25
REMARK    4  A    between atoms: O_6  and  C_29
REMARK    5  A    between atoms: O_13  and  C_35
REMARK    6  A    between atoms: C_17  and  C_26
REMARK    7  A    between atoms: C_30  and  C_34
REMARK                            x       y       z     vdW  Elec       q    Type
REMARK                         _______ _______ _______ _____ _____    ______ ____
ROOT
ATOM      1  O   UNL     1     112.967 126.635 137.538  0.00  0.00    +0.000 OA
ENDROOT
BRANCH   1   5
ATOM      2  O   UNL     1     113.004 128.695 138.257  0.00  0.00    +0.000 OA
ATOM      3  O   UNL     1     113.575 127.415 136.217  0.00  0.00    +0.000 OA
ATOM      4  O   UNL     1     113.852 131.165 136.969  0.00  0.00    +0.000 OA
ATOM      5  C   UNL     1     113.080 127.451 137.558  0.00  0.00    +0.000 A 
ATOM      6  C   UNL     1     112.890 127.878 138.238  0.00  0.00    +0.000 A 
ATOM      7  C   UNL     1     113.385 127.842 136.897  0.00  0.00    +0.000 A 
ATOM      8  C   UNL     1     113.498 128.659 136.918  0.00  0.00    +0.000 A 
ATOM      9  C   UNL     1     113.308 129.085 137.598  0.00  0.00    +0.000 A 
ATOM     10  C   UNL     1     113.816 129.054 136.223  0.00  0.00    +0.000 A 
ATOM     11  C   UNL     1     113.422 129.937 137.631  0.00  0.00    +0.000 A 
ATOM     12  C   UNL     1     113.937 129.904 136.238  0.00  0.00    +0.000 A 
ATOM     13  C   UNL     1     113.739 130.348 136.946  0.00  0.00    +0.000 A 
BRANCH   6  16
ATOM     14  O   UNL     1     110.678 127.225 139.926  0.00  0.00    +0.000 OA
ATOM     15  O   UNL     1     111.673 126.317 140.879  0.00  0.00    +0.000 OA
ATOM     16  C   UNL     1     112.586 127.488 138.898  0.00  0.00    +0.000 A 
ATOM     17  C   UNL     1     111.784 127.552 139.081  0.00  0.00    +0.000 A 
ATOM     18  C   UNL     1     113.083 127.034 139.375  0.00  0.00    +0.000 A 
ATOM     19  C   UNL     1     111.480 127.161 139.742  0.00  0.00    +0.000 A 
ATOM     20  C   UNL     1     112.780 126.644 140.035  0.00  0.00    +0.000 A 
ATOM     21  C   UNL     1     111.978 126.708 140.218  0.00  0.00    +0.000 A 
ENDBRANCH   6  16
BRANCH  10  22
ATOM     22  O   UNL     1     114.003 128.619 135.548  0.00  0.00    +0.000 OA
ATOM     23  C   UNL     1     114.138 129.007 134.832  0.00  0.00    +0.000 C 
ENDBRANCH  10  22
ENDBRANCH   1   5
BRANCH   1  32
ATOM     24  O   UNL     1     111.857 126.763 136.648  0.00  0.00    +0.000 OA
ATOM     25  O   UNL     1     110.911 125.307 135.323  0.00  0.00    +0.000 OA
ATOM     26  O   UNL     1     112.105 124.388 135.997  0.00  0.00    +0.000 OA
ATOM     27  O   UNL     1     113.132 125.051 137.104  0.00  0.00    +0.000 OA
ATOM     28  C   UNL     1     111.343 126.431 136.094  0.00  0.00    +0.000 C 
ATOM     29  C   UNL     1     111.425 125.639 135.877  0.00  0.00    +0.000 C 
ATOM     30  C   UNL     1     112.022 125.179 136.214  0.00  0.00    +0.000 C 
ATOM     31  C   UNL     1     112.536 125.511 136.768  0.00  0.00    +0.000 C 
ATOM     32  C   UNL     1     112.453 126.303 136.984  0.00  0.00    +0.000 C 
BRANCH  28  33
ATOM     33  C   UNL     1     110.746 126.891 135.757  0.00  0.00    +0.000 C 
BRANCH  33  34
ATOM     34  O   UNL     1     110.233 127.320 136.240  0.00  0.00    +0.000 OA
BRANCH  34  40
ATOM     35  O   UNL     1     110.319 128.566 135.545  0.00  0.00    +0.000 OA
ATOM     36  O   UNL     1     108.621 127.568 136.485  0.00  0.00    +0.000 OA
ATOM     37  O   UNL     1     107.900 128.938 135.913  0.00  0.00    +0.000 OA
ATOM     38  O   UNL     1     108.793 130.059 135.095  0.00  0.00    +0.000 OA
ATOM     39  C   UNL     1     109.067 128.128 136.077  0.00  0.00    +0.000 C 
ATOM     40  C   UNL     1     109.874 128.004 135.954  0.00  0.00    +0.000 C 
ATOM     41  C   UNL     1     108.707 128.814 135.790  0.00  0.00    +0.000 C 
ATOM     42  C   UNL     1     109.153 129.374 135.381  0.00  0.00    +0.000 C 
ATOM     43  C   UNL     1     109.960 129.250 135.259  0.00  0.00    +0.000 C 
ATOM     44  C   UNL     1     110.405 129.811 134.850  0.00  0.00    +0.000 C 
ENDBRANCH  34  40
ENDBRANCH  33  34
ENDBRANCH  28  33
ENDBRANCH   1  32
TORSDOF 7
ENDMDL
MODEL 6
REMARK VINA RESULT:     -10.0      2.087      4.647
REMARK  Name = 44259530
REMARK  7 active torsions:
REMARK  status: ('A' for Active; 'I' for Inactive)
REMARK    1  A    between atoms: O_2  and  C_22
REMARK    2  A    between atoms: O_2  and  C_26
REMARK    3  A    between atoms: O_6  and  C_25
REMARK    4  A    between atoms: O_6  and  C_29
REMARK    5  A    between atoms: O_13  and  C_35
REMARK    6  A    between atoms: C_17  and  C_26
REMARK    7  A    between atoms: C_30  and  C_34
REMARK                            x       y       z     vdW  Elec       q    Type
REMARK                         _______ _______ _______ _____ _____    ______ ____
ROOT
ATOM      1  O   UNL     1     111.241 127.389 137.232  0.00  0.00    +0.000 OA
ENDROOT
BRANCH   1   5
ATOM      2  O   UNL     1     112.259 128.041 135.415  0.00  0.00    +0.000 OA
ATOM      3  O   UNL     1     112.313 128.480 137.850  0.00  0.00    +0.000 OA
ATOM      4  O   UNL     1     114.406 129.964 135.000  0.00  0.00    +0.000 OA
ATOM      5  C   UNL     1     111.758 127.788 136.729  0.00  0.00    +0.000 A 
ATOM      6  C   UNL     1     111.740 127.641 135.917  0.00  0.00    +0.000 A 
ATOM      7  C   UNL     1     112.295 128.334 137.038  0.00  0.00    +0.000 A 
ATOM      8  C   UNL     1     112.812 128.733 136.535  0.00  0.00    +0.000 A 
ATOM      9  C   UNL     1     112.794 128.587 135.723  0.00  0.00    +0.000 A 
ATOM     10  C   UNL     1     113.366 129.299 136.869  0.00  0.00    +0.000 A 
ATOM     11  C   UNL     1     113.329 128.997 135.189  0.00  0.00    +0.000 A 
ATOM     12  C   UNL     1     113.908 129.718 136.350  0.00  0.00    +0.000 A 
ATOM     13  C   UNL     1     113.889 129.566 135.505  0.00  0.00    +0.000 A 
BRANCH   6  16
ATOM     14  O   UNL     1     110.901 124.935 135.546  0.00  0.00    +0.000 OA
ATOM     15  O   UNL     1     109.596 125.458 134.682  0.00  0.00    +0.000 OA
ATOM     16  C   UNL     1     111.204 127.096 135.608  0.00  0.00    +0.000 A 
ATOM     17  C   UNL     1     111.321 126.289 135.731  0.00  0.00    +0.000 A 
ATOM     18  C   UNL     1     110.552 127.357 135.176  0.00  0.00    +0.000 A 
ATOM     19  C   UNL     1     110.784 125.742 135.422  0.00  0.00    +0.000 A 
ATOM     20  C   UNL     1     110.016 126.812 134.868  0.00  0.00    +0.000 A 
ATOM     21  C   UNL     1     110.132 126.005 134.991  0.00  0.00    +0.000 A 
ENDBRANCH   6  16
BRANCH  10  22
ATOM     22  O   UNL     1     113.377 129.439 137.682  0.00  0.00    +0.000 OA
ATOM     23  C   UNL     1     113.695 130.141 137.976  0.00  0.00    +0.000 C 
ENDBRANCH  10  22
ENDBRANCH   1   5
BRANCH   1  32
ATOM     24  O   UNL     1     110.390 128.516 137.444  0.00  0.00    +0.000 OA
ATOM     25  O   UNL     1     109.177 129.089 139.166  0.00  0.00    +0.000 OA
ATOM     26  O   UNL     1     109.847 127.682 139.709  0.00  0.00    +0.000 OA
ATOM     27  O   UNL     1     110.878 126.832 138.742  0.00  0.00    +0.000 OA
ATOM     28  C   UNL     1     109.874 128.941 137.927  0.00  0.00    +0.000 C 
ATOM     29  C   UNL     1     109.693 128.664 138.683  0.00  0.00    +0.000 C 
ATOM     30  C   UNL     1     110.028 127.960 138.954  0.00  0.00    +0.000 C 
ATOM     31  C   UNL     1     110.544 127.535 138.471  0.00  0.00    +0.000 C 
ATOM     32  C   UNL     1     110.725 127.814 137.715  0.00  0.00    +0.000 C 
BRANCH  28  33
ATOM     33  C   UNL     1     109.539 129.646 137.656  0.00  0.00    +0.000 C 
BRANCH  33  34
ATOM     34  O   UNL     1     109.137 129.660 136.936  0.00  0.00    +0.000 OA
BRANCH  34  40
ATOM     35  O   UNL     1     109.515 131.006 136.640  0.00  0.00    +0.000 OA
ATOM     36  O   UNL     1     107.764 129.849 136.040  0.00  0.00    +0.000 OA
ATOM     37  O   UNL     1     107.455 131.289 135.297  0.00  0.00    +0.000 OA
ATOM     38  O   UNL     1     108.519 132.541 135.449  0.00  0.00    +0.000 OA
ATOM     39  C   UNL     1     108.296 130.474 136.117  0.00  0.00    +0.000 C 
ATOM     40  C   UNL     1     108.983 130.380 136.564  0.00  0.00    +0.000 C 
ATOM     41  C   UNL     1     108.141 131.195 135.745  0.00  0.00    +0.000 C 
ATOM     42  C   UNL     1     108.674 131.820 135.821  0.00  0.00    +0.000 C 
ATOM     43  C   UNL     1     109.360 131.726 136.269  0.00  0.00    +0.000 C 
ATOM     44  C   UNL     1     109.892 132.352 136.344  0.00  0.00    +0.000 C 
ENDBRANCH  34  40
ENDBRANCH  33  34
ENDBRANCH  28  33
ENDBRANCH   1  32
TORSDOF 7
ENDMDL
MODEL 7
REMARK VINA RESULT:     -10.0      1.489      4.495
REMARK  Name = 44259530
REMARK  7 active torsions:
REMARK  status: ('A' for Active; 'I' for Inactive)
REMARK    1  A    between atoms: O_2  and  C_22
REMARK    2  A    between atoms: O_2  and  C_26
REMARK    3  A    between atoms: O_6  and  C_25
REMARK    4  A    between atoms: O_6  and  C_29
REMARK    5  A    between atoms: O_13  and  C_35
REMARK    6  A    between atoms: C_17  and  C_26
REMARK    7  A    between atoms: C_30  and  C_34
REMARK                            x       y       z     vdW  Elec       q    Type
REMARK                         _______ _______ _______ _____ _____    ______ ____
ROOT
ATOM      1  O   UNL     1     111.888 125.359 136.893  0.00  0.00    +0.000 OA
ENDROOT
BRANCH   1   5
ATOM      2  O   UNL     1     112.975 126.056 138.653  0.00  0.00    +0.000 OA
ATOM      3  O   UNL     1     110.639 125.705 137.914  0.00  0.00    +0.000 OA
ATOM      4  O   UNL     1     112.035 127.003 141.241  0.00  0.00    +0.000 OA
ATOM      5  C   UNL     1     112.043 125.649 137.650  0.00  0.00    +0.000 A 
ATOM      6  C   UNL     1     112.821 125.766 137.896  0.00  0.00    +0.000 A 
ATOM      7  C   UNL     1     111.418 125.822 138.160  0.00  0.00    +0.000 A 
ATOM      8  C   UNL     1     111.572 126.112 138.917  0.00  0.00    +0.000 A 
ATOM      9  C   UNL     1     112.351 126.229 139.163  0.00  0.00    +0.000 A 
ATOM     10  C   UNL     1     110.913 126.288 139.440  0.00  0.00    +0.000 A 
ATOM     11  C   UNL     1     112.524 126.531 139.949  0.00  0.00    +0.000 A 
ATOM     12  C   UNL     1     111.068 126.591 140.229  0.00  0.00    +0.000 A 
ATOM     13  C   UNL     1     111.878 126.713 140.485  0.00  0.00    +0.000 A 
BRANCH   6  16
ATOM     14  O   UNL     1     114.865 126.641 136.100  0.00  0.00    +0.000 OA
ATOM     15  O   UNL     1     115.319 125.074 135.853  0.00  0.00    +0.000 OA
ATOM     16  C   UNL     1     113.445 125.593 137.385  0.00  0.00    +0.000 A 
ATOM     17  C   UNL     1     113.843 126.203 136.998  0.00  0.00    +0.000 A 
ATOM     18  C   UNL     1     113.673 124.809 137.261  0.00  0.00    +0.000 A 
ATOM     19  C   UNL     1     114.468 126.031 136.487  0.00  0.00    +0.000 A 
ATOM     20  C   UNL     1     114.297 124.636 136.751  0.00  0.00    +0.000 A 
ATOM     21  C   UNL     1     114.694 125.247 136.364  0.00  0.00    +0.000 A 
ENDBRANCH   6  16
BRANCH  10  22
ATOM     22  O   UNL     1     110.138 126.168 139.185  0.00  0.00    +0.000 OA
ATOM     23  C   UNL     1     109.508 126.476 139.620  0.00  0.00    +0.000 C 
ENDBRANCH  10  22
ENDBRANCH   1   5
BRANCH   1  32
ATOM     24  O   UNL     1     111.438 126.627 136.414  0.00  0.00    +0.000 OA
ATOM     25  O   UNL     1     110.086 127.139 134.778  0.00  0.00    +0.000 OA
ATOM     26  O   UNL     1     110.086 125.492 134.679  0.00  0.00    +0.000 OA
ATOM     27  O   UNL     1     110.987 124.602 135.736  0.00  0.00    +0.000 OA
ATOM     28  C   UNL     1     110.987 127.072 135.885  0.00  0.00    +0.000 C 
ATOM     29  C   UNL     1     110.537 126.694 135.307  0.00  0.00    +0.000 C 
ATOM     30  C   UNL     1     110.537 125.869 135.257  0.00  0.00    +0.000 C 
ATOM     31  C   UNL     1     110.987 125.424 135.786  0.00  0.00    +0.000 C 
ATOM     32  C   UNL     1     111.438 125.804 136.364  0.00  0.00    +0.000 C 
BRANCH  28  33
ATOM     33  C   UNL     1     110.987 127.896 135.934  0.00  0.00    +0.000 C 
BRANCH  33  34
ATOM     34  O   UNL     1     111.701 128.309 135.943  0.00  0.00    +0.000 OA
BRANCH  34  40
ATOM     35  O   UNL     1     111.288 129.141 137.029  0.00  0.00    +0.000 OA
ATOM     36  O   UNL     1     112.781 129.463 135.469  0.00  0.00    +0.000 OA
ATOM     37  O   UNL     1     112.908 130.872 136.318  0.00  0.00    +0.000 OA
ATOM     38  O   UNL     1     111.956 131.127 137.641  0.00  0.00    +0.000 OA
ATOM     39  C   UNL     1     112.304 129.590 136.130  0.00  0.00    +0.000 C 
ATOM     40  C   UNL     1     111.764 129.013 136.368  0.00  0.00    +0.000 C 
ATOM     41  C   UNL     1     112.368 130.295 136.555  0.00  0.00    +0.000 C 
ATOM     42  C   UNL     1     111.892 130.422 137.216  0.00  0.00    +0.000 C 
ATOM     43  C   UNL     1     111.352 129.845 137.453  0.00  0.00    +0.000 C 
ATOM     44  C   UNL     1     110.876 129.973 138.115  0.00  0.00    +0.000 C 
ENDBRANCH  34  40
ENDBRANCH  33  34
ENDBRANCH  28  33
ENDBRANCH   1  32
TORSDOF 7
ENDMDL
MODEL 8
REMARK VINA RESULT:     -10.0      1.602      4.563
REMARK  Name = 44259530
REMARK  7 active torsions:
REMARK  status: ('A' for Active; 'I' for Inactive)
REMARK    1  A    between atoms: O_2  and  C_22
REMARK    2  A    between atoms: O_2  and  C_26
REMARK    3  A    between atoms: O_6  and  C_25
REMARK    4  A    between atoms: O_6  and  C_29
REMARK    5  A    between atoms: O_13  and  C_35
REMARK    6  A    between atoms: C_17  and  C_26
REMARK    7  A    between atoms: C_30  and  C_34
REMARK                            x       y       z     vdW  Elec       q    Type
REMARK                         _______ _______ _______ _____ _____    ______ ____
ROOT
ATOM      1  O   UNL     1     111.612 126.959 138.947  0.00  0.00    +0.000 OA
ENDROOT
BRANCH   1   5
ATOM      2  O   UNL     1     113.681 126.264 138.942  0.00  0.00    +0.000 OA
ATOM      3  O   UNL     1     111.625 126.027 137.585  0.00  0.00    +0.000 OA
ATOM      4  O   UNL     1     115.121 124.528 137.100  0.00  0.00    +0.000 OA
ATOM      5  C   UNL     1     112.304 126.572 138.719  0.00  0.00    +0.000 A 
ATOM      6  C   UNL     1     112.989 126.651 139.171  0.00  0.00    +0.000 A 
ATOM      7  C   UNL     1     112.310 126.106 138.038  0.00  0.00    +0.000 A 
ATOM      8  C   UNL     1     113.002 125.719 137.810  0.00  0.00    +0.000 A 
ATOM      9  C   UNL     1     113.688 125.799 138.262  0.00  0.00    +0.000 A 
ATOM     10  C   UNL     1     112.997 125.237 137.098  0.00  0.00    +0.000 A 
ATOM     11  C   UNL     1     114.415 125.400 138.034  0.00  0.00    +0.000 A 
ATOM     12  C   UNL     1     113.714 124.831 136.855  0.00  0.00    +0.000 A 
ATOM     13  C   UNL     1     114.428 124.914 137.326  0.00  0.00    +0.000 A 
BRANCH   6  16
ATOM     14  O   UNL     1     113.715 129.059 140.529  0.00  0.00    +0.000 OA
ATOM     15  O   UNL     1     112.963 128.516 141.894  0.00  0.00    +0.000 OA
ATOM     16  C   UNL     1     112.983 127.117 139.851  0.00  0.00    +0.000 A 
ATOM     17  C   UNL     1     113.352 127.855 139.850  0.00  0.00    +0.000 A 
ATOM     18  C   UNL     1     112.607 126.846 140.534  0.00  0.00    +0.000 A 
ATOM     19  C   UNL     1     113.346 128.322 140.531  0.00  0.00    +0.000 A 
ATOM     20  C   UNL     1     112.600 127.312 141.214  0.00  0.00    +0.000 A 
ATOM     21  C   UNL     1     112.970 128.050 141.213  0.00  0.00    +0.000 A 
ENDBRANCH   6  16
BRANCH  10  22
ATOM     22  O   UNL     1     112.306 125.164 136.652  0.00  0.00    +0.000 OA
ATOM     23  C   UNL     1     112.155 124.466 136.238  0.00  0.00    +0.000 C 
ENDBRANCH  10  22
ENDBRANCH   1   5
BRANCH   1  32
ATOM     24  O   UNL     1     111.711 127.961 137.934  0.00  0.00    +0.000 OA
ATOM     25  O   UNL     1     110.168 129.106 136.899  0.00  0.00    +0.000 OA
ATOM     26  O   UNL     1     109.246 128.175 137.902  0.00  0.00    +0.000 OA
ATOM     27  O   UNL     1     109.968 127.102 138.926  0.00  0.00    +0.000 OA
ATOM     28  C   UNL     1     111.350 128.497 137.422  0.00  0.00    +0.000 C 
ATOM     29  C   UNL     1     110.529 128.569 137.411  0.00  0.00    +0.000 C 
ATOM     30  C   UNL     1     110.068 128.103 137.913  0.00  0.00    +0.000 C 
ATOM     31  C   UNL     1     110.429 127.567 138.425  0.00  0.00    +0.000 C 
ATOM     32  C   UNL     1     111.251 127.496 138.435  0.00  0.00    +0.000 C 
BRANCH  28  33
ATOM     33  C   UNL     1     111.811 128.963 136.919  0.00  0.00    +0.000 C 
BRANCH  33  34
ATOM     34  O   UNL     1     112.408 129.440 137.231  0.00  0.00    +0.000 OA
BRANCH  34  40
ATOM     35  O   UNL     1     113.416 129.093 136.279  0.00  0.00    +0.000 OA
ATOM     36  O   UNL     1     112.967 130.992 137.257  0.00  0.00    +0.000 OA
ATOM     37  O   UNL     1     114.254 131.421 136.318  0.00  0.00    +0.000 OA
ATOM     38  O   UNL     1     114.983 130.298 135.353  0.00  0.00    +0.000 OA
ATOM     39  C   UNL     1     113.331 130.430 136.775  0.00  0.00    +0.000 C 
ATOM     40  C   UNL     1     113.052 129.654 136.762  0.00  0.00    +0.000 C 
ATOM     41  C   UNL     1     113.975 130.645 136.305  0.00  0.00    +0.000 C 
ATOM     42  C   UNL     1     114.339 130.083 135.823  0.00  0.00    +0.000 C 
ATOM     43  C   UNL     1     114.060 129.307 135.810  0.00  0.00    +0.000 C 
ATOM     44  C   UNL     1     114.424 128.746 135.328  0.00  0.00    +0.000 C 
ENDBRANCH  34  40
ENDBRANCH  33  34
ENDBRANCH  28  33
ENDBRANCH   1  32
TORSDOF 7
ENDMDL
MODEL 9
REMARK VINA RESULT:      -9.9      1.546      4.230
REMARK  Name = 44259530
REMARK  7 active torsions:
REMARK  status: ('A' for Active; 'I' for Inactive)
REMARK    1  A    between atoms: O_2  and  C_22
REMARK    2  A    between atoms: O_2  and  C_26
REMARK    3  A    between atoms: O_6  and  C_25
REMARK    4  A    between atoms: O_6  and  C_29
REMARK    5  A    between atoms: O_13  and  C_35
REMARK    6  A    between atoms: C_17  and  C_26
REMARK    7  A    between atoms: C_30  and  C_34
REMARK                            x       y       z     vdW  Elec       q    Type
REMARK                         _______ _______ _______ _____ _____    ______ ____
ROOT
ATOM      1  O   UNL     1     111.756 126.099 137.801  0.00  0.00    +0.000 OA
ENDROOT
BRANCH   1   5
ATOM      2  O   UNL     1     112.757 127.147 136.169  0.00  0.00    +0.000 OA
ATOM      3  O   UNL     1     110.662 127.291 137.479  0.00  0.00    +0.000 OA
ATOM      4  O   UNL     1     111.967 129.478 134.612  0.00  0.00    +0.000 OA
ATOM      5  C   UNL     1     111.908 126.646 137.203  0.00  0.00    +0.000 A 
ATOM      6  C   UNL     1     112.606 126.598 136.767  0.00  0.00    +0.000 A 
ATOM      7  C   UNL     1     111.360 127.243 137.042  0.00  0.00    +0.000 A 
ATOM      8  C   UNL     1     111.512 127.791 136.445  0.00  0.00    +0.000 A 
ATOM      9  C   UNL     1     112.210 127.743 136.008  0.00  0.00    +0.000 A 
ATOM     10  C   UNL     1     110.934 128.407 136.286  0.00  0.00    +0.000 A 
ATOM     11  C   UNL     1     112.379 128.308 135.383  0.00  0.00    +0.000 A 
ATOM     12  C   UNL     1     111.086 128.981 135.665  0.00  0.00    +0.000 A 
ATOM     13  C   UNL     1     111.813 128.931 135.210  0.00  0.00    +0.000 A 
BRANCH   6  16
ATOM     14  O   UNL     1     113.416 123.865 136.573  0.00  0.00    +0.000 OA
ATOM     15  O   UNL     1     114.794 124.214 137.411  0.00  0.00    +0.000 OA
ATOM     16  C   UNL     1     113.153 126.003 136.928  0.00  0.00    +0.000 A 
ATOM     17  C   UNL     1     113.011 125.232 136.670  0.00  0.00    +0.000 A 
ATOM     18  C   UNL     1     113.842 126.177 137.347  0.00  0.00    +0.000 A 
ATOM     19  C   UNL     1     113.558 124.635 136.831  0.00  0.00    +0.000 A 
ATOM     20  C   UNL     1     114.389 125.581 137.508  0.00  0.00    +0.000 A 
ATOM     21  C   UNL     1     114.247 124.810 137.250  0.00  0.00    +0.000 A 
ENDBRANCH   6  16
BRANCH  10  22
ATOM     22  O   UNL     1     110.238 128.447 136.728  0.00  0.00    +0.000 OA
ATOM     23  C   UNL     1     109.812 129.153 136.763  0.00  0.00    +0.000 C 
ENDBRANCH  10  22
ENDBRANCH   1   5
BRANCH   1  32
ATOM     24  O   UNL     1     111.991 127.042 138.847  0.00  0.00    +0.000 OA
ATOM     25  O   UNL     1     111.230 127.129 140.892  0.00  0.00    +0.000 OA
ATOM     26  O   UNL     1     110.498 125.756 140.344  0.00  0.00    +0.000 OA
ATOM     27  O   UNL     1     110.761 125.240 138.799  0.00  0.00    +0.000 OA
ATOM     28  C   UNL     1     111.859 127.300 139.620  0.00  0.00    +0.000 C 
ATOM     29  C   UNL     1     111.362 126.871 140.119  0.00  0.00    +0.000 C 
ATOM     30  C   UNL     1     110.995 126.184 139.845  0.00  0.00    +0.000 C 
ATOM     31  C   UNL     1     111.127 125.927 139.072  0.00  0.00    +0.000 C 
ATOM     32  C   UNL     1     111.625 126.356 138.574  0.00  0.00    +0.000 C 
BRANCH  28  33
ATOM     33  C   UNL     1     112.226 127.987 139.894  0.00  0.00    +0.000 C 
BRANCH  33  34
ATOM     34  O   UNL     1     113.048 128.050 139.879  0.00  0.00    +0.000 OA
BRANCH  34  40
ATOM     35  O   UNL     1     113.172 129.291 139.182  0.00  0.00    +0.000 OA
ATOM     36  O   UNL     1     114.223 128.527 140.935  0.00  0.00    +0.000 OA
ATOM     37  O   UNL     1     114.934 130.006 140.766  0.00  0.00    +0.000 OA
ATOM     38  O   UNL     1     114.470 131.009 139.541  0.00  0.00    +0.000 OA
ATOM     39  C   UNL     1     113.991 129.028 140.323  0.00  0.00    +0.000 C 
ATOM     40  C   UNL     1     113.403 128.789 139.794  0.00  0.00    +0.000 C 
ATOM     41  C   UNL     1     114.346 129.768 140.238  0.00  0.00    +0.000 C 
ATOM     42  C   UNL     1     114.114 130.269 139.625  0.00  0.00    +0.000 C 
ATOM     43  C   UNL     1     113.527 130.031 139.097  0.00  0.00    +0.000 C 
ATOM     44  C   UNL     1     113.295 130.533 138.485  0.00  0.00    +0.000 C 
ENDBRANCH  34  40
ENDBRANCH  33  34
ENDBRANCH  28  33
ENDBRANCH   1  32
TORSDOF 7
ENDMDL
MODEL 10
REMARK VINA RESULT:      -9.9      1.327      3.974
REMARK  Name = 44259530
REMARK  7 active torsions:
REMARK  status: ('A' for Active; 'I' for Inactive)
REMARK    1  A    between atoms: O_2  and  C_22
REMARK    2  A    between atoms: O_2  and  C_26
REMARK    3  A    between atoms: O_6  and  C_25
REMARK    4  A    between atoms: O_6  and  C_29
REMARK    5  A    between atoms: O_13  and  C_35
REMARK    6  A    between atoms: C_17  and  C_26
REMARK    7  A    between atoms: C_30  and  C_34
REMARK                            x       y       z     vdW  Elec       q    Type
REMARK                         _______ _______ _______ _____ _____    ______ ____
ROOT
ATOM      1  O   UNL     1     113.223 126.729 137.196  0.00  0.00    +0.000 OA
ENDROOT
BRANCH   1   5
ATOM      2  O   UNL     1     111.991 126.020 138.853  0.00  0.00    +0.000 OA
ATOM      3  O   UNL     1     113.537 127.882 138.334  0.00  0.00    +0.000 OA
ATOM      4  O   UNL     1     111.568 127.090 141.528  0.00  0.00    +0.000 OA
ATOM      5  C   UNL     1     112.865 126.684 137.938  0.00  0.00    +0.000 A 
ATOM      6  C   UNL     1     112.349 126.064 138.111  0.00  0.00    +0.000 A 
ATOM      7  C   UNL     1     113.022 127.261 138.507  0.00  0.00    +0.000 A 
ATOM      8  C   UNL     1     112.663 127.217 139.249  0.00  0.00    +0.000 A 
ATOM      9  C   UNL     1     112.148 126.596 139.421  0.00  0.00    +0.000 A 
ATOM     10  C   UNL     1     112.834 127.823 139.833  0.00  0.00    +0.000 A 
ATOM     11  C   UNL     1     111.768 126.539 140.191  0.00  0.00    +0.000 A 
ATOM     12  C   UNL     1     112.464 127.783 140.607  0.00  0.00    +0.000 A 
ATOM     13  C   UNL     1     111.928 127.137 140.787  0.00  0.00    +0.000 A 
BRANCH   6  16
ATOM     14  O   UNL     1     110.622 124.953 136.123  0.00  0.00    +0.000 OA
ATOM     15  O   UNL     1     111.722 123.758 135.835  0.00  0.00    +0.000 OA
ATOM     16  C   UNL     1     112.193 125.488 137.542  0.00  0.00    +0.000 A 
ATOM     17  C   UNL     1     111.486 125.509 137.118  0.00  0.00    +0.000 A 
ATOM     18  C   UNL     1     112.743 124.889 137.397  0.00  0.00    +0.000 A 
ATOM     19  C   UNL     1     111.329 124.932 136.548  0.00  0.00    +0.000 A 
ATOM     20  C   UNL     1     112.586 124.313 136.829  0.00  0.00    +0.000 A 
ATOM     21  C   UNL     1     111.879 124.335 136.404  0.00  0.00    +0.000 A 
ENDBRANCH   6  16
BRANCH  10  22
ATOM     22  O   UNL     1     113.351 128.440 139.651  0.00  0.00    +0.000 OA
ATOM     23  C   UNL     1     113.480 129.045 140.198  0.00  0.00    +0.000 C 
ENDBRANCH  10  22
ENDBRANCH   1   5
BRANCH   1  32
ATOM     24  O   UNL     1     112.414 127.814 136.742  0.00  0.00    +0.000 OA
ATOM     25  O   UNL     1     112.844 129.429 135.337  0.00  0.00    +0.000 OA
ATOM     26  O   UNL     1     114.275 128.607 135.316  0.00  0.00    +0.000 OA
ATOM     27  O   UNL     1     114.464 127.257 136.246  0.00  0.00    +0.000 OA
ATOM     28  C   UNL     1     112.319 128.489 136.277  0.00  0.00    +0.000 C 
ATOM     29  C   UNL     1     112.939 128.754 135.802  0.00  0.00    +0.000 C 
ATOM     30  C   UNL     1     113.655 128.342 135.792  0.00  0.00    +0.000 C 
ATOM     31  C   UNL     1     113.750 127.667 136.256  0.00  0.00    +0.000 C 
ATOM     32  C   UNL     1     113.129 127.404 136.732  0.00  0.00    +0.000 C 
BRANCH  28  33
ATOM     33  C   UNL     1     111.603 128.901 136.288  0.00  0.00    +0.000 C 
BRANCH  33  34
ATOM     34  O   UNL     1     110.892 128.494 136.189  0.00  0.00    +0.000 OA
BRANCH  34  40
ATOM     35  O   UNL     1     110.141 129.569 136.756  0.00  0.00    +0.000 OA
ATOM     36  O   UNL     1     109.523 127.916 135.471  0.00  0.00    +0.000 OA
ATOM     37  O   UNL     1     108.087 128.702 135.680  0.00  0.00    +0.000 OA
ATOM     38  O   UNL     1     108.021 130.066 136.606  0.00  0.00    +0.000 OA
ATOM     39  C   UNL     1     109.490 128.598 135.934  0.00  0.00    +0.000 C 
ATOM     40  C   UNL     1     110.175 128.887 136.293  0.00  0.00    +0.000 C 
ATOM     41  C   UNL     1     108.772 128.991 136.039  0.00  0.00    +0.000 C 
ATOM     42  C   UNL     1     108.739 129.673 136.502  0.00  0.00    +0.000 C 
ATOM     43  C   UNL     1     109.423 129.962 136.861  0.00  0.00    +0.000 C 
ATOM     44  C   UNL     1     109.389 130.644 137.324  0.00  0.00    +0.000 C 
ENDBRANCH  34  40
ENDBRANCH  33  34
ENDBRANCH  28  33
ENDBRANCH   1  32
TORSDOF 7
ENDMDL
