MODEL 1
REMARK VINA RESULT:      -9.1      0.000      0.000
REMARK  Name = 
REMARK  3 active torsions:
REMARK  status: ('A' for Active; 'I' for Inactive)
REMARK    1  A    between atoms: C_6  and  C_14
REMARK    2  A    between atoms: C_10  and  C_11
REMARK    3  A    between atoms: C_19  and  C_22
REMARK                            x       y       z     vdW  Elec       q    Type
REMARK                         _______ _______ _______ _____ _____    ______ ____
ROOT
ATOM      1  C   UNL     1     112.946 124.291 137.000  0.00  0.00    +0.000 A 
ATOM      2  C   UNL     1     112.139 124.575 137.522  0.00  0.00    +0.000 A 
ATOM      3  C   UNL     1     111.954 125.546 137.667  0.00  0.00    +0.000 A 
ATOM      4  C   UNL     1     113.566 124.975 136.625  0.00  0.00    +0.000 A 
ATOM      5  C   UNL     1     113.386 125.947 136.766  0.00  0.00    +0.000 A 
ATOM      6  C   UNL     1     112.577 126.230 137.289  0.00  0.00    +0.000 A 
ATOM      7  O   UNL     1     112.392 127.201 137.434  0.00  0.00    +0.000 OA
ATOM      8  C   UNL     1     113.012 127.893 137.058  0.00  0.00    +0.000 A 
ATOM      9  C   UNL     1     113.820 127.608 136.536  0.00  0.00    +0.000 A 
ATOM     10  C   UNL     1     114.008 126.632 136.389  0.00  0.00    +0.000 A 
ATOM     11  O   UNL     1     114.812 126.348 135.868  0.00  0.00    +0.000 OA
ATOM     12  O   UNL     1     114.369 124.688 136.105  0.00  0.00    +0.000 OA
ATOM     13  O   UNL     1     111.519 123.887 137.898  0.00  0.00    +0.000 OA
ENDROOT
BRANCH   3  18
ATOM     14  O   UNL     1     110.238 125.927 136.717  0.00  0.00    +0.000 OA
ATOM     15  O   UNL     1     108.619 126.479 137.760  0.00  0.00    +0.000 OA
ATOM     16  O   UNL     1     108.724 126.649 139.748  0.00  0.00    +0.000 OA
ATOM     17  O   UNL     1     111.200 125.907 139.185  0.00  0.00    +0.000 OA
ATOM     18  C   UNL     1     111.150 125.821 138.186  0.00  0.00    +0.000 C 
ATOM     19  C   UNL     1     110.290 126.012 137.711  0.00  0.00    +0.000 C 
ATOM     20  C   UNL     1     109.479 126.288 138.235  0.00  0.00    +0.000 C 
ATOM     21  C   UNL     1     109.532 126.373 139.229  0.00  0.00    +0.000 C 
ATOM     22  C   UNL     1     110.393 126.182 139.703  0.00  0.00    +0.000 C 
BRANCH  22  24
ATOM     23  O   UNL     1     111.390 126.119 140.998  0.00  0.00    +0.000 OA
ATOM     24  C   UNL     1     110.445 126.267 140.698  0.00  0.00    +0.000 C 
ENDBRANCH  22  24
ENDBRANCH   3  18
BRANCH   8  25
ATOM     25  C   UNL     1     112.826 128.864 137.204  0.00  0.00    +0.000 A 
ATOM     26  C   UNL     1     112.439 129.410 136.467  0.00  0.00    +0.000 A 
ATOM     27  C   UNL     1     112.252 130.380 136.612  0.00  0.00    +0.000 A 
ATOM     28  C   UNL     1     112.454 130.802 137.496  0.00  0.00    +0.000 A 
ATOM     29  C   UNL     1     112.844 130.246 138.237  0.00  0.00    +0.000 A 
ATOM     30  C   UNL     1     113.029 129.278 138.087  0.00  0.00    +0.000 A 
ATOM     31  O   UNL     1     112.268 131.773 137.643  0.00  0.00    +0.000 OA
ATOM     32  O   UNL     1     113.047 130.664 139.122  0.00  0.00    +0.000 OA
ENDBRANCH   8  25
TORSDOF 3
ENDMDL
MODEL 2
REMARK VINA RESULT:      -9.1      1.817      4.372
REMARK  Name = 
REMARK  3 active torsions:
REMARK  status: ('A' for Active; 'I' for Inactive)
REMARK    1  A    between atoms: C_6  and  C_14
REMARK    2  A    between atoms: C_10  and  C_11
REMARK    3  A    between atoms: C_19  and  C_22
REMARK                            x       y       z     vdW  Elec       q    Type
REMARK                         _______ _______ _______ _____ _____    ______ ____
ROOT
ATOM      1  C   UNL     1     113.441 130.995 136.903  0.00  0.00    +0.000 A 
ATOM      2  C   UNL     1     112.654 130.720 137.460  0.00  0.00    +0.000 A 
ATOM      3  C   UNL     1     112.372 129.762 137.487  0.00  0.00    +0.000 A 
ATOM      4  C   UNL     1     113.944 130.314 136.377  0.00  0.00    +0.000 A 
ATOM      5  C   UNL     1     113.666 129.356 136.401  0.00  0.00    +0.000 A 
ATOM      6  C   UNL     1     112.877 129.082 136.958  0.00  0.00    +0.000 A 
ATOM      7  O   UNL     1     112.595 128.125 136.986  0.00  0.00    +0.000 OA
ATOM      8  C   UNL     1     113.097 127.436 136.458  0.00  0.00    +0.000 A 
ATOM      9  C   UNL     1     113.885 127.711 135.901  0.00  0.00    +0.000 A 
ATOM     10  C   UNL     1     114.171 128.674 135.872  0.00  0.00    +0.000 A 
ATOM     11  O   UNL     1     114.956 128.949 135.318  0.00  0.00    +0.000 OA
ATOM     12  O   UNL     1     114.728 130.592 135.823  0.00  0.00    +0.000 OA
ATOM     13  O   UNL     1     112.152 131.405 137.987  0.00  0.00    +0.000 OA
ENDROOT
BRANCH   3  18
ATOM     14  O   UNL     1     110.537 129.787 136.696  0.00  0.00    +0.000 OA
ATOM     15  O   UNL     1     108.960 129.254 137.810  0.00  0.00    +0.000 OA
ATOM     16  O   UNL     1     109.224 128.699 139.711  0.00  0.00    +0.000 OA
ATOM     17  O   UNL     1     111.719 129.218 138.998  0.00  0.00    +0.000 OA
ATOM     18  C   UNL     1     111.589 129.497 138.042  0.00  0.00    +0.000 C 
ATOM     19  C   UNL     1     110.669 129.509 137.646  0.00  0.00    +0.000 C 
ATOM     20  C   UNL     1     109.879 129.242 138.206  0.00  0.00    +0.000 C 
ATOM     21  C   UNL     1     110.012 128.964 139.156  0.00  0.00    +0.000 C 
ATOM     22  C   UNL     1     110.932 128.952 139.552  0.00  0.00    +0.000 C 
BRANCH  22  24
ATOM     23  O   UNL     1     112.035 128.744 140.741  0.00  0.00    +0.000 OA
ATOM     24  C   UNL     1     111.064 128.675 140.502  0.00  0.00    +0.000 C 
ENDBRANCH  22  24
ENDBRANCH   3  18
BRANCH   8  25
ATOM     25  C   UNL     1     112.813 126.478 136.487  0.00  0.00    +0.000 A 
ATOM     26  C   UNL     1     113.409 125.797 136.903  0.00  0.00    +0.000 A 
ATOM     27  C   UNL     1     113.126 124.840 136.931  0.00  0.00    +0.000 A 
ATOM     28  C   UNL     1     112.245 124.567 136.544  0.00  0.00    +0.000 A 
ATOM     29  C   UNL     1     111.648 125.258 136.125  0.00  0.00    +0.000 A 
ATOM     30  C   UNL     1     111.934 126.212 136.099  0.00  0.00    +0.000 A 
ATOM     31  O   UNL     1     111.960 123.609 136.572  0.00  0.00    +0.000 OA
ATOM     32  O   UNL     1     110.767 124.989 135.737  0.00  0.00    +0.000 OA
ENDBRANCH   8  25
TORSDOF 3
ENDMDL
MODEL 3
REMARK VINA RESULT:      -9.1      1.893      5.040
REMARK  Name = 
REMARK  3 active torsions:
REMARK  status: ('A' for Active; 'I' for Inactive)
REMARK    1  A    between atoms: C_6  and  C_14
REMARK    2  A    between atoms: C_10  and  C_11
REMARK    3  A    between atoms: C_19  and  C_22
REMARK                            x       y       z     vdW  Elec       q    Type
REMARK                         _______ _______ _______ _____ _____    ______ ____
ROOT
ATOM      1  C   UNL     1     113.415 129.971 139.839  0.00  0.00    +0.000 A 
ATOM      2  C   UNL     1     112.873 130.066 139.001  0.00  0.00    +0.000 A 
ATOM      3  C   UNL     1     112.612 129.253 138.482  0.00  0.00    +0.000 A 
ATOM      4  C   UNL     1     113.694 129.069 140.157  0.00  0.00    +0.000 A 
ATOM      5  C   UNL     1     113.435 128.254 139.641  0.00  0.00    +0.000 A 
ATOM      6  C   UNL     1     112.893 128.349 138.802  0.00  0.00    +0.000 A 
ATOM      7  O   UNL     1     112.631 127.538 138.282  0.00  0.00    +0.000 OA
ATOM      8  C   UNL     1     112.909 126.627 138.597  0.00  0.00    +0.000 A 
ATOM      9  C   UNL     1     113.451 126.533 139.436  0.00  0.00    +0.000 A 
ATOM     10  C   UNL     1     113.716 127.349 139.961  0.00  0.00    +0.000 A 
ATOM     11  O   UNL     1     114.255 127.256 140.796  0.00  0.00    +0.000 OA
ATOM     12  O   UNL     1     114.233 128.979 140.992  0.00  0.00    +0.000 OA
ATOM     13  O   UNL     1     112.595 130.972 138.685  0.00  0.00    +0.000 OA
ENDROOT
BRANCH   3  18
ATOM     14  O   UNL     1     113.532 129.436 136.717  0.00  0.00    +0.000 OA
ATOM     15  O   UNL     1     112.453 129.641 135.043  0.00  0.00    +0.000 OA
ATOM     16  O   UNL     1     110.457 129.661 135.139  0.00  0.00    +0.000 OA
ATOM     17  O   UNL     1     111.071 129.365 137.695  0.00  0.00    +0.000 OA
ATOM     18  C   UNL     1     112.074 129.355 137.650  0.00  0.00    +0.000 C 
ATOM     19  C   UNL     1     112.535 129.446 136.765  0.00  0.00    +0.000 C 
ATOM     20  C   UNL     1     111.992 129.549 135.927  0.00  0.00    +0.000 C 
ATOM     21  C   UNL     1     110.994 129.559 135.975  0.00  0.00    +0.000 C 
ATOM     22  C   UNL     1     110.535 129.467 136.860  0.00  0.00    +0.000 C 
BRANCH  22  24
ATOM     23  O   UNL     1     109.234 128.971 137.718  0.00  0.00    +0.000 OA
ATOM     24  C   UNL     1     109.536 129.478 136.909  0.00  0.00    +0.000 C 
ENDBRANCH  22  24
ENDBRANCH   3  18
BRANCH   8  25
ATOM     25  C   UNL     1     112.647 125.816 138.076  0.00  0.00    +0.000 A 
ATOM     26  C   UNL     1     111.728 125.442 138.169  0.00  0.00    +0.000 A 
ATOM     27  C   UNL     1     111.466 124.632 137.649  0.00  0.00    +0.000 A 
ATOM     28  C   UNL     1     112.124 124.196 137.035  0.00  0.00    +0.000 A 
ATOM     29  C   UNL     1     113.050 124.577 136.944  0.00  0.00    +0.000 A 
ATOM     30  C   UNL     1     113.308 125.387 137.465  0.00  0.00    +0.000 A 
ATOM     31  O   UNL     1     111.863 123.384 136.513  0.00  0.00    +0.000 OA
ATOM     32  O   UNL     1     113.711 124.145 136.332  0.00  0.00    +0.000 OA
ENDBRANCH   8  25
TORSDOF 3
ENDMDL
MODEL 4
REMARK VINA RESULT:      -9.1      1.650      4.591
REMARK  Name = 
REMARK  3 active torsions:
REMARK  status: ('A' for Active; 'I' for Inactive)
REMARK    1  A    between atoms: C_6  and  C_14
REMARK    2  A    between atoms: C_10  and  C_11
REMARK    3  A    between atoms: C_19  and  C_22
REMARK                            x       y       z     vdW  Elec       q    Type
REMARK                         _______ _______ _______ _____ _____    ______ ____
ROOT
ATOM      1  C   UNL     1     113.335 130.856 137.503  0.00  0.00    +0.000 A 
ATOM      2  C   UNL     1     112.855 130.417 138.265  0.00  0.00    +0.000 A 
ATOM      3  C   UNL     1     112.731 129.426 138.273  0.00  0.00    +0.000 A 
ATOM      4  C   UNL     1     113.689 130.306 136.751  0.00  0.00    +0.000 A 
ATOM      5  C   UNL     1     113.567 129.315 136.754  0.00  0.00    +0.000 A 
ATOM      6  C   UNL     1     113.086 128.876 137.518  0.00  0.00    +0.000 A 
ATOM      7  O   UNL     1     112.962 127.886 137.526  0.00  0.00    +0.000 OA
ATOM      8  C   UNL     1     113.316 127.328 136.772  0.00  0.00    +0.000 A 
ATOM      9  C   UNL     1     113.796 127.767 136.009  0.00  0.00    +0.000 A 
ATOM     10  C   UNL     1     113.922 128.765 135.998  0.00  0.00    +0.000 A 
ATOM     11  O   UNL     1     114.401 129.203 135.239  0.00  0.00    +0.000 OA
ATOM     12  O   UNL     1     114.166 130.747 135.992  0.00  0.00    +0.000 OA
ATOM     13  O   UNL     1     112.501 130.971 139.018  0.00  0.00    +0.000 OA
ENDROOT
BRANCH   3  18
ATOM     14  O   UNL     1     113.750 128.860 139.896  0.00  0.00    +0.000 OA
ATOM     15  O   UNL     1     112.792 127.997 141.429  0.00  0.00    +0.000 OA
ATOM     16  O   UNL     1     110.818 127.704 141.332  0.00  0.00    +0.000 OA
ATOM     17  O   UNL     1     111.261 128.848 138.988  0.00  0.00    +0.000 OA
ATOM     18  C   UNL     1     112.253 128.997 139.034  0.00  0.00    +0.000 C 
ATOM     19  C   UNL     1     112.764 128.713 139.848  0.00  0.00    +0.000 C 
ATOM     20  C   UNL     1     112.282 128.281 140.615  0.00  0.00    +0.000 C 
ATOM     21  C   UNL     1     111.295 128.134 140.567  0.00  0.00    +0.000 C 
ATOM     22  C   UNL     1     110.785 128.418 139.753  0.00  0.00    +0.000 C 
BRANCH  22  24
ATOM     23  O   UNL     1     109.431 128.719 138.887  0.00  0.00    +0.000 OA
ATOM     24  C   UNL     1     109.798 128.271 139.704  0.00  0.00    +0.000 C 
ENDBRANCH  22  24
ENDBRANCH   3  18
BRANCH   8  25
ATOM     25  C   UNL     1     113.190 126.337 136.781  0.00  0.00    +0.000 A 
ATOM     26  C   UNL     1     113.909 125.749 137.142  0.00  0.00    +0.000 A 
ATOM     27  C   UNL     1     113.785 124.759 137.151  0.00  0.00    +0.000 A 
ATOM     28  C   UNL     1     112.939 124.357 136.799  0.00  0.00    +0.000 A 
ATOM     29  C   UNL     1     112.216 124.954 136.437  0.00  0.00    +0.000 A 
ATOM     30  C   UNL     1     112.345 125.943 136.429  0.00  0.00    +0.000 A 
ATOM     31  O   UNL     1     112.812 123.366 136.808  0.00  0.00    +0.000 OA
ATOM     32  O   UNL     1     111.369 124.557 136.084  0.00  0.00    +0.000 OA
ENDBRANCH   8  25
TORSDOF 3
ENDMDL
MODEL 5
REMARK VINA RESULT:      -9.0      2.083      5.797
REMARK  Name = 
REMARK  3 active torsions:
REMARK  status: ('A' for Active; 'I' for Inactive)
REMARK    1  A    between atoms: C_6  and  C_14
REMARK    2  A    between atoms: C_10  and  C_11
REMARK    3  A    between atoms: C_19  and  C_22
REMARK                            x       y       z     vdW  Elec       q    Type
REMARK                         _______ _______ _______ _____ _____    ______ ____
ROOT
ATOM      1  C   UNL     1     109.182 131.091 136.205  0.00  0.00    +0.000 A 
ATOM      2  C   UNL     1     110.121 131.161 136.549  0.00  0.00    +0.000 A 
ATOM      3  C   UNL     1     110.649 130.332 136.729  0.00  0.00    +0.000 A 
ATOM      4  C   UNL     1     108.774 130.197 136.041  0.00  0.00    +0.000 A 
ATOM      5  C   UNL     1     109.298 129.366 136.219  0.00  0.00    +0.000 A 
ATOM      6  C   UNL     1     110.238 129.437 136.564  0.00  0.00    +0.000 A 
ATOM      7  O   UNL     1     110.766 128.609 136.744  0.00  0.00    +0.000 OA
ATOM      8  C   UNL     1     110.360 127.707 136.581  0.00  0.00    +0.000 A 
ATOM      9  C   UNL     1     109.421 127.637 136.236  0.00  0.00    +0.000 A 
ATOM     10  C   UNL     1     108.887 128.470 136.054  0.00  0.00    +0.000 A 
ATOM     11  O   UNL     1     107.951 128.401 135.711  0.00  0.00    +0.000 OA
ATOM     12  O   UNL     1     107.838 130.132 135.697  0.00  0.00    +0.000 OA
ATOM     13  O   UNL     1     110.528 132.059 136.712  0.00  0.00    +0.000 OA
ENDROOT
BRANCH   3  18
ATOM     14  O   UNL     1     110.979 130.485 138.694  0.00  0.00    +0.000 OA
ATOM     15  O   UNL     1     112.852 130.640 139.385  0.00  0.00    +0.000 OA
ATOM     16  O   UNL     1     114.389 130.642 138.108  0.00  0.00    +0.000 OA
ATOM     17  O   UNL     1     112.355 130.410 136.432  0.00  0.00    +0.000 OA
ATOM     18  C   UNL     1     111.581 130.409 137.071  0.00  0.00    +0.000 C 
ATOM     19  C   UNL     1     111.747 130.486 138.056  0.00  0.00    +0.000 C 
ATOM     20  C   UNL     1     112.686 130.563 138.401  0.00  0.00    +0.000 C 
ATOM     21  C   UNL     1     113.455 130.564 137.762  0.00  0.00    +0.000 C 
ATOM     22  C   UNL     1     113.288 130.488 136.778  0.00  0.00    +0.000 C 
BRANCH  22  24
ATOM     23  O   UNL     1     113.834 129.921 135.344  0.00  0.00    +0.000 OA
ATOM     24  C   UNL     1     114.057 130.488 136.139  0.00  0.00    +0.000 C 
ENDBRANCH  22  24
ENDBRANCH   3  18
BRANCH   8  25
ATOM     25  C   UNL     1     110.890 126.879 136.761  0.00  0.00    +0.000 A 
ATOM     26  C   UNL     1     111.576 126.577 136.106  0.00  0.00    +0.000 A 
ATOM     27  C   UNL     1     112.106 125.750 136.286  0.00  0.00    +0.000 A 
ATOM     28  C   UNL     1     111.948 125.227 137.123  0.00  0.00    +0.000 A 
ATOM     29  C   UNL     1     111.255 125.536 137.782  0.00  0.00    +0.000 A 
ATOM     30  C   UNL     1     110.728 126.362 137.598  0.00  0.00    +0.000 A 
ATOM     31  O   UNL     1     112.478 124.399 137.305  0.00  0.00    +0.000 OA
ATOM     32  O   UNL     1     111.094 125.016 138.620  0.00  0.00    +0.000 OA
ENDBRANCH   8  25
TORSDOF 3
ENDMDL
MODEL 6
REMARK VINA RESULT:      -8.9      2.215      3.793
REMARK  Name = 
REMARK  3 active torsions:
REMARK  status: ('A' for Active; 'I' for Inactive)
REMARK    1  A    between atoms: C_6  and  C_14
REMARK    2  A    between atoms: C_10  and  C_11
REMARK    3  A    between atoms: C_19  and  C_22
REMARK                            x       y       z     vdW  Elec       q    Type
REMARK                         _______ _______ _______ _____ _____    ______ ____
ROOT
ATOM      1  C   UNL     1     112.929 125.502 137.620  0.00  0.00    +0.000 A 
ATOM      2  C   UNL     1     113.035 126.384 138.085  0.00  0.00    +0.000 A 
ATOM      3  C   UNL     1     112.503 127.174 137.784  0.00  0.00    +0.000 A 
ATOM      4  C   UNL     1     112.295 125.412 136.857  0.00  0.00    +0.000 A 
ATOM      5  C   UNL     1     111.761 126.199 136.552  0.00  0.00    +0.000 A 
ATOM      6  C   UNL     1     111.868 127.081 137.019  0.00  0.00    +0.000 A 
ATOM      7  O   UNL     1     111.337 127.871 136.718  0.00  0.00    +0.000 OA
ATOM      8  C   UNL     1     110.697 127.786 135.951  0.00  0.00    +0.000 A 
ATOM      9  C   UNL     1     110.592 126.904 135.485  0.00  0.00    +0.000 A 
ATOM     10  C   UNL     1     111.125 126.106 135.786  0.00  0.00    +0.000 A 
ATOM     11  O   UNL     1     111.021 125.227 135.323  0.00  0.00    +0.000 OA
ATOM     12  O   UNL     1     112.192 124.532 136.396  0.00  0.00    +0.000 OA
ATOM     13  O   UNL     1     113.671 126.472 138.851  0.00  0.00    +0.000 OA
ENDROOT
BRANCH   3  18
ATOM     14  O   UNL     1     111.408 127.580 139.406  0.00  0.00    +0.000 OA
ATOM     15  O   UNL     1     111.628 129.334 140.348  0.00  0.00    +0.000 OA
ATOM     16  O   UNL     1     112.941 130.675 139.665  0.00  0.00    +0.000 OA
ATOM     17  O   UNL     1     113.272 128.722 137.910  0.00  0.00    +0.000 OA
ATOM     18  C   UNL     1     112.613 128.047 138.252  0.00  0.00    +0.000 C 
ATOM     19  C   UNL     1     112.065 128.250 139.065  0.00  0.00    +0.000 C 
ATOM     20  C   UNL     1     112.176 129.130 139.536  0.00  0.00    +0.000 C 
ATOM     21  C   UNL     1     112.833 129.801 139.194  0.00  0.00    +0.000 C 
ATOM     22  C   UNL     1     113.381 129.596 138.381  0.00  0.00    +0.000 C 
BRANCH  22  24
ATOM     23  O   UNL     1     114.114 130.185 137.043  0.00  0.00    +0.000 OA
ATOM     24  C   UNL     1     114.038 130.267 138.039  0.00  0.00    +0.000 C 
ENDBRANCH  22  24
ENDBRANCH   3  18
BRANCH   8  25
ATOM     25  C   UNL     1     110.167 128.577 135.651  0.00  0.00    +0.000 A 
ATOM     26  C   UNL     1     110.554 129.213 134.989  0.00  0.00    +0.000 A 
ATOM     27  C   UNL     1     110.024 130.004 134.690  0.00  0.00    +0.000 A 
ATOM     28  C   UNL     1     109.106 130.158 135.053  0.00  0.00    +0.000 A 
ATOM     29  C   UNL     1     108.718 129.514 135.721  0.00  0.00    +0.000 A 
ATOM     30  C   UNL     1     109.251 128.725 136.017  0.00  0.00    +0.000 A 
ATOM     31  O   UNL     1     108.574 130.950 134.754  0.00  0.00    +0.000 OA
ATOM     32  O   UNL     1     107.801 129.664 136.087  0.00  0.00    +0.000 OA
ENDBRANCH   8  25
TORSDOF 3
ENDMDL
MODEL 7
REMARK VINA RESULT:      -8.8      2.433      3.310
REMARK  Name = 
REMARK  3 active torsions:
REMARK  status: ('A' for Active; 'I' for Inactive)
REMARK    1  A    between atoms: C_6  and  C_14
REMARK    2  A    between atoms: C_10  and  C_11
REMARK    3  A    between atoms: C_19  and  C_22
REMARK                            x       y       z     vdW  Elec       q    Type
REMARK                         _______ _______ _______ _____ _____    ______ ____
ROOT
ATOM      1  C   UNL     1     110.040 125.884 136.789  0.00  0.00    +0.000 A 
ATOM      2  C   UNL     1     109.641 126.801 136.729  0.00  0.00    +0.000 A 
ATOM      3  C   UNL     1     110.231 127.593 136.574  0.00  0.00    +0.000 A 
ATOM      4  C   UNL     1     111.024 125.759 136.694  0.00  0.00    +0.000 A 
ATOM      5  C   UNL     1     111.618 126.547 136.539  0.00  0.00    +0.000 A 
ATOM      6  C   UNL     1     111.217 127.465 136.479  0.00  0.00    +0.000 A 
ATOM      7  O   UNL     1     111.806 128.256 136.325  0.00  0.00    +0.000 OA
ATOM      8  C   UNL     1     112.796 128.136 136.229  0.00  0.00    +0.000 A 
ATOM      9  C   UNL     1     113.195 127.218 136.288  0.00  0.00    +0.000 A 
ATOM     10  C   UNL     1     112.605 126.419 136.444  0.00  0.00    +0.000 A 
ATOM     11  O   UNL     1     113.002 125.504 136.504  0.00  0.00    +0.000 OA
ATOM     12  O   UNL     1     111.418 124.843 136.754  0.00  0.00    +0.000 OA
ATOM     13  O   UNL     1     108.654 126.924 136.824  0.00  0.00    +0.000 OA
ENDROOT
BRANCH   3  18
ATOM     14  O   UNL     1     109.725 128.345 134.793  0.00  0.00    +0.000 OA
ATOM     15  O   UNL     1     108.913 130.172 134.672  0.00  0.00    +0.000 OA
ATOM     16  O   UNL     1     108.609 131.239 136.334  0.00  0.00    +0.000 OA
ATOM     17  O   UNL     1     109.673 129.040 137.349  0.00  0.00    +0.000 OA
ATOM     18  C   UNL     1     109.827 128.501 136.516  0.00  0.00    +0.000 C 
ATOM     19  C   UNL     1     109.573 128.879 135.623  0.00  0.00    +0.000 C 
ATOM     20  C   UNL     1     109.166 129.795 135.564  0.00  0.00    +0.000 C 
ATOM     21  C   UNL     1     109.015 130.328 136.395  0.00  0.00    +0.000 C 
ATOM     22  C   UNL     1     109.268 129.950 137.287  0.00  0.00    +0.000 C 
BRANCH  22  24
ATOM     23  O   UNL     1     108.787 129.883 138.848  0.00  0.00    +0.000 OA
ATOM     24  C   UNL     1     109.117 130.484 138.118  0.00  0.00    +0.000 C 
ENDBRANCH  22  24
ENDBRANCH   3  18
BRANCH   8  25
ATOM     25  C   UNL     1     113.384 128.929 136.074  0.00  0.00    +0.000 A 
ATOM     26  C   UNL     1     113.884 129.016 135.217  0.00  0.00    +0.000 A 
ATOM     27  C   UNL     1     114.471 129.808 135.061  0.00  0.00    +0.000 A 
ATOM     28  C   UNL     1     114.557 130.513 135.766  0.00  0.00    +0.000 A 
ATOM     29  C   UNL     1     114.051 130.421 136.629  0.00  0.00    +0.000 A 
ATOM     30  C   UNL     1     113.466 129.628 136.779  0.00  0.00    +0.000 A 
ATOM     31  O   UNL     1     115.145 131.307 135.612  0.00  0.00    +0.000 OA
ATOM     32  O   UNL     1     114.134 131.123 137.335  0.00  0.00    +0.000 OA
ENDBRANCH   8  25
TORSDOF 3
ENDMDL
MODEL 8
REMARK VINA RESULT:      -8.8      2.130      4.324
REMARK  Name = 
REMARK  3 active torsions:
REMARK  status: ('A' for Active; 'I' for Inactive)
REMARK    1  A    between atoms: C_6  and  C_14
REMARK    2  A    between atoms: C_10  and  C_11
REMARK    3  A    between atoms: C_19  and  C_22
REMARK                            x       y       z     vdW  Elec       q    Type
REMARK                         _______ _______ _______ _____ _____    ______ ____
ROOT
ATOM      1  C   UNL     1     110.166 127.085 134.635  0.00  0.00    +0.000 A 
ATOM      2  C   UNL     1     110.264 127.982 135.072  0.00  0.00    +0.000 A 
ATOM      3  C   UNL     1     110.701 128.056 135.967  0.00  0.00    +0.000 A 
ATOM      4  C   UNL     1     110.505 126.266 135.092  0.00  0.00    +0.000 A 
ATOM      5  C   UNL     1     110.943 126.335 135.986  0.00  0.00    +0.000 A 
ATOM      6  C   UNL     1     111.040 127.234 136.423  0.00  0.00    +0.000 A 
ATOM      7  O   UNL     1     111.477 127.309 137.317  0.00  0.00    +0.000 OA
ATOM      8  C   UNL     1     111.819 126.488 137.781  0.00  0.00    +0.000 A 
ATOM      9  C   UNL     1     111.722 125.591 137.343  0.00  0.00    +0.000 A 
ATOM     10  C   UNL     1     111.282 125.513 136.443  0.00  0.00    +0.000 A 
ATOM     11  O   UNL     1     111.184 124.619 136.006  0.00  0.00    +0.000 OA
ATOM     12  O   UNL     1     110.405 125.374 134.653  0.00  0.00    +0.000 OA
ATOM     13  O   UNL     1     109.923 128.801 134.612  0.00  0.00    +0.000 OA
ENDROOT
BRANCH   3  18
ATOM     14  O   UNL     1     112.343 129.148 135.643  0.00  0.00    +0.000 OA
ATOM     15  O   UNL     1     112.534 130.947 136.502  0.00  0.00    +0.000 OA
ATOM     16  O   UNL     1     111.081 131.648 137.682  0.00  0.00    +0.000 OA
ATOM     17  O   UNL     1     110.067 129.305 136.988  0.00  0.00    +0.000 OA
ATOM     18  C   UNL     1     110.795 128.951 136.395  0.00  0.00    +0.000 C 
ATOM     19  C   UNL     1     111.618 129.498 136.232  0.00  0.00    +0.000 C 
ATOM     20  C   UNL     1     111.712 130.400 136.664  0.00  0.00    +0.000 C 
ATOM     21  C   UNL     1     110.985 130.750 137.254  0.00  0.00    +0.000 C 
ATOM     22  C   UNL     1     110.163 130.202 137.416  0.00  0.00    +0.000 C 
BRANCH  22  24
ATOM     23  O   UNL     1     108.802 129.811 138.233  0.00  0.00    +0.000 OA
ATOM     24  C   UNL     1     109.436 130.552 138.006  0.00  0.00    +0.000 C 
ENDBRANCH  22  24
ENDBRANCH   3  18
BRANCH   8  25
ATOM     25  C   UNL     1     112.257 126.565 138.676  0.00  0.00    +0.000 A 
ATOM     26  C   UNL     1     113.228 126.778 138.737  0.00  0.00    +0.000 A 
ATOM     27  C   UNL     1     113.665 126.854 139.631  0.00  0.00    +0.000 A 
ATOM     28  C   UNL     1     113.128 126.717 140.464  0.00  0.00    +0.000 A 
ATOM     29  C   UNL     1     112.149 126.502 140.397  0.00  0.00    +0.000 A 
ATOM     30  C   UNL     1     111.716 126.427 139.502  0.00  0.00    +0.000 A 
ATOM     31  O   UNL     1     113.565 126.793 141.360  0.00  0.00    +0.000 OA
ATOM     32  O   UNL     1     111.610 126.365 141.227  0.00  0.00    +0.000 OA
ENDBRANCH   8  25
TORSDOF 3
ENDMDL
