MODEL 1
REMARK VINA RESULT:      -7.3      0.000      0.000
REMARK  Name = 75072282
REMARK  5 active torsions:
REMARK  status: ('A' for Active; 'I' for Inactive)
REMARK    1  A    between atoms: O_3  and  C_17
REMARK    2  A    between atoms: O_4  and  C_19
REMARK    3  A    between atoms: O_5  and  C_20
REMARK    4  A    between atoms: O_6  and  C_21
REMARK    5  A    between atoms: C_7  and  C_11
REMARK                            x       y       z     vdW  Elec       q    Type
REMARK                         _______ _______ _______ _____ _____    ______ ____
ROOT
ATOM      1  O   UNL     1     113.516 127.610 136.241  0.00  0.00    +0.000 OA
ATOM      2  O   UNL     1     114.504 128.395 135.140  0.00  0.00    +0.000 OA
ATOM      3  C   UNL     1     113.030 127.215 136.780  0.00  0.00    +0.000 C 
ATOM      4  C   UNL     1     112.687 127.629 137.406  0.00  0.00    +0.000 C 
ATOM      5  C   UNL     1     112.831 128.437 137.494  0.00  0.00    +0.000 C 
ATOM      6  C   UNL     1     113.316 128.831 136.957  0.00  0.00    +0.000 A 
ATOM      7  C   UNL     1     113.658 128.417 136.330  0.00  0.00    +0.000 A 
ATOM      8  C   UNL     1     113.458 129.672 137.059  0.00  0.00    +0.000 A 
ATOM      9  C   UNL     1     114.166 128.817 135.763  0.00  0.00    +0.000 A 
ATOM     10  C   UNL     1     114.319 129.658 135.850  0.00  0.00    +0.000 A 
ATOM     11  C   UNL     1     113.962 130.088 136.502  0.00  0.00    +0.000 A 
ENDROOT
BRANCH   3  12
ATOM     12  C   UNL     1     112.887 126.408 136.691  0.00  0.00    +0.000 A 
ATOM     13  C   UNL     1     112.193 126.149 136.327  0.00  0.00    +0.000 A 
ATOM     14  C   UNL     1     113.439 125.859 136.966  0.00  0.00    +0.000 A 
ATOM     15  C   UNL     1     113.296 125.051 136.877  0.00  0.00    +0.000 A 
ATOM     16  C   UNL     1     112.051 125.340 136.239  0.00  0.00    +0.000 A 
ATOM     17  C   UNL     1     112.602 124.792 136.514  0.00  0.00    +0.000 A 
BRANCH  15  18
ATOM     18  O   UNL     1     113.848 124.502 137.152  0.00  0.00    +0.000 OA
ATOM     19  C   UNL     1     114.635 124.726 137.257  0.00  0.00    +0.000 C 
ENDBRANCH  15  18
BRANCH  16  20
ATOM     20  O   UNL     1     111.358 125.081 135.876  0.00  0.00    +0.000 OA
ATOM     21  C   UNL     1     110.933 125.592 135.385  0.00  0.00    +0.000 C 
ENDBRANCH  16  20
BRANCH  17  22
ATOM     22  O   UNL     1     112.461 123.984 136.425  0.00  0.00    +0.000 OA
ATOM     23  C   UNL     1     112.054 123.570 137.011  0.00  0.00    +0.000 C 
ENDBRANCH  17  22
ENDBRANCH   3  12
BRANCH  10  24
ATOM     24  O   UNL     1     114.805 130.049 135.310  0.00  0.00    +0.000 OA
ATOM     25  C   UNL     1     115.073 130.812 135.474  0.00  0.00    +0.000 C 
ENDBRANCH  10  24
TORSDOF 5
ENDMDL
MODEL 2
REMARK VINA RESULT:      -7.3     11.812     12.673
REMARK  Name = 75072282
REMARK  5 active torsions:
REMARK  status: ('A' for Active; 'I' for Inactive)
REMARK    1  A    between atoms: O_3  and  C_17
REMARK    2  A    between atoms: O_4  and  C_19
REMARK    3  A    between atoms: O_5  and  C_20
REMARK    4  A    between atoms: O_6  and  C_21
REMARK    5  A    between atoms: C_7  and  C_11
REMARK                            x       y       z     vdW  Elec       q    Type
REMARK                         _______ _______ _______ _____ _____    ______ ____
ROOT
ATOM      1  O   UNL     1     102.644 132.127 141.522  0.00  0.00    +0.000 OA
ATOM      2  O   UNL     1     103.448 133.526 141.071  0.00  0.00    +0.000 OA
ATOM      3  C   UNL     1     102.255 131.433 141.742  0.00  0.00    +0.000 C 
ATOM      4  C   UNL     1     101.467 131.461 141.986  0.00  0.00    +0.000 C 
ATOM      5  C   UNL     1     101.069 132.183 142.010  0.00  0.00    +0.000 C 
ATOM      6  C   UNL     1     101.457 132.876 141.789  0.00  0.00    +0.000 A 
ATOM      7  C   UNL     1     102.244 132.848 141.546  0.00  0.00    +0.000 A 
ATOM      8  C   UNL     1     101.030 133.622 141.818  0.00  0.00    +0.000 A 
ATOM      9  C   UNL     1     102.660 133.564 141.314  0.00  0.00    +0.000 A 
ATOM     10  C   UNL     1     102.250 134.318 141.336  0.00  0.00    +0.000 A 
ATOM     11  C   UNL     1     101.429 134.348 141.590  0.00  0.00    +0.000 A 
ENDROOT
BRANCH   3  12
ATOM     12  C   UNL     1     102.654 130.712 141.718  0.00  0.00    +0.000 A 
ATOM     13  C   UNL     1     102.633 130.250 141.035  0.00  0.00    +0.000 A 
ATOM     14  C   UNL     1     103.075 130.452 142.380  0.00  0.00    +0.000 A 
ATOM     15  C   UNL     1     103.475 129.730 142.356  0.00  0.00    +0.000 A 
ATOM     16  C   UNL     1     103.034 129.529 141.012  0.00  0.00    +0.000 A 
ATOM     17  C   UNL     1     103.454 129.269 141.672  0.00  0.00    +0.000 A 
BRANCH  15  18
ATOM     18  O   UNL     1     103.896 129.470 143.017  0.00  0.00    +0.000 OA
ATOM     19  C   UNL     1     103.935 129.942 143.693  0.00  0.00    +0.000 C 
ENDBRANCH  15  18
BRANCH  16  20
ATOM     20  O   UNL     1     103.013 129.068 140.329  0.00  0.00    +0.000 OA
ATOM     21  C   UNL     1     102.392 129.154 139.791  0.00  0.00    +0.000 C 
ENDBRANCH  16  20
BRANCH  17  22
ATOM     22  O   UNL     1     103.854 128.548 141.650  0.00  0.00    +0.000 OA
ATOM     23  C   UNL     1     104.661 128.528 141.481  0.00  0.00    +0.000 C 
ENDBRANCH  17  22
ENDBRANCH   3  12
BRANCH  10  24
ATOM     24  O   UNL     1     102.642 135.010 141.115  0.00  0.00    +0.000 OA
ATOM     25  C   UNL     1     102.303 135.745 141.277  0.00  0.00    +0.000 C 
ENDBRANCH  10  24
TORSDOF 5
ENDMDL
MODEL 3
REMARK VINA RESULT:      -7.3      0.079      1.556
REMARK  Name = 75072282
REMARK  5 active torsions:
REMARK  status: ('A' for Active; 'I' for Inactive)
REMARK    1  A    between atoms: O_3  and  C_17
REMARK    2  A    between atoms: O_4  and  C_19
REMARK    3  A    between atoms: O_5  and  C_20
REMARK    4  A    between atoms: O_6  and  C_21
REMARK    5  A    between atoms: C_7  and  C_11
REMARK                            x       y       z     vdW  Elec       q    Type
REMARK                         _______ _______ _______ _____ _____    ______ ____
ROOT
ATOM      1  O   UNL     1     113.474 127.545 136.248  0.00  0.00    +0.000 OA
ATOM      2  O   UNL     1     114.472 128.324 135.151  0.00  0.00    +0.000 OA
ATOM      3  C   UNL     1     112.983 127.154 136.784  0.00  0.00    +0.000 C 
ATOM      4  C   UNL     1     112.631 127.572 137.403  0.00  0.00    +0.000 C 
ATOM      5  C   UNL     1     112.771 128.382 137.484  0.00  0.00    +0.000 C 
ATOM      6  C   UNL     1     113.260 128.773 136.949  0.00  0.00    +0.000 A 
ATOM      7  C   UNL     1     113.612 128.354 136.331  0.00  0.00    +0.000 A 
ATOM      8  C   UNL     1     113.397 129.616 137.045  0.00  0.00    +0.000 A 
ATOM      9  C   UNL     1     114.125 128.751 135.766  0.00  0.00    +0.000 A 
ATOM     10  C   UNL     1     114.273 129.593 135.846  0.00  0.00    +0.000 A 
ATOM     11  C   UNL     1     113.907 130.028 136.490  0.00  0.00    +0.000 A 
ENDROOT
BRANCH   3  12
ATOM     12  C   UNL     1     112.845 126.345 136.702  0.00  0.00    +0.000 A 
ATOM     13  C   UNL     1     113.399 125.801 136.980  0.00  0.00    +0.000 A 
ATOM     14  C   UNL     1     112.152 126.081 136.340  0.00  0.00    +0.000 A 
ATOM     15  C   UNL     1     112.013 125.272 136.257  0.00  0.00    +0.000 A 
ATOM     16  C   UNL     1     113.259 124.992 136.897  0.00  0.00    +0.000 A 
ATOM     17  C   UNL     1     112.567 124.727 136.536  0.00  0.00    +0.000 A 
BRANCH  15  18
ATOM     18  O   UNL     1     111.320 125.007 135.895  0.00  0.00    +0.000 OA
ATOM     19  C   UNL     1     110.904 125.505 135.386  0.00  0.00    +0.000 C 
ENDBRANCH  15  18
BRANCH  16  20
ATOM     20  O   UNL     1     113.813 124.448 137.176  0.00  0.00    +0.000 OA
ATOM     21  C   UNL     1     114.602 124.673 137.272  0.00  0.00    +0.000 C 
ENDBRANCH  16  20
BRANCH  17  22
ATOM     22  O   UNL     1     112.428 123.918 136.452  0.00  0.00    +0.000 OA
ATOM     23  C   UNL     1     112.022 123.507 137.040  0.00  0.00    +0.000 C 
ENDBRANCH  17  22
ENDBRANCH   3  12
BRANCH  10  24
ATOM     24  O   UNL     1     114.764 129.981 135.308  0.00  0.00    +0.000 OA
ATOM     25  C   UNL     1     115.018 130.751 135.463  0.00  0.00    +0.000 C 
ENDBRANCH  10  24
TORSDOF 5
ENDMDL
MODEL 4
REMARK VINA RESULT:      -7.2      1.250      4.822
REMARK  Name = 75072282
REMARK  5 active torsions:
REMARK  status: ('A' for Active; 'I' for Inactive)
REMARK    1  A    between atoms: O_3  and  C_17
REMARK    2  A    between atoms: O_4  and  C_19
REMARK    3  A    between atoms: O_5  and  C_20
REMARK    4  A    between atoms: O_6  and  C_21
REMARK    5  A    between atoms: C_7  and  C_11
REMARK                            x       y       z     vdW  Elec       q    Type
REMARK                         _______ _______ _______ _____ _____    ______ ____
ROOT
ATOM      1  O   UNL     1     112.736 126.480 136.807  0.00  0.00    +0.000 OA
ATOM      2  O   UNL     1     111.462 125.429 137.085  0.00  0.00    +0.000 OA
ATOM      3  C   UNL     1     113.359 127.005 136.671  0.00  0.00    +0.000 C 
ATOM      4  C   UNL     1     114.118 126.716 136.525  0.00  0.00    +0.000 C 
ATOM      5  C   UNL     1     114.254 125.902 136.516  0.00  0.00    +0.000 C 
ATOM      6  C   UNL     1     113.633 125.378 136.652  0.00  0.00    +0.000 A 
ATOM      7  C   UNL     1     112.874 125.667 136.798  0.00  0.00    +0.000 A 
ATOM      8  C   UNL     1     113.788 124.532 136.640  0.00  0.00    +0.000 A 
ATOM      9  C   UNL     1     112.217 125.131 136.941  0.00  0.00    +0.000 A 
ATOM     10  C   UNL     1     112.354 124.283 136.932  0.00  0.00    +0.000 A 
ATOM     11  C   UNL     1     113.144 123.982 136.781  0.00  0.00    +0.000 A 
ENDROOT
BRANCH   3  12
ATOM     12  C   UNL     1     113.222 127.818 136.680  0.00  0.00    +0.000 A 
ATOM     13  C   UNL     1     113.263 128.236 137.390  0.00  0.00    +0.000 A 
ATOM     14  C   UNL     1     113.043 128.214 135.978  0.00  0.00    +0.000 A 
ATOM     15  C   UNL     1     112.905 129.027 135.987  0.00  0.00    +0.000 A 
ATOM     16  C   UNL     1     113.126 129.050 137.398  0.00  0.00    +0.000 A 
ATOM     17  C   UNL     1     112.947 129.445 136.697  0.00  0.00    +0.000 A 
BRANCH  15  18
ATOM     18  O   UNL     1     112.726 129.423 135.285  0.00  0.00    +0.000 OA
ATOM     19  C   UNL     1     112.330 129.028 134.678  0.00  0.00    +0.000 C 
ENDBRANCH  15  18
BRANCH  16  20
ATOM     20  O   UNL     1     113.167 129.468 138.108  0.00  0.00    +0.000 OA
ATOM     21  C   UNL     1     113.033 129.079 138.825  0.00  0.00    +0.000 C 
ENDBRANCH  16  20
BRANCH  17  22
ATOM     22  O   UNL     1     112.809 130.259 136.705  0.00  0.00    +0.000 OA
ATOM     23  C   UNL     1     113.440 130.785 136.637  0.00  0.00    +0.000 C 
ENDBRANCH  17  22
ENDBRANCH   3  12
BRANCH  10  24
ATOM     24  O   UNL     1     111.729 123.761 137.069  0.00  0.00    +0.000 OA
ATOM     25  C   UNL     1     111.884 122.969 137.243  0.00  0.00    +0.000 C 
ENDBRANCH  10  24
TORSDOF 5
ENDMDL
MODEL 5
REMARK VINA RESULT:      -7.2     12.839     14.504
REMARK  Name = 75072282
REMARK  5 active torsions:
REMARK  status: ('A' for Active; 'I' for Inactive)
REMARK    1  A    between atoms: O_3  and  C_17
REMARK    2  A    between atoms: O_4  and  C_19
REMARK    3  A    between atoms: O_5  and  C_20
REMARK    4  A    between atoms: O_6  and  C_21
REMARK    5  A    between atoms: C_7  and  C_11
REMARK                            x       y       z     vdW  Elec       q    Type
REMARK                         _______ _______ _______ _____ _____    ______ ____
ROOT
ATOM      1  O   UNL     1     103.969 124.160 146.693  0.00  0.00    +0.000 OA
ATOM      2  O   UNL     1     103.293 122.959 145.740  0.00  0.00    +0.000 OA
ATOM      3  C   UNL     1     104.309 124.750 147.160  0.00  0.00    +0.000 C 
ATOM      4  C   UNL     1     103.831 125.237 147.623  0.00  0.00    +0.000 C 
ATOM      5  C   UNL     1     103.012 125.134 147.620  0.00  0.00    +0.000 C 
ATOM      6  C   UNL     1     102.672 124.545 147.154  0.00  0.00    +0.000 A 
ATOM      7  C   UNL     1     103.150 124.058 146.690  0.00  0.00    +0.000 A 
ATOM      8  C   UNL     1     101.818 124.449 147.159  0.00  0.00    +0.000 A 
ATOM      9  C   UNL     1     102.807 123.441 146.200  0.00  0.00    +0.000 A 
ATOM     10  C   UNL     1     101.955 123.330 146.192  0.00  0.00    +0.000 A 
ATOM     11  C   UNL     1     101.457 123.837 146.675  0.00  0.00    +0.000 A 
ENDROOT
BRANCH   3  12
ATOM     12  C   UNL     1     105.128 124.851 147.163  0.00  0.00    +0.000 A 
ATOM     13  C   UNL     1     105.562 124.689 147.845  0.00  0.00    +0.000 A 
ATOM     14  C   UNL     1     105.512 125.115 146.482  0.00  0.00    +0.000 A 
ATOM     15  C   UNL     1     106.331 125.217 146.484  0.00  0.00    +0.000 A 
ATOM     16  C   UNL     1     106.381 124.791 147.847  0.00  0.00    +0.000 A 
ATOM     17  C   UNL     1     106.765 125.055 147.167  0.00  0.00    +0.000 A 
BRANCH  15  18
ATOM     18  O   UNL     1     106.716 125.481 145.803  0.00  0.00    +0.000 OA
ATOM     19  C   UNL     1     106.301 125.545 145.093  0.00  0.00    +0.000 C 
ENDBRANCH  15  18
BRANCH  16  20
ATOM     20  O   UNL     1     106.815 124.629 148.529  0.00  0.00    +0.000 OA
ATOM     21  C   UNL     1     106.479 124.180 149.135  0.00  0.00    +0.000 C 
ENDBRANCH  16  20
BRANCH  17  22
ATOM     22  O   UNL     1     107.584 125.157 147.168  0.00  0.00    +0.000 OA
ATOM     23  C   UNL     1     107.912 125.863 147.440  0.00  0.00    +0.000 C 
ENDBRANCH  17  22
ENDBRANCH   3  12
BRANCH  10  24
ATOM     24  O   UNL     1     101.618 122.740 145.724  0.00  0.00    +0.000 OA
ATOM     25  C   UNL     1     100.811 122.759 145.555  0.00  0.00    +0.000 C 
ENDBRANCH  10  24
TORSDOF 5
ENDMDL
MODEL 6
REMARK VINA RESULT:      -7.2      1.252      4.677
REMARK  Name = 75072282
REMARK  5 active torsions:
REMARK  status: ('A' for Active; 'I' for Inactive)
REMARK    1  A    between atoms: O_3  and  C_17
REMARK    2  A    between atoms: O_4  and  C_19
REMARK    3  A    between atoms: O_5  and  C_20
REMARK    4  A    between atoms: O_6  and  C_21
REMARK    5  A    between atoms: C_7  and  C_11
REMARK                            x       y       z     vdW  Elec       q    Type
REMARK                         _______ _______ _______ _____ _____    ______ ____
ROOT
ATOM      1  O   UNL     1     112.735 126.479 136.805  0.00  0.00    +0.000 OA
ATOM      2  O   UNL     1     111.461 125.428 137.084  0.00  0.00    +0.000 OA
ATOM      3  C   UNL     1     113.357 127.004 136.669  0.00  0.00    +0.000 C 
ATOM      4  C   UNL     1     114.117 126.716 136.526  0.00  0.00    +0.000 C 
ATOM      5  C   UNL     1     114.253 125.902 136.518  0.00  0.00    +0.000 C 
ATOM      6  C   UNL     1     113.632 125.377 136.654  0.00  0.00    +0.000 A 
ATOM      7  C   UNL     1     112.873 125.666 136.798  0.00  0.00    +0.000 A 
ATOM      8  C   UNL     1     113.788 124.532 136.644  0.00  0.00    +0.000 A 
ATOM      9  C   UNL     1     112.217 125.130 136.941  0.00  0.00    +0.000 A 
ATOM     10  C   UNL     1     112.354 124.282 136.935  0.00  0.00    +0.000 A 
ATOM     11  C   UNL     1     113.144 123.981 136.785  0.00  0.00    +0.000 A 
ENDROOT
BRANCH   3  12
ATOM     12  C   UNL     1     113.219 127.818 136.677  0.00  0.00    +0.000 A 
ATOM     13  C   UNL     1     113.037 128.212 135.975  0.00  0.00    +0.000 A 
ATOM     14  C   UNL     1     113.263 128.237 137.387  0.00  0.00    +0.000 A 
ATOM     15  C   UNL     1     113.125 129.050 137.394  0.00  0.00    +0.000 A 
ATOM     16  C   UNL     1     112.900 129.026 135.984  0.00  0.00    +0.000 A 
ATOM     17  C   UNL     1     112.943 129.444 136.693  0.00  0.00    +0.000 A 
BRANCH  15  18
ATOM     18  O   UNL     1     113.169 129.469 138.104  0.00  0.00    +0.000 OA
ATOM     19  C   UNL     1     113.008 129.088 138.819  0.00  0.00    +0.000 C 
ENDBRANCH  15  18
BRANCH  16  20
ATOM     20  O   UNL     1     112.718 129.420 135.283  0.00  0.00    +0.000 OA
ATOM     21  C   UNL     1     112.313 129.027 134.680  0.00  0.00    +0.000 C 
ENDBRANCH  16  20
BRANCH  17  22
ATOM     22  O   UNL     1     112.805 130.258 136.702  0.00  0.00    +0.000 OA
ATOM     23  C   UNL     1     113.436 130.784 136.637  0.00  0.00    +0.000 C 
ENDBRANCH  17  22
ENDBRANCH   3  12
BRANCH  10  24
ATOM     24  O   UNL     1     111.729 123.760 137.071  0.00  0.00    +0.000 OA
ATOM     25  C   UNL     1     111.884 122.967 137.242  0.00  0.00    +0.000 C 
ENDBRANCH  10  24
TORSDOF 5
ENDMDL
MODEL 7
REMARK VINA RESULT:      -7.1     13.338     14.653
REMARK  Name = 75072282
REMARK  5 active torsions:
REMARK  status: ('A' for Active; 'I' for Inactive)
REMARK    1  A    between atoms: O_3  and  C_17
REMARK    2  A    between atoms: O_4  and  C_19
REMARK    3  A    between atoms: O_5  and  C_20
REMARK    4  A    between atoms: O_6  and  C_21
REMARK    5  A    between atoms: C_7  and  C_11
REMARK                            x       y       z     vdW  Elec       q    Type
REMARK                         _______ _______ _______ _____ _____    ______ ____
ROOT
ATOM      1  O   UNL     1     104.779 124.524 147.561  0.00  0.00    +0.000 OA
ATOM      2  O   UNL     1     105.766 124.110 148.850  0.00  0.00    +0.000 OA
ATOM      3  C   UNL     1     104.286 124.725 146.930  0.00  0.00    +0.000 C 
ATOM      4  C   UNL     1     104.591 125.131 146.281  0.00  0.00    +0.000 C 
ATOM      5  C   UNL     1     105.390 125.337 146.262  0.00  0.00    +0.000 C 
ATOM      6  C   UNL     1     105.883 125.137 146.892  0.00  0.00    +0.000 A 
ATOM      7  C   UNL     1     105.577 124.731 147.542  0.00  0.00    +0.000 A 
ATOM      8  C   UNL     1     106.713 125.358 146.861  0.00  0.00    +0.000 A 
ATOM      9  C   UNL     1     106.081 124.517 148.205  0.00  0.00    +0.000 A 
ATOM     10  C   UNL     1     106.913 124.729 148.191  0.00  0.00    +0.000 A 
ATOM     11  C   UNL     1     107.231 125.152 147.514  0.00  0.00    +0.000 A 
ENDROOT
BRANCH   3  12
ATOM     12  C   UNL     1     103.487 124.518 146.950  0.00  0.00    +0.000 A 
ATOM     13  C   UNL     1     102.960 124.953 147.412  0.00  0.00    +0.000 A 
ATOM     14  C   UNL     1     103.217 123.876 146.507  0.00  0.00    +0.000 A 
ATOM     15  C   UNL     1     102.419 123.669 146.527  0.00  0.00    +0.000 A 
ATOM     16  C   UNL     1     102.161 124.745 147.430  0.00  0.00    +0.000 A 
ATOM     17  C   UNL     1     101.891 124.104 146.989  0.00  0.00    +0.000 A 
BRANCH  15  18
ATOM     18  O   UNL     1     102.148 123.027 146.084  0.00  0.00    +0.000 OA
ATOM     19  C   UNL     1     102.599 122.739 145.456  0.00  0.00    +0.000 C 
ENDBRANCH  15  18
BRANCH  16  20
ATOM     20  O   UNL     1     101.633 125.179 147.892  0.00  0.00    +0.000 OA
ATOM     21  C   UNL     1     101.905 125.818 148.339  0.00  0.00    +0.000 C 
ENDBRANCH  16  20
BRANCH  17  22
ATOM     22  O   UNL     1     101.092 123.896 147.007  0.00  0.00    +0.000 OA
ATOM     23  C   UNL     1     100.818 123.362 147.573  0.00  0.00    +0.000 C 
ENDBRANCH  17  22
ENDBRANCH   3  12
BRANCH  10  24
ATOM     24  O   UNL     1     107.404 124.527 148.823  0.00  0.00    +0.000 OA
ATOM     25  C   UNL     1     108.215 124.667 148.776  0.00  0.00    +0.000 C 
ENDBRANCH  10  24
TORSDOF 5
ENDMDL
MODEL 8
REMARK VINA RESULT:      -6.8      2.618      3.984
REMARK  Name = 75072282
REMARK  5 active torsions:
REMARK  status: ('A' for Active; 'I' for Inactive)
REMARK    1  A    between atoms: O_3  and  C_17
REMARK    2  A    between atoms: O_4  and  C_19
REMARK    3  A    between atoms: O_5  and  C_20
REMARK    4  A    between atoms: O_6  and  C_21
REMARK    5  A    between atoms: C_7  and  C_11
REMARK                            x       y       z     vdW  Elec       q    Type
REMARK                         _______ _______ _______ _____ _____    ______ ____
ROOT
ATOM      1  O   UNL     1     112.098 126.444 138.941  0.00  0.00    +0.000 OA
ATOM      2  O   UNL     1     111.089 126.884 140.204  0.00  0.00    +0.000 OA
ATOM      3  C   UNL     1     112.588 126.225 138.314  0.00  0.00    +0.000 C 
ATOM      4  C   UNL     1     113.407 126.229 138.410  0.00  0.00    +0.000 C 
ATOM      5  C   UNL     1     113.736 126.452 139.133  0.00  0.00    +0.000 C 
ATOM      6  C   UNL     1     113.247 126.671 139.760  0.00  0.00    +0.000 A 
ATOM      7  C   UNL     1     112.428 126.666 139.664  0.00  0.00    +0.000 A 
ATOM      8  C   UNL     1     113.602 126.901 140.508  0.00  0.00    +0.000 A 
ATOM      9  C   UNL     1     111.907 126.892 140.310  0.00  0.00    +0.000 A 
ATOM     10  C   UNL     1     112.244 127.125 141.064  0.00  0.00    +0.000 A 
ATOM     11  C   UNL     1     113.098 127.129 141.164  0.00  0.00    +0.000 A 
ENDROOT
BRANCH   3  12
ATOM     12  C   UNL     1     112.258 126.003 137.592  0.00  0.00    +0.000 A 
ATOM     13  C   UNL     1     112.092 125.209 137.440  0.00  0.00    +0.000 A 
ATOM     14  C   UNL     1     112.093 126.575 137.020  0.00  0.00    +0.000 A 
ATOM     15  C   UNL     1     111.763 126.353 136.297  0.00  0.00    +0.000 A 
ATOM     16  C   UNL     1     111.762 124.987 136.717  0.00  0.00    +0.000 A 
ATOM     17  C   UNL     1     111.598 125.559 136.146  0.00  0.00    +0.000 A 
BRANCH  15  18
ATOM     18  O   UNL     1     111.599 126.925 135.726  0.00  0.00    +0.000 OA
ATOM     19  C   UNL     1     111.939 127.674 135.782  0.00  0.00    +0.000 C 
ENDBRANCH  15  18
BRANCH  16  20
ATOM     20  O   UNL     1     111.596 124.193 136.566  0.00  0.00    +0.000 OA
ATOM     21  C   UNL     1     111.987 123.602 136.989  0.00  0.00    +0.000 C 
ENDBRANCH  16  20
BRANCH  17  22
ATOM     22  O   UNL     1     111.267 125.337 135.423  0.00  0.00    +0.000 OA
ATOM     23  C   UNL     1     110.450 125.360 135.318  0.00  0.00    +0.000 C 
ENDBRANCH  17  22
ENDBRANCH   3  12
BRANCH  10  24
ATOM     24  O   UNL     1     111.751 127.343 141.689  0.00  0.00    +0.000 OA
ATOM     25  C   UNL     1     111.975 127.953 142.197  0.00  0.00    +0.000 C 
ENDBRANCH  10  24
TORSDOF 5
ENDMDL
MODEL 9
REMARK VINA RESULT:      -6.7     10.762     12.150
REMARK  Name = 75072282
REMARK  5 active torsions:
REMARK  status: ('A' for Active; 'I' for Inactive)
REMARK    1  A    between atoms: O_3  and  C_17
REMARK    2  A    between atoms: O_4  and  C_19
REMARK    3  A    between atoms: O_5  and  C_20
REMARK    4  A    between atoms: O_6  and  C_21
REMARK    5  A    between atoms: C_7  and  C_11
REMARK                            x       y       z     vdW  Elec       q    Type
REMARK                         _______ _______ _______ _____ _____    ______ ____
ROOT
ATOM      1  O   UNL     1     106.523 125.641 146.020  0.00  0.00    +0.000 OA
ATOM      2  O   UNL     1     107.933 125.535 146.919  0.00  0.00    +0.000 OA
ATOM      3  C   UNL     1     105.832 125.698 145.571  0.00  0.00    +0.000 C 
ATOM      4  C   UNL     1     105.122 125.402 145.868  0.00  0.00    +0.000 C 
ATOM      5  C   UNL     1     105.101 125.050 146.614  0.00  0.00    +0.000 C 
ATOM      6  C   UNL     1     105.791 124.993 147.063  0.00  0.00    +0.000 A 
ATOM      7  C   UNL     1     106.501 125.289 146.766  0.00  0.00    +0.000 A 
ATOM      8  C   UNL     1     105.756 124.624 147.838  0.00  0.00    +0.000 A 
ATOM      9  C   UNL     1     107.227 125.236 147.224  0.00  0.00    +0.000 A 
ATOM     10  C   UNL     1     107.211 124.870 148.001  0.00  0.00    +0.000 A 
ATOM     11  C   UNL     1     106.471 124.562 148.310  0.00  0.00    +0.000 A 
ENDROOT
BRANCH   3  12
ATOM     12  C   UNL     1     105.854 126.050 144.826  0.00  0.00    +0.000 A 
ATOM     13  C   UNL     1     105.736 126.863 144.749  0.00  0.00    +0.000 A 
ATOM     14  C   UNL     1     105.993 125.588 144.155  0.00  0.00    +0.000 A 
ATOM     15  C   UNL     1     106.014 125.940 143.410  0.00  0.00    +0.000 A 
ATOM     16  C   UNL     1     105.758 127.214 144.003  0.00  0.00    +0.000 A 
ATOM     17  C   UNL     1     105.897 126.753 143.334  0.00  0.00    +0.000 A 
BRANCH  15  18
ATOM     18  O   UNL     1     106.153 125.478 142.740  0.00  0.00    +0.000 OA
ATOM     19  C   UNL     1     105.914 124.689 142.726  0.00  0.00    +0.000 C 
ENDBRANCH  15  18
BRANCH  16  20
ATOM     20  O   UNL     1     105.641 128.027 143.927  0.00  0.00    +0.000 OA
ATOM     21  C   UNL     1     105.298 128.455 144.545  0.00  0.00    +0.000 C 
ENDBRANCH  16  20
BRANCH  17  22
ATOM     22  O   UNL     1     105.919 127.105 142.587  0.00  0.00    +0.000 OA
ATOM     23  C   UNL     1     106.632 127.383 142.283  0.00  0.00    +0.000 C 
ENDBRANCH  17  22
ENDBRANCH   3  12
BRANCH  10  24
ATOM     24  O   UNL     1     107.903 124.816 148.448  0.00  0.00    +0.000 OA
ATOM     25  C   UNL     1     107.887 124.455 149.190  0.00  0.00    +0.000 C 
ENDBRANCH  10  24
TORSDOF 5
ENDMDL
MODEL 10
REMARK VINA RESULT:      -6.1     12.674     13.832
REMARK  Name = 75072282
REMARK  5 active torsions:
REMARK  status: ('A' for Active; 'I' for Inactive)
REMARK    1  A    between atoms: O_3  and  C_17
REMARK    2  A    between atoms: O_4  and  C_19
REMARK    3  A    between atoms: O_5  and  C_20
REMARK    4  A    between atoms: O_6  and  C_21
REMARK    5  A    between atoms: C_7  and  C_11
REMARK                            x       y       z     vdW  Elec       q    Type
REMARK                         _______ _______ _______ _____ _____    ______ ____
ROOT
ATOM      1  O   UNL     1     104.897 125.464 146.607  0.00  0.00    +0.000 OA
ATOM      2  O   UNL     1     105.314 126.834 145.738  0.00  0.00    +0.000 OA
ATOM      3  C   UNL     1     104.684 124.788 147.031  0.00  0.00    +0.000 C 
ATOM      4  C   UNL     1     105.205 124.466 147.583  0.00  0.00    +0.000 C 
ATOM      5  C   UNL     1     105.940 124.820 147.711  0.00  0.00    +0.000 C 
ATOM      6  C   UNL     1     106.153 125.494 147.288  0.00  0.00    +0.000 A 
ATOM      7  C   UNL     1     105.631 125.816 146.736  0.00  0.00    +0.000 A 
ATOM      8  C   UNL     1     106.921 125.853 147.431  0.00  0.00    +0.000 A 
ATOM      9  C   UNL     1     105.842 126.520 146.288  0.00  0.00    +0.000 A 
ATOM     10  C   UNL     1     106.605 126.891 146.418  0.00  0.00    +0.000 A 
ATOM     11  C   UNL     1     107.148 126.556 146.993  0.00  0.00    +0.000 A 
ENDROOT
BRANCH   3  12
ATOM     12  C   UNL     1     103.949 124.436 146.902  0.00  0.00    +0.000 A 
ATOM     13  C   UNL     1     103.872 123.834 146.343  0.00  0.00    +0.000 A 
ATOM     14  C   UNL     1     103.291 124.686 147.333  0.00  0.00    +0.000 A 
ATOM     15  C   UNL     1     102.556 124.334 147.204  0.00  0.00    +0.000 A 
ATOM     16  C   UNL     1     103.137 123.482 146.215  0.00  0.00    +0.000 A 
ATOM     17  C   UNL     1     102.479 123.732 146.645  0.00  0.00    +0.000 A 
BRANCH  15  18
ATOM     18  O   UNL     1     101.898 124.584 147.635  0.00  0.00    +0.000 OA
ATOM     19  C   UNL     1     101.884 125.339 147.966  0.00  0.00    +0.000 C 
ENDBRANCH  15  18
BRANCH  16  20
ATOM     20  O   UNL     1     103.060 122.880 145.656  0.00  0.00    +0.000 OA
ATOM     21  C   UNL     1     103.666 122.740 145.114  0.00  0.00    +0.000 C 
ENDBRANCH  16  20
BRANCH  17  22
ATOM     22  O   UNL     1     101.744 123.380 146.517  0.00  0.00    +0.000 OA
ATOM     23  C   UNL     1     101.507 122.739 146.978  0.00  0.00    +0.000 C 
ENDBRANCH  17  22
ENDBRANCH   3  12
BRANCH  10  24
ATOM     24  O   UNL     1     106.815 127.567 145.992  0.00  0.00    +0.000 OA
ATOM     25  C   UNL     1     107.455 128.026 146.238  0.00  0.00    +0.000 C 
ENDBRANCH  10  24
TORSDOF 5
ENDMDL
