MODEL 1
REMARK VINA RESULT:     -11.1      0.000      0.000
REMARK  Name = 44259981
REMARK  10 active torsions:
REMARK  status: ('A' for Active; 'I' for Inactive)
REMARK    1  A    between atoms: O_1  and  C_24
REMARK    2  A    between atoms: O_1  and  C_27
REMARK    3  A    between atoms: O_4  and  C_28
REMARK    4  A    between atoms: O_4  and  C_41
REMARK    5  A    between atoms: O_12  and  C_40
REMARK    6  A    between atoms: O_12  and  C_46
REMARK    7  A    between atoms: C_30  and  C_34
REMARK    8  A    between atoms: C_33  and  C_35
REMARK    9  A    between atoms: C_39  and  C_42
REMARK   10  A    between atoms: C_43  and  C_48
REMARK                            x       y       z     vdW  Elec       q    Type
REMARK                         _______ _______ _______ _____ _____    ______ ____
ROOT
ATOM      1  O   UNL     1     111.904 128.005 138.083  0.00  0.00    +0.000 OA
ATOM      2  O   UNL     1     109.507 128.556 138.371  0.00  0.00    +0.000 OA
ATOM      3  O   UNL     1     111.501 125.458 139.436  0.00  0.00    +0.000 OA
ATOM      4  O   UNL     1     109.271 127.303 139.046  0.00  0.00    +0.000 OA
ATOM      5  C   UNL     1     110.809 128.905 137.895  0.00  0.00    +0.000 A 
ATOM      6  C   UNL     1     111.608 128.721 137.798  0.00  0.00    +0.000 A 
ATOM      7  C   UNL     1     110.307 128.372 138.275  0.00  0.00    +0.000 A 
ATOM      8  C   UNL     1     111.400 127.473 138.463  0.00  0.00    +0.000 A 
ATOM      9  C   UNL     1     111.721 126.732 138.755  0.00  0.00    +0.000 A 
ATOM     10  C   UNL     1     110.602 127.657 138.560  0.00  0.00    +0.000 A 
ATOM     11  C   UNL     1     111.203 126.173 139.152  0.00  0.00    +0.000 A 
ATOM     12  C   UNL     1     110.068 127.111 138.954  0.00  0.00    +0.000 A 
ATOM     13  C   UNL     1     110.371 126.364 139.252  0.00  0.00    +0.000 A 
ENDROOT
BRANCH   6  16
ATOM     14  O   UNL     1     113.318 131.009 137.893  0.00  0.00    +0.000 OA
ATOM     15  O   UNL     1     113.617 130.852 136.278  0.00  0.00    +0.000 OA
ATOM     16  C   UNL     1     112.110 129.253 137.418  0.00  0.00    +0.000 A 
ATOM     17  C   UNL     1     112.463 129.865 137.846  0.00  0.00    +0.000 A 
ATOM     18  C   UNL     1     112.260 129.175 136.610  0.00  0.00    +0.000 A 
ATOM     19  C   UNL     1     112.965 130.397 137.465  0.00  0.00    +0.000 A 
ATOM     20  C   UNL     1     112.762 129.708 136.230  0.00  0.00    +0.000 A 
ATOM     21  C   UNL     1     113.114 130.319 136.657  0.00  0.00    +0.000 A 
ENDBRANCH   6  16
BRANCH   5  22
ATOM     22  O   UNL     1     110.513 129.620 137.610  0.00  0.00    +0.000 OA
BRANCH  22  29
ATOM     23  O   UNL     1     109.793 129.053 136.514  0.00  0.00    +0.000 OA
ATOM     24  O   UNL     1     108.044 130.786 136.765  0.00  0.00    +0.000 OA
ATOM     25  O   UNL     1     107.908 129.641 135.585  0.00  0.00    +0.000 OA
ATOM     26  C   UNL     1     109.279 130.203 137.188  0.00  0.00    +0.000 C 
ATOM     27  C   UNL     1     108.627 130.208 136.681  0.00  0.00    +0.000 C 
ATOM     28  C   UNL     1     108.559 129.635 136.091  0.00  0.00    +0.000 C 
ATOM     29  C   UNL     1     109.862 129.625 137.104  0.00  0.00    +0.000 C 
ATOM     30  C   UNL     1     109.143 129.058 136.008  0.00  0.00    +0.000 C 
BRANCH  30  32
ATOM     31  O   UNL     1     109.650 128.427 134.830  0.00  0.00    +0.000 OA
ATOM     32  C   UNL     1     109.074 128.486 135.418  0.00  0.00    +0.000 C 
ENDBRANCH  30  32
BRANCH  26  33
ATOM     33  O   UNL     1     109.347 130.776 137.777  0.00  0.00    +0.000 OA
BRANCH  33  38
ATOM     34  O   UNL     1     109.804 131.723 136.811  0.00  0.00    +0.000 OA
ATOM     35  O   UNL     1     109.613 131.874 138.980  0.00  0.00    +0.000 OA
ATOM     36  O   UNL     1     110.204 133.370 138.614  0.00  0.00    +0.000 OA
ATOM     37  O   UNL     1     110.528 133.769 137.046  0.00  0.00    +0.000 OA
ATOM     38  C   UNL     1     109.642 131.524 137.594  0.00  0.00    +0.000 C 
ATOM     39  C   UNL     1     109.775 132.073 138.196  0.00  0.00    +0.000 C 
ATOM     40  C   UNL     1     110.070 132.821 138.013  0.00  0.00    +0.000 C 
ATOM     41  C   UNL     1     110.232 133.021 137.229  0.00  0.00    +0.000 C 
ATOM     42  C   UNL     1     110.099 132.471 136.628  0.00  0.00    +0.000 C 
BRANCH  42  44
ATOM     43  O   UNL     1     109.649 132.909 135.344  0.00  0.00    +0.000 OA
ATOM     44  C   UNL     1     110.261 132.671 135.843  0.00  0.00    +0.000 C 
ENDBRANCH  42  44
ENDBRANCH  33  38
ENDBRANCH  26  33
ENDBRANCH  22  29
ENDBRANCH   5  22
BRANCH   9  45
ATOM     45  O   UNL     1     112.521 126.555 138.655  0.00  0.00    +0.000 OA
BRANCH  45  54
ATOM     46  O   UNL     1     112.227 125.814 137.469  0.00  0.00    +0.000 OA
ATOM     47  O   UNL     1     114.530 124.910 137.463  0.00  0.00    +0.000 OA
ATOM     48  O   UNL     1     113.469 124.470 136.280  0.00  0.00    +0.000 OA
ATOM     49  O   UNL     1     114.056 125.953 138.651  0.00  0.00    +0.000 OA
ATOM     50  C   UNL     1     113.763 125.211 137.465  0.00  0.00    +0.000 C 
ATOM     51  C   UNL     1     113.231 124.992 136.874  0.00  0.00    +0.000 C 
ATOM     52  C   UNL     1     113.526 125.733 138.059  0.00  0.00    +0.000 C 
ATOM     53  C   UNL     1     112.463 125.293 136.875  0.00  0.00    +0.000 C 
ATOM     54  C   UNL     1     112.758 126.034 138.061  0.00  0.00    +0.000 C 
BRANCH  53  56
ATOM     55  O   UNL     1     111.625 125.643 135.773  0.00  0.00    +0.000 OA
ATOM     56  C   UNL     1     111.932 125.073 136.283  0.00  0.00    +0.000 C 
ENDBRANCH  53  56
ENDBRANCH  45  54
ENDBRANCH   9  45
TORSDOF 10
ENDMDL
MODEL 2
REMARK VINA RESULT:     -10.9      0.899      1.979
REMARK  Name = 44259981
REMARK  10 active torsions:
REMARK  status: ('A' for Active; 'I' for Inactive)
REMARK    1  A    between atoms: O_1  and  C_24
REMARK    2  A    between atoms: O_1  and  C_27
REMARK    3  A    between atoms: O_4  and  C_28
REMARK    4  A    between atoms: O_4  and  C_41
REMARK    5  A    between atoms: O_12  and  C_40
REMARK    6  A    between atoms: O_12  and  C_46
REMARK    7  A    between atoms: C_30  and  C_34
REMARK    8  A    between atoms: C_33  and  C_35
REMARK    9  A    between atoms: C_39  and  C_42
REMARK   10  A    between atoms: C_43  and  C_48
REMARK                            x       y       z     vdW  Elec       q    Type
REMARK                         _______ _______ _______ _____ _____    ______ ____
ROOT
ATOM      1  O   UNL     1     111.646 127.933 138.059  0.00  0.00    +0.000 OA
ATOM      2  O   UNL     1     109.292 128.520 138.551  0.00  0.00    +0.000 OA
ATOM      3  O   UNL     1     111.304 125.364 139.387  0.00  0.00    +0.000 OA
ATOM      4  O   UNL     1     109.086 127.257 139.216  0.00  0.00    +0.000 OA
ATOM      5  C   UNL     1     110.558 128.856 137.979  0.00  0.00    +0.000 A 
ATOM      6  C   UNL     1     111.343 128.660 137.815  0.00  0.00    +0.000 A 
ATOM      7  C   UNL     1     110.077 128.324 138.387  0.00  0.00    +0.000 A 
ATOM      8  C   UNL     1     111.165 127.402 138.468  0.00  0.00    +0.000 A 
ATOM      9  C   UNL     1     111.493 126.648 138.717  0.00  0.00    +0.000 A 
ATOM     10  C   UNL     1     110.381 127.597 138.632  0.00  0.00    +0.000 A 
ATOM     11  C   UNL     1     110.997 126.090 139.143  0.00  0.00    +0.000 A 
ATOM     12  C   UNL     1     109.870 127.053 139.057  0.00  0.00    +0.000 A 
ATOM     13  C   UNL     1     110.180 126.294 139.314  0.00  0.00    +0.000 A 
ENDROOT
BRANCH   6  16
ATOM     14  O   UNL     1     113.352 130.693 137.828  0.00  0.00    +0.000 OA
ATOM     15  O   UNL     1     113.266 130.788 136.183  0.00  0.00    +0.000 OA
ATOM     16  C   UNL     1     111.823 129.192 137.406  0.00  0.00    +0.000 A 
ATOM     17  C   UNL     1     112.347 129.677 137.821  0.00  0.00    +0.000 A 
ATOM     18  C   UNL     1     111.780 129.240 136.584  0.00  0.00    +0.000 A 
ATOM     19  C   UNL     1     112.828 130.208 137.413  0.00  0.00    +0.000 A 
ATOM     20  C   UNL     1     112.261 129.772 136.176  0.00  0.00    +0.000 A 
ATOM     21  C   UNL     1     112.785 130.256 136.590  0.00  0.00    +0.000 A 
ENDBRANCH   6  16
BRANCH   5  22
ATOM     22  O   UNL     1     110.254 129.583 137.734  0.00  0.00    +0.000 OA
BRANCH  22  29
ATOM     23  O   UNL     1     110.257 130.198 139.024  0.00  0.00    +0.000 OA
ATOM     24  O   UNL     1     108.175 131.407 138.454  0.00  0.00    +0.000 OA
ATOM     25  O   UNL     1     108.872 131.618 139.933  0.00  0.00    +0.000 OA
ATOM     26  C   UNL     1     109.215 130.495 138.093  0.00  0.00    +0.000 C 
ATOM     27  C   UNL     1     108.869 131.004 138.644  0.00  0.00    +0.000 C 
ATOM     28  C   UNL     1     109.218 131.109 139.384  0.00  0.00    +0.000 C 
ATOM     29  C   UNL     1     109.909 130.092 138.284  0.00  0.00    +0.000 C 
ATOM     30  C   UNL     1     109.912 130.706 139.574  0.00  0.00    +0.000 C 
BRANCH  30  32
ATOM     31  O   UNL     1     111.012 131.147 140.372  0.00  0.00    +0.000 OA
ATOM     32  C   UNL     1     110.261 130.812 140.313  0.00  0.00    +0.000 C 
ENDBRANCH  30  32
BRANCH  26  33
ATOM     33  O   UNL     1     108.866 130.389 137.354  0.00  0.00    +0.000 OA
BRANCH  33  38
ATOM     34  O   UNL     1     109.406 131.638 136.919  0.00  0.00    +0.000 OA
ATOM     35  O   UNL     1     108.136 130.195 135.886  0.00  0.00    +0.000 OA
ATOM     36  O   UNL     1     108.312 131.347 134.718  0.00  0.00    +0.000 OA
ATOM     37  O   UNL     1     109.218 132.694 135.018  0.00  0.00    +0.000 OA
ATOM     38  C   UNL     1     108.954 130.965 136.770  0.00  0.00    +0.000 C 
ATOM     39  C   UNL     1     108.589 130.867 136.036  0.00  0.00    +0.000 C 
ATOM     40  C   UNL     1     108.677 131.443 135.452  0.00  0.00    +0.000 C 
ATOM     41  C   UNL     1     109.130 132.117 135.602  0.00  0.00    +0.000 C 
ATOM     42  C   UNL     1     109.494 132.214 136.335  0.00  0.00    +0.000 C 
BRANCH  42  44
ATOM     43  O   UNL     1     110.754 132.816 136.637  0.00  0.00    +0.000 OA
ATOM     44  C   UNL     1     109.947 132.888 136.485  0.00  0.00    +0.000 C 
ENDBRANCH  42  44
ENDBRANCH  33  38
ENDBRANCH  26  33
ENDBRANCH  22  29
ENDBRANCH   5  22
BRANCH   9  45
ATOM     45  O   UNL     1     112.279 126.460 138.549  0.00  0.00    +0.000 OA
BRANCH  45  54
ATOM     46  O   UNL     1     111.881 125.736 137.384  0.00  0.00    +0.000 OA
ATOM     47  O   UNL     1     114.138 124.731 137.238  0.00  0.00    +0.000 OA
ATOM     48  O   UNL     1     112.988 124.341 136.122  0.00  0.00    +0.000 OA
ATOM     49  O   UNL     1     113.783 125.791 138.453  0.00  0.00    +0.000 OA
ATOM     50  C   UNL     1     113.386 125.066 137.287  0.00  0.00    +0.000 C 
ATOM     51  C   UNL     1     112.810 124.871 136.729  0.00  0.00    +0.000 C 
ATOM     52  C   UNL     1     113.209 125.596 137.894  0.00  0.00    +0.000 C 
ATOM     53  C   UNL     1     112.058 125.206 136.777  0.00  0.00    +0.000 C 
ATOM     54  C   UNL     1     112.456 125.930 137.942  0.00  0.00    +0.000 C 
BRANCH  53  56
ATOM     55  O   UNL     1     111.209 125.584 135.691  0.00  0.00    +0.000 OA
ATOM     56  C   UNL     1     111.483 125.011 136.218  0.00  0.00    +0.000 C 
ENDBRANCH  53  56
ENDBRANCH  45  54
ENDBRANCH   9  45
TORSDOF 10
ENDMDL
MODEL 3
REMARK VINA RESULT:     -10.7      1.696      5.856
REMARK  Name = 44259981
REMARK  10 active torsions:
REMARK  status: ('A' for Active; 'I' for Inactive)
REMARK    1  A    between atoms: O_1  and  C_24
REMARK    2  A    between atoms: O_1  and  C_27
REMARK    3  A    between atoms: O_4  and  C_28
REMARK    4  A    between atoms: O_4  and  C_41
REMARK    5  A    between atoms: O_12  and  C_40
REMARK    6  A    between atoms: O_12  and  C_46
REMARK    7  A    between atoms: C_30  and  C_34
REMARK    8  A    between atoms: C_33  and  C_35
REMARK    9  A    between atoms: C_39  and  C_42
REMARK   10  A    between atoms: C_43  and  C_48
REMARK                            x       y       z     vdW  Elec       q    Type
REMARK                         _______ _______ _______ _____ _____    ______ ____
ROOT
ATOM      1  O   UNL     1     111.716 129.200 138.606  0.00  0.00    +0.000 OA
ATOM      2  O   UNL     1     111.709 128.666 136.188  0.00  0.00    +0.000 OA
ATOM      3  O   UNL     1     111.465 132.038 138.000  0.00  0.00    +0.000 OA
ATOM      4  O   UNL     1     111.585 130.063 135.851  0.00  0.00    +0.000 OA
ATOM      5  C   UNL     1     111.774 128.238 137.550  0.00  0.00    +0.000 A 
ATOM      6  C   UNL     1     111.776 128.416 138.356  0.00  0.00    +0.000 A 
ATOM      7  C   UNL     1     111.712 128.844 136.994  0.00  0.00    +0.000 A 
ATOM      8  C   UNL     1     111.653 129.806 138.049  0.00  0.00    +0.000 A 
ATOM      9  C   UNL     1     111.591 130.618 138.322  0.00  0.00    +0.000 A 
ATOM     10  C   UNL     1     111.651 129.628 137.244  0.00  0.00    +0.000 A 
ATOM     11  C   UNL     1     111.525 131.255 137.748  0.00  0.00    +0.000 A 
ATOM     12  C   UNL     1     111.586 130.251 136.655  0.00  0.00    +0.000 A 
ATOM     13  C   UNL     1     111.523 131.069 136.909  0.00  0.00    +0.000 A 
ENDROOT
BRANCH   6  16
ATOM     14  O   UNL     1     113.388 126.618 139.885  0.00  0.00    +0.000 OA
ATOM     15  O   UNL     1     112.029 125.990 140.578  0.00  0.00    +0.000 OA
ATOM     16  C   UNL     1     111.839 127.810 138.912  0.00  0.00    +0.000 A 
ATOM     17  C   UNL     1     112.582 127.517 139.120  0.00  0.00    +0.000 A 
ATOM     18  C   UNL     1     111.159 127.495 139.258  0.00  0.00    +0.000 A 
ATOM     19  C   UNL     1     112.645 126.911 139.676  0.00  0.00    +0.000 A 
ATOM     20  C   UNL     1     111.223 126.889 139.814  0.00  0.00    +0.000 A 
ATOM     21  C   UNL     1     111.965 126.596 140.023  0.00  0.00    +0.000 A 
ENDBRANCH   6  16
BRANCH   5  22
ATOM     22  O   UNL     1     111.835 127.454 137.300  0.00  0.00    +0.000 OA
BRANCH  22  29
ATOM     23  O   UNL     1     110.473 127.330 136.885  0.00  0.00    +0.000 OA
ATOM     24  O   UNL     1     111.168 125.813 135.058  0.00  0.00    +0.000 OA
ATOM     25  O   UNL     1     109.575 126.195 135.252  0.00  0.00    +0.000 OA
ATOM     26  C   UNL     1     111.502 126.634 136.180  0.00  0.00    +0.000 C 
ATOM     27  C   UNL     1     110.936 126.319 135.667  0.00  0.00    +0.000 C 
ATOM     28  C   UNL     1     110.140 126.510 135.764  0.00  0.00    +0.000 C 
ATOM     29  C   UNL     1     111.270 127.140 136.789  0.00  0.00    +0.000 C 
ATOM     30  C   UNL     1     109.908 127.016 136.373  0.00  0.00    +0.000 C 
BRANCH  30  32
ATOM     31  O   UNL     1     108.718 126.997 137.164  0.00  0.00    +0.000 OA
ATOM     32  C   UNL     1     109.112 127.207 136.470  0.00  0.00    +0.000 C 
ENDBRANCH  30  32
BRANCH  26  33
ATOM     33  O   UNL     1     112.298 126.442 136.082  0.00  0.00    +0.000 OA
BRANCH  33  38
ATOM     34  O   UNL     1     112.069 125.156 136.661  0.00  0.00    +0.000 OA
ATOM     35  O   UNL     1     113.923 126.159 136.096  0.00  0.00    +0.000 OA
ATOM     36  O   UNL     1     114.507 124.731 136.681  0.00  0.00    +0.000 OA
ATOM     37  O   UNL     1     113.465 123.586 137.253  0.00  0.00    +0.000 OA
ATOM     38  C   UNL     1     112.590 125.728 136.375  0.00  0.00    +0.000 C 
ATOM     39  C   UNL     1     113.403 125.587 136.381  0.00  0.00    +0.000 C 
ATOM     40  C   UNL     1     113.695 124.873 136.674  0.00  0.00    +0.000 C 
ATOM     41  C   UNL     1     113.173 124.300 136.960  0.00  0.00    +0.000 C 
ATOM     42  C   UNL     1     112.361 124.442 136.953  0.00  0.00    +0.000 C 
BRANCH  42  44
ATOM     43  O   UNL     1     111.442 123.994 137.952  0.00  0.00    +0.000 OA
ATOM     44  C   UNL     1     111.840 123.869 137.240  0.00  0.00    +0.000 C 
ENDBRANCH  42  44
ENDBRANCH  33  38
ENDBRANCH  26  33
ENDBRANCH  22  29
ENDBRANCH   5  22
BRANCH   9  45
ATOM     45  O   UNL     1     111.593 130.787 139.130  0.00  0.00    +0.000 OA
BRANCH  45  54
ATOM     46  O   UNL     1     110.166 130.823 139.128  0.00  0.00    +0.000 OA
ATOM     47  O   UNL     1     110.175 131.303 141.556  0.00  0.00    +0.000 OA
ATOM     48  O   UNL     1     108.744 131.178 140.746  0.00  0.00    +0.000 OA
ATOM     49  O   UNL     1     111.600 131.107 140.748  0.00  0.00    +0.000 OA
ATOM     50  C   UNL     1     110.172 131.143 140.747  0.00  0.00    +0.000 C 
ATOM     51  C   UNL     1     109.456 131.080 140.341  0.00  0.00    +0.000 C 
ATOM     52  C   UNL     1     110.885 131.045 140.343  0.00  0.00    +0.000 C 
ATOM     53  C   UNL     1     109.453 130.921 139.532  0.00  0.00    +0.000 C 
ATOM     54  C   UNL     1     110.881 130.885 139.533  0.00  0.00    +0.000 C 
BRANCH  53  56
ATOM     55  O   UNL     1     108.507 130.134 138.804  0.00  0.00    +0.000 OA
ATOM     56  C   UNL     1     108.736 130.858 139.127  0.00  0.00    +0.000 C 
ENDBRANCH  53  56
ENDBRANCH  45  54
ENDBRANCH   9  45
TORSDOF 10
ENDMDL
MODEL 4
REMARK VINA RESULT:     -10.5      2.626      4.816
REMARK  Name = 44259981
REMARK  10 active torsions:
REMARK  status: ('A' for Active; 'I' for Inactive)
REMARK    1  A    between atoms: O_1  and  C_24
REMARK    2  A    between atoms: O_1  and  C_27
REMARK    3  A    between atoms: O_4  and  C_28
REMARK    4  A    between atoms: O_4  and  C_41
REMARK    5  A    between atoms: O_12  and  C_40
REMARK    6  A    between atoms: O_12  and  C_46
REMARK    7  A    between atoms: C_30  and  C_34
REMARK    8  A    between atoms: C_33  and  C_35
REMARK    9  A    between atoms: C_39  and  C_42
REMARK   10  A    between atoms: C_43  and  C_48
REMARK                            x       y       z     vdW  Elec       q    Type
REMARK                         _______ _______ _______ _____ _____    ______ ____
ROOT
ATOM      1  O   UNL     1     111.482 127.457 138.486  0.00  0.00    +0.000 OA
ATOM      2  O   UNL     1     112.489 129.709 138.688  0.00  0.00    +0.000 OA
ATOM      3  O   UNL     1     112.143 127.394 135.650  0.00  0.00    +0.000 OA
ATOM      4  O   UNL     1     112.832 129.713 137.287  0.00  0.00    +0.000 OA
ATOM      5  C   UNL     1     111.821 128.594 139.283  0.00  0.00    +0.000 A 
ATOM      6  C   UNL     1     111.485 127.843 139.215  0.00  0.00    +0.000 A 
ATOM      7  C   UNL     1     112.153 128.958 138.621  0.00  0.00    +0.000 A 
ATOM      8  C   UNL     1     111.814 127.822 137.825  0.00  0.00    +0.000 A 
ATOM      9  C   UNL     1     111.804 127.409 137.071  0.00  0.00    +0.000 A 
ATOM     10  C   UNL     1     112.149 128.572 137.892  0.00  0.00    +0.000 A 
ATOM     11  C   UNL     1     112.148 127.783 136.378  0.00  0.00    +0.000 A 
ATOM     12  C   UNL     1     112.499 128.962 137.210  0.00  0.00    +0.000 A 
ATOM     13  C   UNL     1     112.498 128.565 136.449  0.00  0.00    +0.000 A 
ENDROOT
BRANCH   6  16
ATOM     14  O   UNL     1     111.707 126.031 141.414  0.00  0.00    +0.000 OA
ATOM     15  O   UNL     1     110.160 126.387 141.863  0.00  0.00    +0.000 OA
ATOM     16  C   UNL     1     111.153 127.480 139.877  0.00  0.00    +0.000 A 
ATOM     17  C   UNL     1     111.596 126.937 140.314  0.00  0.00    +0.000 A 
ATOM     18  C   UNL     1     110.380 127.658 140.101  0.00  0.00    +0.000 A 
ATOM     19  C   UNL     1     111.264 126.573 140.976  0.00  0.00    +0.000 A 
ATOM     20  C   UNL     1     110.049 127.293 140.764  0.00  0.00    +0.000 A 
ATOM     21  C   UNL     1     110.490 126.751 141.201  0.00  0.00    +0.000 A 
ENDBRANCH   6  16
BRANCH   5  22
ATOM     22  O   UNL     1     111.825 128.981 140.012  0.00  0.00    +0.000 OA
BRANCH  22  29
ATOM     23  O   UNL     1     113.222 128.814 140.259  0.00  0.00    +0.000 OA
ATOM     24  O   UNL     1     113.283 131.010 141.399  0.00  0.00    +0.000 OA
ATOM     25  O   UNL     1     114.659 130.111 141.266  0.00  0.00    +0.000 OA
ATOM     26  C   UNL     1     112.553 129.995 140.705  0.00  0.00    +0.000 C 
ATOM     27  C   UNL     1     113.263 130.278 141.019  0.00  0.00    +0.000 C 
ATOM     28  C   UNL     1     113.951 129.828 140.952  0.00  0.00    +0.000 C 
ATOM     29  C   UNL     1     112.533 129.263 140.325  0.00  0.00    +0.000 C 
ATOM     30  C   UNL     1     113.931 129.096 140.572  0.00  0.00    +0.000 C 
BRANCH  30  32
ATOM     31  O   UNL     1     114.656 127.895 140.843  0.00  0.00    +0.000 OA
ATOM     32  C   UNL     1     114.619 128.647 140.505  0.00  0.00    +0.000 C 
ENDBRANCH  30  32
BRANCH  26  33
ATOM     33  O   UNL     1     111.865 130.445 140.772  0.00  0.00    +0.000 OA
BRANCH  33  38
ATOM     34  O   UNL     1     111.720 130.024 142.129  0.00  0.00    +0.000 OA
ATOM     35  O   UNL     1     110.511 131.376 140.916  0.00  0.00    +0.000 OA
ATOM     36  O   UNL     1     109.689 131.421 142.346  0.00  0.00    +0.000 OA
ATOM     37  O   UNL     1     110.221 130.534 143.631  0.00  0.00    +0.000 OA
ATOM     38  C   UNL     1     111.454 130.467 141.487  0.00  0.00    +0.000 C 
ATOM     39  C   UNL     1     110.777 130.933 141.558  0.00  0.00    +0.000 C 
ATOM     40  C   UNL     1     110.366 130.955 142.273  0.00  0.00    +0.000 C 
ATOM     41  C   UNL     1     110.632 130.511 142.917  0.00  0.00    +0.000 C 
ATOM     42  C   UNL     1     111.309 130.046 142.844  0.00  0.00    +0.000 C 
BRANCH  42  44
ATOM     43  O   UNL     1     111.482 128.783 143.489  0.00  0.00    +0.000 OA
ATOM     44  C   UNL     1     111.575 129.602 143.487  0.00  0.00    +0.000 C 
ENDBRANCH  42  44
ENDBRANCH  33  38
ENDBRANCH  26  33
ENDBRANCH  22  29
ENDBRANCH   5  22
BRANCH   9  45
ATOM     45  O   UNL     1     111.466 126.658 137.013  0.00  0.00    +0.000 OA
BRANCH  45  54
ATOM     46  O   UNL     1     112.735 126.039 137.224  0.00  0.00    +0.000 OA
ATOM     47  O   UNL     1     111.818 123.884 136.426  0.00  0.00    +0.000 OA
ATOM     48  O   UNL     1     113.393 123.983 136.904  0.00  0.00    +0.000 OA
ATOM     49  O   UNL     1     110.854 125.222 136.481  0.00  0.00    +0.000 OA
ATOM     50  C   UNL     1     112.124 124.602 136.692  0.00  0.00    +0.000 C 
ATOM     51  C   UNL     1     112.912 124.652 136.931  0.00  0.00    +0.000 C 
ATOM     52  C   UNL     1     111.641 125.271 136.719  0.00  0.00    +0.000 C 
ATOM     53  C   UNL     1     113.218 125.370 137.197  0.00  0.00    +0.000 C 
ATOM     54  C   UNL     1     111.948 125.989 136.986  0.00  0.00    +0.000 C 
BRANCH  53  56
ATOM     55  O   UNL     1     114.189 125.622 138.215  0.00  0.00    +0.000 OA
ATOM     56  C   UNL     1     114.006 125.420 137.436  0.00  0.00    +0.000 C 
ENDBRANCH  53  56
ENDBRANCH  45  54
ENDBRANCH   9  45
TORSDOF 10
ENDMDL
MODEL 5
REMARK VINA RESULT:     -10.4      1.238      5.856
REMARK  Name = 44259981
REMARK  10 active torsions:
REMARK  status: ('A' for Active; 'I' for Inactive)
REMARK    1  A    between atoms: O_1  and  C_24
REMARK    2  A    between atoms: O_1  and  C_27
REMARK    3  A    between atoms: O_4  and  C_28
REMARK    4  A    between atoms: O_4  and  C_41
REMARK    5  A    between atoms: O_12  and  C_40
REMARK    6  A    between atoms: O_12  and  C_46
REMARK    7  A    between atoms: C_30  and  C_34
REMARK    8  A    between atoms: C_33  and  C_35
REMARK    9  A    between atoms: C_39  and  C_42
REMARK   10  A    between atoms: C_43  and  C_48
REMARK                            x       y       z     vdW  Elec       q    Type
REMARK                         _______ _______ _______ _____ _____    ______ ____
ROOT
ATOM      1  O   UNL     1     110.845 130.090 137.639  0.00  0.00    +0.000 OA
ATOM      2  O   UNL     1     110.166 128.251 139.151  0.00  0.00    +0.000 OA
ATOM      3  O   UNL     1     108.830 131.830 138.818  0.00  0.00    +0.000 OA
ATOM      4  O   UNL     1     109.157 129.085 139.759  0.00  0.00    +0.000 OA
ATOM      5  C   UNL     1     111.001 128.746 138.103  0.00  0.00    +0.000 A 
ATOM      6  C   UNL     1     111.227 129.360 137.599  0.00  0.00    +0.000 A 
ATOM      7  C   UNL     1     110.392 128.864 138.647  0.00  0.00    +0.000 A 
ATOM      8  C   UNL     1     110.236 130.206 138.183  0.00  0.00    +0.000 A 
ATOM      9  C   UNL     1     109.846 130.971 138.215  0.00  0.00    +0.000 A 
ATOM     10  C   UNL     1     110.009 129.594 138.687  0.00  0.00    +0.000 A 
ATOM     11  C   UNL     1     109.210 131.100 138.780  0.00  0.00    +0.000 A 
ATOM     12  C   UNL     1     109.377 129.703 139.258  0.00  0.00    +0.000 A 
ATOM     13  C   UNL     1     108.975 130.461 139.305  0.00  0.00    +0.000 A 
ENDROOT
BRANCH   6  16
ATOM     14  O   UNL     1     112.129 128.389 135.066  0.00  0.00    +0.000 OA
ATOM     15  O   UNL     1     113.661 128.887 135.421  0.00  0.00    +0.000 OA
ATOM     16  C   UNL     1     111.836 129.242 137.055  0.00  0.00    +0.000 A 
ATOM     17  C   UNL     1     111.678 128.874 136.332  0.00  0.00    +0.000 A 
ATOM     18  C   UNL     1     112.602 129.491 137.232  0.00  0.00    +0.000 A 
ATOM     19  C   UNL     1     112.287 128.757 135.788  0.00  0.00    +0.000 A 
ATOM     20  C   UNL     1     113.211 129.372 136.687  0.00  0.00    +0.000 A 
ATOM     21  C   UNL     1     113.053 129.006 135.966  0.00  0.00    +0.000 A 
ENDBRANCH   6  16
BRANCH   5  22
ATOM     22  O   UNL     1     111.383 128.016 138.063  0.00  0.00    +0.000 OA
BRANCH  22  29
ATOM     23  O   UNL     1     112.118 128.165 139.279  0.00  0.00    +0.000 OA
ATOM     24  O   UNL     1     111.900 125.738 139.708  0.00  0.00    +0.000 OA
ATOM     25  O   UNL     1     112.707 126.696 140.781  0.00  0.00    +0.000 OA
ATOM     26  C   UNL     1     111.641 126.878 138.885  0.00  0.00    +0.000 C 
ATOM     27  C   UNL     1     111.973 126.547 139.565  0.00  0.00    +0.000 C 
ATOM     28  C   UNL     1     112.377 127.027 140.101  0.00  0.00    +0.000 C 
ATOM     29  C   UNL     1     111.714 127.687 138.742  0.00  0.00    +0.000 C 
ATOM     30  C   UNL     1     112.449 127.836 139.958  0.00  0.00    +0.000 C 
BRANCH  30  32
ATOM     31  O   UNL     1     113.512 128.745 140.249  0.00  0.00    +0.000 OA
ATOM     32  C   UNL     1     112.853 128.314 140.494  0.00  0.00    +0.000 C 
ENDBRANCH  30  32
BRANCH  26  33
ATOM     33  O   UNL     1     111.238 126.398 138.349  0.00  0.00    +0.000 OA
BRANCH  33  38
ATOM     34  O   UNL     1     112.482 125.920 137.836  0.00  0.00    +0.000 OA
ATOM     35  O   UNL     1     110.429 125.484 137.238  0.00  0.00    +0.000 OA
ATOM     36  O   UNL     1     111.270 124.549 136.170  0.00  0.00    +0.000 OA
ATOM     37  O   UNL     1     112.920 124.528 136.213  0.00  0.00    +0.000 OA
ATOM     38  C   UNL     1     111.658 125.930 137.815  0.00  0.00    +0.000 C 
ATOM     39  C   UNL     1     111.253 125.473 137.260  0.00  0.00    +0.000 C 
ATOM     40  C   UNL     1     111.674 125.006 136.726  0.00  0.00    +0.000 C 
ATOM     41  C   UNL     1     112.499 124.995 136.747  0.00  0.00    +0.000 C 
ATOM     42  C   UNL     1     112.903 125.452 137.302  0.00  0.00    +0.000 C 
BRANCH  42  44
ATOM     43  O   UNL     1     114.156 126.073 137.009  0.00  0.00    +0.000 OA
ATOM     44  C   UNL     1     113.728 125.442 137.323  0.00  0.00    +0.000 C 
ENDBRANCH  42  44
ENDBRANCH  33  38
ENDBRANCH  26  33
ENDBRANCH  22  29
ENDBRANCH   5  22
BRANCH   9  45
ATOM     45  O   UNL     1     110.078 131.578 137.707  0.00  0.00    +0.000 OA
BRANCH  45  54
ATOM     46  O   UNL     1     109.022 131.236 136.809  0.00  0.00    +0.000 OA
ATOM     47  O   UNL     1     109.625 133.154 135.367  0.00  0.00    +0.000 OA
ATOM     48  O   UNL     1     108.368 132.172 134.949  0.00  0.00    +0.000 OA
ATOM     49  O   UNL     1     110.481 132.858 136.747  0.00  0.00    +0.000 OA
ATOM     50  C   UNL     1     109.424 132.515 135.847  0.00  0.00    +0.000 C 
ATOM     51  C   UNL     1     108.795 132.023 135.639  0.00  0.00    +0.000 C 
ATOM     52  C   UNL     1     109.852 132.367 136.537  0.00  0.00    +0.000 C 
ATOM     53  C   UNL     1     108.594 131.384 136.119  0.00  0.00    +0.000 C 
ATOM     54  C   UNL     1     109.650 131.726 137.018  0.00  0.00    +0.000 C 
BRANCH  53  56
ATOM     55  O   UNL     1     108.108 130.108 135.697  0.00  0.00    +0.000 OA
ATOM     56  C   UNL     1     107.965 130.892 135.910  0.00  0.00    +0.000 C 
ENDBRANCH  53  56
ENDBRANCH  45  54
ENDBRANCH   9  45
TORSDOF 10
ENDMDL
MODEL 6
REMARK VINA RESULT:     -10.3      2.391      5.784
REMARK  Name = 44259981
REMARK  10 active torsions:
REMARK  status: ('A' for Active; 'I' for Inactive)
REMARK    1  A    between atoms: O_1  and  C_24
REMARK    2  A    between atoms: O_1  and  C_27
REMARK    3  A    between atoms: O_4  and  C_28
REMARK    4  A    between atoms: O_4  and  C_41
REMARK    5  A    between atoms: O_12  and  C_40
REMARK    6  A    between atoms: O_12  and  C_46
REMARK    7  A    between atoms: C_30  and  C_34
REMARK    8  A    between atoms: C_33  and  C_35
REMARK    9  A    between atoms: C_39  and  C_42
REMARK   10  A    between atoms: C_43  and  C_48
REMARK                            x       y       z     vdW  Elec       q    Type
REMARK                         _______ _______ _______ _____ _____    ______ ____
ROOT
ATOM      1  O   UNL     1     110.454 129.203 137.725  0.00  0.00    +0.000 OA
ATOM      2  O   UNL     1     112.865 129.350 138.270  0.00  0.00    +0.000 OA
ATOM      3  O   UNL     1     111.049 129.587 134.900  0.00  0.00    +0.000 OA
ATOM      4  O   UNL     1     113.197 129.542 136.879  0.00  0.00    +0.000 OA
ATOM      5  C   UNL     1     111.509 129.182 138.690  0.00  0.00    +0.000 A 
ATOM      6  C   UNL     1     110.705 129.133 138.508  0.00  0.00    +0.000 A 
ATOM      7  C   UNL     1     112.061 129.301 138.088  0.00  0.00    +0.000 A 
ATOM      8  C   UNL     1     111.007 129.322 137.124  0.00  0.00    +0.000 A 
ATOM      9  C   UNL     1     110.733 129.393 136.313  0.00  0.00    +0.000 A 
ATOM     10  C   UNL     1     111.810 129.371 137.305  0.00  0.00    +0.000 A 
ATOM     11  C   UNL     1     111.303 129.517 135.682  0.00  0.00    +0.000 A 
ATOM     12  C   UNL     1     112.395 129.495 136.688  0.00  0.00    +0.000 A 
ATOM     13  C   UNL     1     112.139 129.568 135.871  0.00  0.00    +0.000 A 
ENDROOT
BRANCH   6  16
ATOM     14  O   UNL     1     109.047 127.373 140.032  0.00  0.00    +0.000 OA
ATOM     15  O   UNL     1     108.498 128.655 140.914  0.00  0.00    +0.000 OA
ATOM     16  C   UNL     1     110.154 129.014 139.110  0.00  0.00    +0.000 A 
ATOM     17  C   UNL     1     109.876 128.253 139.270  0.00  0.00    +0.000 A 
ATOM     18  C   UNL     1     109.879 129.655 139.551  0.00  0.00    +0.000 A 
ATOM     19  C   UNL     1     109.325 128.134 139.871  0.00  0.00    +0.000 A 
ATOM     20  C   UNL     1     109.328 129.535 140.153  0.00  0.00    +0.000 A 
ATOM     21  C   UNL     1     109.050 128.775 140.313  0.00  0.00    +0.000 A 
ENDBRANCH   6  16
BRANCH   5  22
ATOM     22  O   UNL     1     111.760 129.112 139.473  0.00  0.00    +0.000 OA
BRANCH  22  29
ATOM     23  O   UNL     1     112.311 127.802 139.327  0.00  0.00    +0.000 OA
ATOM     24  O   UNL     1     114.069 128.356 140.977  0.00  0.00    +0.000 OA
ATOM     25  O   UNL     1     114.033 126.861 140.282  0.00  0.00    +0.000 OA
ATOM     26  C   UNL     1     112.914 128.735 140.225  0.00  0.00    +0.000 C 
ATOM     27  C   UNL     1     113.483 128.171 140.427  0.00  0.00    +0.000 C 
ATOM     28  C   UNL     1     113.465 127.424 140.079  0.00  0.00    +0.000 C 
ATOM     29  C   UNL     1     112.328 128.550 139.674  0.00  0.00    +0.000 C 
ATOM     30  C   UNL     1     112.878 127.239 139.529  0.00  0.00    +0.000 C 
BRANCH  30  32
ATOM     31  O   UNL     1     112.206 126.001 139.289  0.00  0.00    +0.000 OA
ATOM     32  C   UNL     1     112.860 126.492 139.181  0.00  0.00    +0.000 C 
ENDBRANCH  30  32
BRANCH  26  33
ATOM     33  O   UNL     1     112.933 129.482 140.573  0.00  0.00    +0.000 OA
BRANCH  33  38
ATOM     34  O   UNL     1     112.351 128.945 141.761  0.00  0.00    +0.000 OA
ATOM     35  O   UNL     1     112.917 130.988 141.246  0.00  0.00    +0.000 OA
ATOM     36  O   UNL     1     112.327 131.204 142.772  0.00  0.00    +0.000 OA
ATOM     37  O   UNL     1     111.753 129.913 143.624  0.00  0.00    +0.000 OA
ATOM     38  C   UNL     1     112.638 129.590 141.336  0.00  0.00    +0.000 C 
ATOM     39  C   UNL     1     112.630 130.344 141.672  0.00  0.00    +0.000 C 
ATOM     40  C   UNL     1     112.335 130.451 142.435  0.00  0.00    +0.000 C 
ATOM     41  C   UNL     1     112.048 129.806 142.861  0.00  0.00    +0.000 C 
ATOM     42  C   UNL     1     112.056 129.053 142.524  0.00  0.00    +0.000 C 
BRANCH  42  44
ATOM     43  O   UNL     1     111.108 127.995 142.678  0.00  0.00    +0.000 OA
ATOM     44  C   UNL     1     111.768 128.407 142.951  0.00  0.00    +0.000 C 
ENDBRANCH  42  44
ENDBRANCH  33  38
ENDBRANCH  26  33
ENDBRANCH  22  29
ENDBRANCH   5  22
BRANCH   9  45
ATOM     45  O   UNL     1     109.927 129.343 136.140  0.00  0.00    +0.000 OA
BRANCH  45  54
ATOM     46  O   UNL     1     109.838 130.768 136.131  0.00  0.00    +0.000 OA
ATOM     47  O   UNL     1     107.400 130.613 135.737  0.00  0.00    +0.000 OA
ATOM     48  O   UNL     1     108.123 132.091 135.859  0.00  0.00    +0.000 OA
ATOM     49  O   UNL     1     108.302 129.239 135.878  0.00  0.00    +0.000 OA
ATOM     50  C   UNL     1     108.212 130.665 135.868  0.00  0.00    +0.000 C 
ATOM     51  C   UNL     1     108.575 131.404 135.929  0.00  0.00    +0.000 C 
ATOM     52  C   UNL     1     108.663 129.978 135.939  0.00  0.00    +0.000 C 
ATOM     53  C   UNL     1     109.387 131.456 136.061  0.00  0.00    +0.000 C 
ATOM     54  C   UNL     1     109.477 130.030 136.070  0.00  0.00    +0.000 C 
BRANCH  53  56
ATOM     55  O   UNL     1     110.016 132.464 136.855  0.00  0.00    +0.000 OA
ATOM     56  C   UNL     1     109.749 132.195 136.122  0.00  0.00    +0.000 C 
ENDBRANCH  53  56
ENDBRANCH  45  54
ENDBRANCH   9  45
TORSDOF 10
ENDMDL
MODEL 7
REMARK VINA RESULT:     -10.2      2.453      4.574
REMARK  Name = 44259981
REMARK  10 active torsions:
REMARK  status: ('A' for Active; 'I' for Inactive)
REMARK    1  A    between atoms: O_1  and  C_24
REMARK    2  A    between atoms: O_1  and  C_27
REMARK    3  A    between atoms: O_4  and  C_28
REMARK    4  A    between atoms: O_4  and  C_41
REMARK    5  A    between atoms: O_12  and  C_40
REMARK    6  A    between atoms: O_12  and  C_46
REMARK    7  A    between atoms: C_30  and  C_34
REMARK    8  A    between atoms: C_33  and  C_35
REMARK    9  A    between atoms: C_39  and  C_42
REMARK   10  A    between atoms: C_43  and  C_48
REMARK                            x       y       z     vdW  Elec       q    Type
REMARK                         _______ _______ _______ _____ _____    ______ ____
ROOT
ATOM      1  O   UNL     1     111.648 127.467 138.449  0.00  0.00    +0.000 OA
ATOM      2  O   UNL     1     111.291 129.908 138.663  0.00  0.00    +0.000 OA
ATOM      3  O   UNL     1     113.115 127.880 135.967  0.00  0.00    +0.000 OA
ATOM      4  O   UNL     1     112.013 130.150 137.437  0.00  0.00    +0.000 OA
ATOM      5  C   UNL     1     111.110 128.582 139.165  0.00  0.00    +0.000 A 
ATOM      6  C   UNL     1     111.229 127.768 139.093  0.00  0.00    +0.000 A 
ATOM      7  C   UNL     1     111.410 129.094 138.592  0.00  0.00    +0.000 A 
ATOM      8  C   UNL     1     111.947 127.981 137.876  0.00  0.00    +0.000 A 
ATOM      9  C   UNL     1     112.382 127.654 137.210  0.00  0.00    +0.000 A 
ATOM     10  C   UNL     1     111.829 128.793 137.947  0.00  0.00    +0.000 A 
ATOM     11  C   UNL     1     112.697 128.183 136.610  0.00  0.00    +0.000 A 
ATOM     12  C   UNL     1     112.136 129.338 137.358  0.00  0.00    +0.000 A 
ATOM     13  C   UNL     1     112.573 129.030 136.685  0.00  0.00    +0.000 A 
ENDROOT
BRANCH   6  16
ATOM     14  O   UNL     1     111.607 126.205 141.456  0.00  0.00    +0.000 OA
ATOM     15  O   UNL     1     110.031 125.720 141.386  0.00  0.00    +0.000 OA
ATOM     16  C   UNL     1     110.929 127.256 139.666  0.00  0.00    +0.000 A 
ATOM     17  C   UNL     1     111.418 126.987 140.274  0.00  0.00    +0.000 A 
ATOM     18  C   UNL     1     110.141 127.013 139.631  0.00  0.00    +0.000 A 
ATOM     19  C   UNL     1     111.118 126.475 140.847  0.00  0.00    +0.000 A 
ATOM     20  C   UNL     1     109.842 126.501 140.205  0.00  0.00    +0.000 A 
ATOM     21  C   UNL     1     110.330 126.232 140.813  0.00  0.00    +0.000 A 
ENDBRANCH   6  16
BRANCH   5  22
ATOM     22  O   UNL     1     110.692 128.883 139.809  0.00  0.00    +0.000 OA
BRANCH  22  29
ATOM     23  O   UNL     1     111.829 129.426 140.483  0.00  0.00    +0.000 OA
ATOM     24  O   UNL     1     110.443 131.302 141.310  0.00  0.00    +0.000 OA
ATOM     25  O   UNL     1     112.041 131.219 141.708  0.00  0.00    +0.000 OA
ATOM     26  C   UNL     1     110.567 130.092 140.559  0.00  0.00    +0.000 C 
ATOM     27  C   UNL     1     110.905 130.676 141.034  0.00  0.00    +0.000 C 
ATOM     28  C   UNL     1     111.704 130.635 141.233  0.00  0.00    +0.000 C 
ATOM     29  C   UNL     1     111.029 129.466 140.283  0.00  0.00    +0.000 C 
ATOM     30  C   UNL     1     112.166 130.009 140.957  0.00  0.00    +0.000 C 
BRANCH  30  32
ATOM     31  O   UNL     1     113.260 129.306 141.550  0.00  0.00    +0.000 OA
ATOM     32  C   UNL     1     112.965 129.968 141.156  0.00  0.00    +0.000 C 
ENDBRANCH  30  32
BRANCH  26  33
ATOM     33  O   UNL     1     109.767 130.133 140.361  0.00  0.00    +0.000 OA
BRANCH  33  38
ATOM     34  O   UNL     1     109.418 129.655 141.660  0.00  0.00    +0.000 OA
ATOM     35  O   UNL     1     108.171 130.172 139.946  0.00  0.00    +0.000 OA
ATOM     36  O   UNL     1     107.023 129.713 141.039  0.00  0.00    +0.000 OA
ATOM     37  O   UNL     1     107.472 129.215 142.546  0.00  0.00    +0.000 OA
ATOM     38  C   UNL     1     109.194 129.904 140.907  0.00  0.00    +0.000 C 
ATOM     39  C   UNL     1     108.395 129.924 140.699  0.00  0.00    +0.000 C 
ATOM     40  C   UNL     1     107.821 129.694 141.245  0.00  0.00    +0.000 C 
ATOM     41  C   UNL     1     108.046 129.445 142.000  0.00  0.00    +0.000 C 
ATOM     42  C   UNL     1     108.844 129.425 142.207  0.00  0.00    +0.000 C 
BRANCH  42  44
ATOM     43  O   UNL     1     109.436 128.444 143.060  0.00  0.00    +0.000 OA
ATOM     44  C   UNL     1     109.069 129.176 142.961  0.00  0.00    +0.000 C 
ENDBRANCH  42  44
ENDBRANCH  33  38
ENDBRANCH  26  33
ENDBRANCH  22  29
ENDBRANCH   5  22
BRANCH   9  45
ATOM     45  O   UNL     1     112.496 126.840 137.146  0.00  0.00    +0.000 OA
BRANCH  45  54
ATOM     46  O   UNL     1     111.385 126.752 136.253  0.00  0.00    +0.000 OA
ATOM     47  O   UNL     1     111.671 124.297 136.138  0.00  0.00    +0.000 OA
ATOM     48  O   UNL     1     110.464 125.028 135.283  0.00  0.00    +0.000 OA
ATOM     49  O   UNL     1     112.687 125.203 137.070  0.00  0.00    +0.000 OA
ATOM     50  C   UNL     1     111.575 125.115 136.176  0.00  0.00    +0.000 C 
ATOM     51  C   UNL     1     110.972 125.481 135.749  0.00  0.00    +0.000 C 
ATOM     52  C   UNL     1     112.084 125.568 136.642  0.00  0.00    +0.000 C 
ATOM     53  C   UNL     1     110.876 126.299 135.787  0.00  0.00    +0.000 C 
ATOM     54  C   UNL     1     111.987 126.387 136.680  0.00  0.00    +0.000 C 
BRANCH  53  56
ATOM     55  O   UNL     1     109.617 126.975 135.754  0.00  0.00    +0.000 OA
ATOM     56  C   UNL     1     110.272 126.665 135.360  0.00  0.00    +0.000 C 
ENDBRANCH  53  56
ENDBRANCH  45  54
ENDBRANCH   9  45
TORSDOF 10
ENDMDL
MODEL 8
REMARK VINA RESULT:     -10.2      1.239      2.677
REMARK  Name = 44259981
REMARK  10 active torsions:
REMARK  status: ('A' for Active; 'I' for Inactive)
REMARK    1  A    between atoms: O_1  and  C_24
REMARK    2  A    between atoms: O_1  and  C_27
REMARK    3  A    between atoms: O_4  and  C_28
REMARK    4  A    between atoms: O_4  and  C_41
REMARK    5  A    between atoms: O_12  and  C_40
REMARK    6  A    between atoms: O_12  and  C_46
REMARK    7  A    between atoms: C_30  and  C_34
REMARK    8  A    between atoms: C_33  and  C_35
REMARK    9  A    between atoms: C_39  and  C_42
REMARK   10  A    between atoms: C_43  and  C_48
REMARK                            x       y       z     vdW  Elec       q    Type
REMARK                         _______ _______ _______ _____ _____    ______ ____
ROOT
ATOM      1  O   UNL     1     111.154 127.361 137.793  0.00  0.00    +0.000 OA
ATOM      2  O   UNL     1     111.719 129.508 138.888  0.00  0.00    +0.000 OA
ATOM      3  O   UNL     1     112.682 125.910 139.804  0.00  0.00    +0.000 OA
ATOM      4  O   UNL     1     112.485 128.823 139.901  0.00  0.00    +0.000 OA
ATOM      5  C   UNL     1     111.061 128.787 137.845  0.00  0.00    +0.000 A 
ATOM      6  C   UNL     1     110.872 128.071 137.480  0.00  0.00    +0.000 A 
ATOM      7  C   UNL     1     111.531 128.792 138.523  0.00  0.00    +0.000 A 
ATOM      8  C   UNL     1     111.624 127.368 138.471  0.00  0.00    +0.000 A 
ATOM      9  C   UNL     1     111.911 126.622 138.787  0.00  0.00    +0.000 A 
ATOM     10  C   UNL     1     111.812 128.083 138.836  0.00  0.00    +0.000 A 
ATOM     11  C   UNL     1     112.402 126.621 139.493  0.00  0.00    +0.000 A 
ATOM     12  C   UNL     1     112.301 128.102 139.543  0.00  0.00    +0.000 A 
ATOM     13  C   UNL     1     112.597 127.367 139.873  0.00  0.00    +0.000 A 
ENDROOT
BRANCH   6  16
ATOM     14  O   UNL     1     108.287 128.109 136.262  0.00  0.00    +0.000 OA
ATOM     15  O   UNL     1     108.989 128.049 134.770  0.00  0.00    +0.000 OA
ATOM     16  C   UNL     1     110.402 128.065 136.802  0.00  0.00    +0.000 A 
ATOM     17  C   UNL     1     109.580 128.090 136.871  0.00  0.00    +0.000 A 
ATOM     18  C   UNL     1     110.753 128.035 136.056  0.00  0.00    +0.000 A 
ATOM     19  C   UNL     1     109.110 128.085 136.193  0.00  0.00    +0.000 A 
ATOM     20  C   UNL     1     110.282 128.030 135.379  0.00  0.00    +0.000 A 
ATOM     21  C   UNL     1     109.461 128.055 135.447  0.00  0.00    +0.000 A 
ENDBRANCH   6  16
BRANCH   5  22
ATOM     22  O   UNL     1     110.779 129.496 137.533  0.00  0.00    +0.000 OA
BRANCH  22  29
ATOM     23  O   UNL     1     112.032 129.933 137.002  0.00  0.00    +0.000 OA
ATOM     24  O   UNL     1     111.431 132.279 137.513  0.00  0.00    +0.000 OA
ATOM     25  O   UNL     1     112.883 131.933 136.812  0.00  0.00    +0.000 OA
ATOM     26  C   UNL     1     111.105 130.887 137.523  0.00  0.00    +0.000 C 
ATOM     27  C   UNL     1     111.631 131.497 137.343  0.00  0.00    +0.000 C 
ATOM     28  C   UNL     1     112.358 131.323 136.992  0.00  0.00    +0.000 C 
ATOM     29  C   UNL     1     111.305 130.105 137.352  0.00  0.00    +0.000 C 
ATOM     30  C   UNL     1     112.558 130.541 136.822  0.00  0.00    +0.000 C 
BRANCH  30  32
ATOM     31  O   UNL     1     113.310 129.970 135.749  0.00  0.00    +0.000 OA
ATOM     32  C   UNL     1     113.284 130.369 136.471  0.00  0.00    +0.000 C 
ENDBRANCH  30  32
BRANCH  26  33
ATOM     33  O   UNL     1     110.378 131.060 137.874  0.00  0.00    +0.000 OA
BRANCH  33  38
ATOM     34  O   UNL     1     109.860 131.467 136.606  0.00  0.00    +0.000 OA
ATOM     35  O   UNL     1     108.897 131.304 138.558  0.00  0.00    +0.000 OA
ATOM     36  O   UNL     1     107.638 131.834 137.632  0.00  0.00    +0.000 OA
ATOM     37  O   UNL     1     107.860 132.119 136.022  0.00  0.00    +0.000 OA
ATOM     38  C   UNL     1     109.749 131.325 137.411  0.00  0.00    +0.000 C 
ATOM     39  C   UNL     1     109.008 131.447 137.753  0.00  0.00    +0.000 C 
ATOM     40  C   UNL     1     108.379 131.711 137.290  0.00  0.00    +0.000 C 
ATOM     41  C   UNL     1     108.490 131.854 136.485  0.00  0.00    +0.000 C 
ATOM     42  C   UNL     1     109.231 131.732 136.143  0.00  0.00    +0.000 C 
BRANCH  42  44
ATOM     43  O   UNL     1     109.381 131.243 134.809  0.00  0.00    +0.000 OA
ATOM     44  C   UNL     1     109.342 131.875 135.338  0.00  0.00    +0.000 C 
ENDBRANCH  42  44
ENDBRANCH  33  38
ENDBRANCH  26  33
ENDBRANCH  22  29
ENDBRANCH   5  22
BRANCH   9  45
ATOM     45  O   UNL     1     111.718 125.911 138.416  0.00  0.00    +0.000 OA
BRANCH  45  54
ATOM     46  O   UNL     1     112.935 125.957 137.670  0.00  0.00    +0.000 OA
ATOM     47  O   UNL     1     112.523 123.658 136.852  0.00  0.00    +0.000 OA
ATOM     48  O   UNL     1     113.878 124.471 136.379  0.00  0.00    +0.000 OA
ATOM     49  O   UNL     1     111.443 124.378 137.871  0.00  0.00    +0.000 OA
ATOM     50  C   UNL     1     112.660 124.425 137.125  0.00  0.00    +0.000 C 
ATOM     51  C   UNL     1     113.338 124.832 136.888  0.00  0.00    +0.000 C 
ATOM     52  C   UNL     1     112.120 124.784 137.634  0.00  0.00    +0.000 C 
ATOM     53  C   UNL     1     113.476 125.598 137.160  0.00  0.00    +0.000 C 
ATOM     54  C   UNL     1     112.258 125.551 137.906  0.00  0.00    +0.000 C 
BRANCH  53  56
ATOM     55  O   UNL     1     114.087 126.671 136.442  0.00  0.00    +0.000 OA
ATOM     56  C   UNL     1     114.154 126.004 136.923  0.00  0.00    +0.000 C 
ENDBRANCH  53  56
ENDBRANCH  45  54
ENDBRANCH   9  45
TORSDOF 10
ENDMDL
MODEL 9
REMARK VINA RESULT:     -10.2      2.506      5.763
REMARK  Name = 44259981
REMARK  10 active torsions:
REMARK  status: ('A' for Active; 'I' for Inactive)
REMARK    1  A    between atoms: O_1  and  C_24
REMARK    2  A    between atoms: O_1  and  C_27
REMARK    3  A    between atoms: O_4  and  C_28
REMARK    4  A    between atoms: O_4  and  C_41
REMARK    5  A    between atoms: O_12  and  C_40
REMARK    6  A    between atoms: O_12  and  C_46
REMARK    7  A    between atoms: C_30  and  C_34
REMARK    8  A    between atoms: C_33  and  C_35
REMARK    9  A    between atoms: C_39  and  C_42
REMARK   10  A    between atoms: C_43  and  C_48
REMARK                            x       y       z     vdW  Elec       q    Type
REMARK                         _______ _______ _______ _____ _____    ______ ____
ROOT
ATOM      1  O   UNL     1     111.773 129.689 139.648  0.00  0.00    +0.000 OA
ATOM      2  O   UNL     1     113.707 128.292 138.986  0.00  0.00    +0.000 OA
ATOM      3  O   UNL     1     113.330 130.851 141.818  0.00  0.00    +0.000 OA
ATOM      4  O   UNL     1     114.508 128.846 140.050  0.00  0.00    +0.000 OA
ATOM      5  C   UNL     1     112.354 128.708 138.786  0.00  0.00    +0.000 A 
ATOM      6  C   UNL     1     111.709 129.174 139.007  0.00  0.00    +0.000 A 
ATOM      7  C   UNL     1     113.062 128.758 139.207  0.00  0.00    +0.000 A 
ATOM      8  C   UNL     1     112.481 129.738 140.068  0.00  0.00    +0.000 A 
ATOM      9  C   UNL     1     112.534 130.278 140.734  0.00  0.00    +0.000 A 
ATOM     10  C   UNL     1     113.125 129.273 139.848  0.00  0.00    +0.000 A 
ATOM     11  C   UNL     1     113.269 130.335 141.177  0.00  0.00    +0.000 A 
ATOM     12  C   UNL     1     113.868 129.316 140.278  0.00  0.00    +0.000 A 
ATOM     13  C   UNL     1     113.940 129.850 140.947  0.00  0.00    +0.000 A 
ENDROOT
BRANCH   6  16
ATOM     14  O   UNL     1     109.242 127.837 138.466  0.00  0.00    +0.000 OA
ATOM     15  O   UNL     1     108.878 128.971 137.324  0.00  0.00    +0.000 OA
ATOM     16  C   UNL     1     111.002 129.124 138.586  0.00  0.00    +0.000 A 
ATOM     17  C   UNL     1     110.475 128.505 138.736  0.00  0.00    +0.000 A 
ATOM     18  C   UNL     1     110.820 129.690 138.015  0.00  0.00    +0.000 A 
ATOM     19  C   UNL     1     109.768 128.455 138.316  0.00  0.00    +0.000 A 
ATOM     20  C   UNL     1     110.112 129.639 137.594  0.00  0.00    +0.000 A 
ATOM     21  C   UNL     1     109.586 129.022 137.744  0.00  0.00    +0.000 A 
ENDBRANCH   6  16
BRANCH   5  22
ATOM     22  O   UNL     1     112.291 128.193 138.144  0.00  0.00    +0.000 OA
BRANCH  22  29
ATOM     23  O   UNL     1     113.054 128.991 137.238  0.00  0.00    +0.000 OA
ATOM     24  O   UNL     1     113.947 126.939 136.182  0.00  0.00    +0.000 OA
ATOM     25  O   UNL     1     114.413 128.421 135.629  0.00  0.00    +0.000 OA
ATOM     26  C   UNL     1     113.118 127.566 137.164  0.00  0.00    +0.000 C 
ATOM     27  C   UNL     1     113.650 127.623 136.534  0.00  0.00    +0.000 C 
ATOM     28  C   UNL     1     113.882 128.365 136.258  0.00  0.00    +0.000 C 
ATOM     29  C   UNL     1     112.821 128.250 137.516  0.00  0.00    +0.000 C 
ATOM     30  C   UNL     1     113.585 129.049 136.610  0.00  0.00    +0.000 C 
BRANCH  30  32
ATOM     31  O   UNL     1     113.257 130.311 136.024  0.00  0.00    +0.000 OA
ATOM     32  C   UNL     1     113.818 129.790 136.333  0.00  0.00    +0.000 C 
ENDBRANCH  30  32
BRANCH  26  33
ATOM     33  O   UNL     1     112.886 126.825 137.440  0.00  0.00    +0.000 OA
BRANCH  33  38
ATOM     34  O   UNL     1     111.999 126.687 136.329  0.00  0.00    +0.000 OA
ATOM     35  O   UNL     1     112.432 125.335 137.986  0.00  0.00    +0.000 OA
ATOM     36  O   UNL     1     111.318 124.453 137.147  0.00  0.00    +0.000 OA
ATOM     37  O   UNL     1     110.658 125.061 135.763  0.00  0.00    +0.000 OA
ATOM     38  C   UNL     1     112.329 126.384 137.021  0.00  0.00    +0.000 C 
ATOM     39  C   UNL     1     112.102 125.639 137.294  0.00  0.00    +0.000 C 
ATOM     40  C   UNL     1     111.545 125.198 136.875  0.00  0.00    +0.000 C 
ATOM     41  C   UNL     1     111.215 125.502 136.182  0.00  0.00    +0.000 C 
ATOM     42  C   UNL     1     111.442 126.246 135.909  0.00  0.00    +0.000 C 
BRANCH  42  44
ATOM     43  O   UNL     1     110.574 127.175 135.256  0.00  0.00    +0.000 OA
ATOM     44  C   UNL     1     111.111 126.550 135.216  0.00  0.00    +0.000 C 
ENDBRANCH  42  44
ENDBRANCH  33  38
ENDBRANCH  26  33
ENDBRANCH  22  29
ENDBRANCH   5  22
BRANCH   9  45
ATOM     45  O   UNL     1     111.885 130.740 140.948  0.00  0.00    +0.000 OA
BRANCH  45  54
ATOM     46  O   UNL     1     111.506 129.772 141.928  0.00  0.00    +0.000 OA
ATOM     47  O   UNL     1     109.791 131.328 142.803  0.00  0.00    +0.000 OA
ATOM     48  O   UNL     1     109.984 129.841 143.491  0.00  0.00    +0.000 OA
ATOM     49  O   UNL     1     110.742 131.778 141.531  0.00  0.00    +0.000 OA
ATOM     50  C   UNL     1     110.363 130.809 142.511  0.00  0.00    +0.000 C 
ATOM     51  C   UNL     1     110.460 130.066 142.855  0.00  0.00    +0.000 C 
ATOM     52  C   UNL     1     110.838 131.035 141.875  0.00  0.00    +0.000 C 
ATOM     53  C   UNL     1     111.031 129.547 142.564  0.00  0.00    +0.000 C 
ATOM     54  C   UNL     1     111.410 130.515 141.584  0.00  0.00    +0.000 C 
BRANCH  53  56
ATOM     55  O   UNL     1     110.900 128.126 142.496  0.00  0.00    +0.000 OA
ATOM     56  C   UNL     1     111.127 128.803 142.908  0.00  0.00    +0.000 C 
ENDBRANCH  53  56
ENDBRANCH  45  54
ENDBRANCH   9  45
TORSDOF 10
ENDMDL
MODEL 10
REMARK VINA RESULT:     -10.2      2.474      4.817
REMARK  Name = 44259981
REMARK  10 active torsions:
REMARK  status: ('A' for Active; 'I' for Inactive)
REMARK    1  A    between atoms: O_1  and  C_24
REMARK    2  A    between atoms: O_1  and  C_27
REMARK    3  A    between atoms: O_4  and  C_28
REMARK    4  A    between atoms: O_4  and  C_41
REMARK    5  A    between atoms: O_12  and  C_40
REMARK    6  A    between atoms: O_12  and  C_46
REMARK    7  A    between atoms: C_30  and  C_34
REMARK    8  A    between atoms: C_33  and  C_35
REMARK    9  A    between atoms: C_39  and  C_42
REMARK   10  A    between atoms: C_43  and  C_48
REMARK                            x       y       z     vdW  Elec       q    Type
REMARK                         _______ _______ _______ _____ _____    ______ ____
ROOT
ATOM      1  O   UNL     1     112.189 128.993 139.887  0.00  0.00    +0.000 OA
ATOM      2  O   UNL     1     112.723 130.354 137.890  0.00  0.00    +0.000 OA
ATOM      3  O   UNL     1     114.450 130.153 141.308  0.00  0.00    +0.000 OA
ATOM      4  O   UNL     1     113.852 130.950 138.563  0.00  0.00    +0.000 OA
ATOM      5  C   UNL     1     111.900 129.386 138.544  0.00  0.00    +0.000 A 
ATOM      6  C   UNL     1     111.722 128.932 139.210  0.00  0.00    +0.000 A 
ATOM      7  C   UNL     1     112.545 129.900 138.556  0.00  0.00    +0.000 A 
ATOM      8  C   UNL     1     112.834 129.507 139.898  0.00  0.00    +0.000 A 
ATOM      9  C   UNL     1     113.312 129.561 140.610  0.00  0.00    +0.000 A 
ATOM     10  C   UNL     1     113.012 129.961 139.233  0.00  0.00    +0.000 A 
ATOM     11  C   UNL     1     113.985 130.095 140.629  0.00  0.00    +0.000 A 
ATOM     12  C   UNL     1     113.681 130.500 139.233  0.00  0.00    +0.000 A 
ATOM     13  C   UNL     1     114.170 130.567 139.936  0.00  0.00    +0.000 A 
ENDROOT
BRANCH   6  16
ATOM     14  O   UNL     1     108.916 128.476 139.507  0.00  0.00    +0.000 OA
ATOM     15  O   UNL     1     109.139 126.878 139.160  0.00  0.00    +0.000 OA
ATOM     16  C   UNL     1     111.077 128.418 139.197  0.00  0.00    +0.000 A 
ATOM     17  C   UNL     1     110.319 128.704 139.358  0.00  0.00    +0.000 A 
ATOM     18  C   UNL     1     111.188 127.619 139.024  0.00  0.00    +0.000 A 
ATOM     19  C   UNL     1     109.674 128.190 139.346  0.00  0.00    +0.000 A 
ATOM     20  C   UNL     1     110.542 127.106 139.012  0.00  0.00    +0.000 A 
ATOM     21  C   UNL     1     109.786 127.391 139.173  0.00  0.00    +0.000 A 
ENDBRANCH   6  16
BRANCH   5  22
ATOM     22  O   UNL     1     111.433 129.326 137.866  0.00  0.00    +0.000 OA
BRANCH  22  29
ATOM     23  O   UNL     1     112.397 128.607 137.095  0.00  0.00    +0.000 OA
ATOM     24  O   UNL     1     111.599 129.735 135.042  0.00  0.00    +0.000 OA
ATOM     25  O   UNL     1     112.829 128.640 134.956  0.00  0.00    +0.000 OA
ATOM     26  C   UNL     1     111.516 129.531 136.455  0.00  0.00    +0.000 C 
ATOM     27  C   UNL     1     111.865 129.359 135.727  0.00  0.00    +0.000 C 
ATOM     28  C   UNL     1     112.480 128.811 135.684  0.00  0.00    +0.000 C 
ATOM     29  C   UNL     1     111.782 129.154 137.139  0.00  0.00    +0.000 C 
ATOM     30  C   UNL     1     112.746 128.435 136.368  0.00  0.00    +0.000 C 
BRANCH  30  32
ATOM     31  O   UNL     1     113.235 127.105 136.552  0.00  0.00    +0.000 OA
ATOM     32  C   UNL     1     113.361 127.888 136.325  0.00  0.00    +0.000 C 
ENDBRANCH  30  32
BRANCH  26  33
ATOM     33  O   UNL     1     110.900 130.078 136.498  0.00  0.00    +0.000 OA
BRANCH  33  38
ATOM     34  O   UNL     1     109.988 129.101 135.995  0.00  0.00    +0.000 OA
ATOM     35  O   UNL     1     109.646 131.122 136.746  0.00  0.00    +0.000 OA
ATOM     36  O   UNL     1     108.107 130.666 136.367  0.00  0.00    +0.000 OA
ATOM     37  O   UNL     1     107.821 129.166 135.740  0.00  0.00    +0.000 OA
ATOM     38  C   UNL     1     110.130 129.850 136.308  0.00  0.00    +0.000 C 
ATOM     39  C   UNL     1     109.504 130.373 136.433  0.00  0.00    +0.000 C 
ATOM     40  C   UNL     1     108.734 130.145 136.243  0.00  0.00    +0.000 C 
ATOM     41  C   UNL     1     108.591 129.394 135.930  0.00  0.00    +0.000 C 
ATOM     42  C   UNL     1     109.218 128.873 135.806  0.00  0.00    +0.000 C 
BRANCH  42  44
ATOM     43  O   UNL     1     109.125 127.458 135.976  0.00  0.00    +0.000 OA
ATOM     44  C   UNL     1     109.075 128.123 135.492  0.00  0.00    +0.000 C 
ENDBRANCH  42  44
ENDBRANCH  33  38
ENDBRANCH  26  33
ENDBRANCH  22  29
ENDBRANCH   5  22
BRANCH   9  45
ATOM     45  O   UNL     1     113.127 129.104 141.272  0.00  0.00    +0.000 OA
BRANCH  45  54
ATOM     46  O   UNL     1     112.482 130.219 141.888  0.00  0.00    +0.000 OA
ATOM     47  O   UNL     1     111.499 128.713 143.588  0.00  0.00    +0.000 OA
ATOM     48  O   UNL     1     111.183 130.331 143.638  0.00  0.00    +0.000 OA
ATOM     49  O   UNL     1     112.472 128.099 142.404  0.00  0.00    +0.000 OA
ATOM     50  C   UNL     1     111.827 129.215 143.022  0.00  0.00    +0.000 C 
ATOM     51  C   UNL     1     111.669 130.025 143.046  0.00  0.00    +0.000 C 
ATOM     52  C   UNL     1     112.313 128.908 142.430  0.00  0.00    +0.000 C 
ATOM     53  C   UNL     1     111.996 130.527 142.480  0.00  0.00    +0.000 C 
ATOM     54  C   UNL     1     112.641 129.411 141.863  0.00  0.00    +0.000 C 
BRANCH  53  56
ATOM     55  O   UNL     1     111.317 131.672 141.959  0.00  0.00    +0.000 OA
ATOM     56  C   UNL     1     111.838 131.336 142.505  0.00  0.00    +0.000 C 
ENDBRANCH  53  56
ENDBRANCH  45  54
ENDBRANCH   9  45
TORSDOF 10
ENDMDL
