MODEL 1
REMARK VINA RESULT:      -7.9      0.000      0.000
REMARK  Name = 42608125
REMARK  4 active torsions:
REMARK  status: ('A' for Active; 'I' for Inactive)
REMARK    1  A    between atoms: O_2  and  C_14
REMARK    2  A    between atoms: O_4  and  C_16
REMARK    3  A    between atoms: O_6  and  C_17
REMARK    4  A    between atoms: C_8  and  C_13
REMARK                            x       y       z     vdW  Elec       q    Type
REMARK                         _______ _______ _______ _____ _____    ______ ____
ROOT
ATOM      1  O   UNL     1     104.698 124.276 147.138  0.00  0.00    +0.000 OA
ATOM      2  O   UNL     1     105.820 125.064 145.009  0.00  0.00    +0.000 OA
ATOM      3  O   UNL     1     106.963 125.471 145.791  0.00  0.00    +0.000 OA
ATOM      4  C   UNL     1     104.286 124.192 146.388  0.00  0.00    +0.000 C 
ATOM      5  C   UNL     1     104.664 124.458 145.664  0.00  0.00    +0.000 C 
ATOM      6  C   UNL     1     105.846 124.881 146.458  0.00  0.00    +0.000 A 
ATOM      7  C   UNL     1     105.483 124.625 147.153  0.00  0.00    +0.000 A 
ATOM      8  C   UNL     1     105.450 124.805 145.700  0.00  0.00    +0.000 C 
ATOM      9  C   UNL     1     105.874 124.703 147.876  0.00  0.00    +0.000 A 
ATOM     10  C   UNL     1     106.600 125.215 146.486  0.00  0.00    +0.000 A 
ATOM     11  C   UNL     1     106.627 125.037 147.903  0.00  0.00    +0.000 A 
ATOM     12  C   UNL     1     106.991 125.293 147.208  0.00  0.00    +0.000 A 
ENDROOT
BRANCH   4  14
ATOM     13  O   UNL     1     101.270 122.855 146.291  0.00  0.00    +0.000 OA
ATOM     14  C   UNL     1     103.532 123.857 146.364  0.00  0.00    +0.000 A 
ATOM     15  C   UNL     1     103.434 123.078 146.112  0.00  0.00    +0.000 A 
ATOM     16  C   UNL     1     102.876 124.302 146.591  0.00  0.00    +0.000 A 
ATOM     17  C   UNL     1     102.680 122.744 146.088  0.00  0.00    +0.000 A 
ATOM     18  C   UNL     1     102.122 123.969 146.567  0.00  0.00    +0.000 A 
ATOM     19  C   UNL     1     102.024 123.189 146.315  0.00  0.00    +0.000 A 
ENDBRANCH   4  14
BRANCH   9  20
ATOM     20  O   UNL     1     105.510 124.447 148.571  0.00  0.00    +0.000 OA
ATOM     21  C   UNL     1     105.170 124.995 149.084  0.00  0.00    +0.000 C 
ENDBRANCH   9  20
BRANCH  11  22
ATOM     22  O   UNL     1     107.018 125.115 148.626  0.00  0.00    +0.000 OA
ATOM     23  C   UNL     1     107.531 124.523 148.883  0.00  0.00    +0.000 C 
ENDBRANCH  11  22
BRANCH  12  24
ATOM     24  O   UNL     1     107.745 125.627 147.236  0.00  0.00    +0.000 OA
ATOM     25  C   UNL     1     107.842 126.437 147.114  0.00  0.00    +0.000 C 
ENDBRANCH  12  24
TORSDOF 4
ENDMDL
MODEL 2
REMARK VINA RESULT:      -7.7      2.227      4.356
REMARK  Name = 42608125
REMARK  4 active torsions:
REMARK  status: ('A' for Active; 'I' for Inactive)
REMARK    1  A    between atoms: O_2  and  C_14
REMARK    2  A    between atoms: O_4  and  C_16
REMARK    3  A    between atoms: O_6  and  C_17
REMARK    4  A    between atoms: C_8  and  C_13
REMARK                            x       y       z     vdW  Elec       q    Type
REMARK                         _______ _______ _______ _____ _____    ______ ____
ROOT
ATOM      1  O   UNL     1     106.662 125.588 146.298  0.00  0.00    +0.000 OA
ATOM      2  O   UNL     1     106.907 128.106 146.406  0.00  0.00    +0.000 OA
ATOM      3  O   UNL     1     106.410 128.189 145.054  0.00  0.00    +0.000 OA
ATOM      4  C   UNL     1     106.960 125.952 147.018  0.00  0.00    +0.000 C 
ATOM      5  C   UNL     1     107.044 126.806 147.057  0.00  0.00    +0.000 C 
ATOM      6  C   UNL     1     106.533 126.904 145.666  0.00  0.00    +0.000 A 
ATOM      7  C   UNL     1     106.453 126.084 145.628  0.00  0.00    +0.000 A 
ATOM      8  C   UNL     1     106.829 127.285 146.376  0.00  0.00    +0.000 C 
ATOM      9  C   UNL     1     106.167 125.728 144.940  0.00  0.00    +0.000 A 
ATOM     10  C   UNL     1     106.329 127.369 145.016  0.00  0.00    +0.000 A 
ATOM     11  C   UNL     1     105.963 126.194 144.290  0.00  0.00    +0.000 A 
ATOM     12  C   UNL     1     106.044 127.014 144.328  0.00  0.00    +0.000 A 
ENDROOT
BRANCH   4  14
ATOM     13  O   UNL     1     107.773 124.082 149.612  0.00  0.00    +0.000 OA
ATOM     14  C   UNL     1     107.163 125.485 147.666  0.00  0.00    +0.000 A 
ATOM     15  C   UNL     1     107.937 125.214 147.754  0.00  0.00    +0.000 A 
ATOM     16  C   UNL     1     106.592 125.288 148.228  0.00  0.00    +0.000 A 
ATOM     17  C   UNL     1     108.141 124.747 148.402  0.00  0.00    +0.000 A 
ATOM     18  C   UNL     1     106.795 124.820 148.877  0.00  0.00    +0.000 A 
ATOM     19  C   UNL     1     107.570 124.549 148.964  0.00  0.00    +0.000 A 
ENDBRANCH   4  14
BRANCH   9  20
ATOM     20  O   UNL     1     106.086 124.908 144.902  0.00  0.00    +0.000 OA
ATOM     21  C   UNL     1     105.343 124.563 144.993  0.00  0.00    +0.000 C 
ENDBRANCH   9  20
BRANCH  11  22
ATOM     22  O   UNL     1     105.677 125.838 143.602  0.00  0.00    +0.000 OA
ATOM     23  C   UNL     1     106.197 125.653 142.988  0.00  0.00    +0.000 C 
ENDBRANCH  11  22
BRANCH  12  24
ATOM     24  O   UNL     1     105.839 127.479 143.678  0.00  0.00    +0.000 OA
ATOM     25  C   UNL     1     105.197 127.993 143.724  0.00  0.00    +0.000 C 
ENDBRANCH  12  24
TORSDOF 4
ENDMDL
MODEL 3
REMARK VINA RESULT:      -7.6     12.074     13.005
REMARK  Name = 42608125
REMARK  4 active torsions:
REMARK  status: ('A' for Active; 'I' for Inactive)
REMARK    1  A    between atoms: O_2  and  C_14
REMARK    2  A    between atoms: O_4  and  C_16
REMARK    3  A    between atoms: O_6  and  C_17
REMARK    4  A    between atoms: C_8  and  C_13
REMARK                            x       y       z     vdW  Elec       q    Type
REMARK                         _______ _______ _______ _____ _____    ______ ____
ROOT
ATOM      1  O   UNL     1     110.403 128.012 135.937  0.00  0.00    +0.000 OA
ATOM      2  O   UNL     1     107.888 128.236 135.740  0.00  0.00    +0.000 OA
ATOM      3  O   UNL     1     108.038 129.672 135.771  0.00  0.00    +0.000 OA
ATOM      4  C   UNL     1     109.919 127.303 135.889  0.00  0.00    +0.000 C 
ATOM      5  C   UNL     1     109.066 127.376 135.822  0.00  0.00    +0.000 C 
ATOM      6  C   UNL     1     109.207 128.854 135.854  0.00  0.00    +0.000 A 
ATOM      7  C   UNL     1     110.026 128.784 135.918  0.00  0.00    +0.000 A 
ATOM      8  C   UNL     1     108.707 128.157 135.804  0.00  0.00    +0.000 C 
ATOM      9  C   UNL     1     110.496 129.461 135.965  0.00  0.00    +0.000 A 
ATOM     10  C   UNL     1     108.857 129.601 135.836  0.00  0.00    +0.000 A 
ATOM     11  C   UNL     1     110.146 130.208 135.947  0.00  0.00    +0.000 A 
ATOM     12  C   UNL     1     109.326 130.278 135.882  0.00  0.00    +0.000 A 
ENDROOT
BRANCH   4  14
ATOM     13  O   UNL     1     111.329 124.321 135.963  0.00  0.00    +0.000 OA
ATOM     14  C   UNL     1     110.271 126.557 135.907  0.00  0.00    +0.000 A 
ATOM     15  C   UNL     1     110.391 126.140 135.206  0.00  0.00    +0.000 A 
ATOM     16  C   UNL     1     110.505 126.229 136.627  0.00  0.00    +0.000 A 
ATOM     17  C   UNL     1     110.743 125.394 135.224  0.00  0.00    +0.000 A 
ATOM     18  C   UNL     1     110.857 125.484 136.646  0.00  0.00    +0.000 A 
ATOM     19  C   UNL     1     110.977 125.066 135.944  0.00  0.00    +0.000 A 
ENDBRANCH   4  14
BRANCH   9  20
ATOM     20  O   UNL     1     111.316 129.391 136.029  0.00  0.00    +0.000 OA
ATOM     21  C   UNL     1     111.791 129.487 135.362  0.00  0.00    +0.000 C 
ENDBRANCH   9  20
BRANCH  11  22
ATOM     22  O   UNL     1     110.616 130.885 135.993  0.00  0.00    +0.000 OA
ATOM     23  C   UNL     1     110.773 131.227 136.727  0.00  0.00    +0.000 C 
ENDBRANCH  11  22
BRANCH  12  24
ATOM     24  O   UNL     1     108.977 131.025 135.865  0.00  0.00    +0.000 OA
ATOM     25  C   UNL     1     108.692 131.331 135.154  0.00  0.00    +0.000 C 
ENDBRANCH  12  24
TORSDOF 4
ENDMDL
MODEL 4
REMARK VINA RESULT:      -7.6      1.246      4.591
REMARK  Name = 42608125
REMARK  4 active torsions:
REMARK  status: ('A' for Active; 'I' for Inactive)
REMARK    1  A    between atoms: O_2  and  C_14
REMARK    2  A    between atoms: O_4  and  C_16
REMARK    3  A    between atoms: O_6  and  C_17
REMARK    4  A    between atoms: C_8  and  C_13
REMARK                            x       y       z     vdW  Elec       q    Type
REMARK                         _______ _______ _______ _____ _____    ______ ____
ROOT
ATOM      1  O   UNL     1     103.629 124.331 147.153  0.00  0.00    +0.000 OA
ATOM      2  O   UNL     1     103.957 123.265 144.880  0.00  0.00    +0.000 OA
ATOM      3  O   UNL     1     102.580 122.833 144.910  0.00  0.00    +0.000 OA
ATOM      4  C   UNL     1     104.397 124.383 146.770  0.00  0.00    +0.000 C 
ATOM      5  C   UNL     1     104.511 124.023 145.999  0.00  0.00    +0.000 C 
ATOM      6  C   UNL     1     103.096 123.573 146.018  0.00  0.00    +0.000 A 
ATOM      7  C   UNL     1     102.987 123.919 146.759  0.00  0.00    +0.000 A 
ATOM      8  C   UNL     1     103.856 123.614 145.620  0.00  0.00    +0.000 C 
ATOM      9  C   UNL     1     102.251 123.872 147.132  0.00  0.00    +0.000 A 
ATOM     10  C   UNL     1     102.471 123.180 145.651  0.00  0.00    +0.000 A 
ATOM     11  C   UNL     1     101.627 123.479 146.764  0.00  0.00    +0.000 A 
ATOM     12  C   UNL     1     101.737 123.133 146.023  0.00  0.00    +0.000 A 
ENDROOT
BRANCH   4  14
ATOM     13  O   UNL     1     106.890 125.956 148.252  0.00  0.00    +0.000 OA
ATOM     14  C   UNL     1     105.020 124.777 147.140  0.00  0.00    +0.000 A 
ATOM     15  C   UNL     1     105.196 125.556 146.937  0.00  0.00    +0.000 A 
ATOM     16  C   UNL     1     105.469 124.390 147.715  0.00  0.00    +0.000 A 
ATOM     17  C   UNL     1     105.819 125.950 147.307  0.00  0.00    +0.000 A 
ATOM     18  C   UNL     1     106.092 124.783 148.086  0.00  0.00    +0.000 A 
ATOM     19  C   UNL     1     106.267 125.564 147.882  0.00  0.00    +0.000 A 
ENDBRANCH   4  14
BRANCH   9  20
ATOM     20  O   UNL     1     102.142 124.218 147.873  0.00  0.00    +0.000 OA
ATOM     21  C   UNL     1     101.764 124.948 147.935  0.00  0.00    +0.000 C 
ENDBRANCH   9  20
BRANCH  11  22
ATOM     22  O   UNL     1     100.892 123.432 147.137  0.00  0.00    +0.000 OA
ATOM     23  C   UNL     1     100.710 122.780 147.609  0.00  0.00    +0.000 C 
ENDBRANCH  11  22
BRANCH  12  24
ATOM     24  O   UNL     1     101.111 122.740 145.655  0.00  0.00    +0.000 OA
ATOM     25  C   UNL     1     100.765 123.057 144.978  0.00  0.00    +0.000 C 
ENDBRANCH  12  24
TORSDOF 4
ENDMDL
MODEL 5
REMARK VINA RESULT:      -7.5      9.401     10.454
REMARK  Name = 42608125
REMARK  4 active torsions:
REMARK  status: ('A' for Active; 'I' for Inactive)
REMARK    1  A    between atoms: O_2  and  C_14
REMARK    2  A    between atoms: O_4  and  C_16
REMARK    3  A    between atoms: O_6  and  C_17
REMARK    4  A    between atoms: C_8  and  C_13
REMARK                            x       y       z     vdW  Elec       q    Type
REMARK                         _______ _______ _______ _____ _____    ______ ____
ROOT
ATOM      1  O   UNL     1     102.638 132.037 141.113  0.00  0.00    +0.000 OA
ATOM      2  O   UNL     1     100.710 132.190 142.748  0.00  0.00    +0.000 OA
ATOM      3  O   UNL     1     100.799 133.629 142.681  0.00  0.00    +0.000 OA
ATOM      4  C   UNL     1     102.280 131.314 141.412  0.00  0.00    +0.000 C 
ATOM      5  C   UNL     1     101.626 131.363 141.966  0.00  0.00    +0.000 C 
ATOM      6  C   UNL     1     101.708 132.845 141.906  0.00  0.00    +0.000 A 
ATOM      7  C   UNL     1     102.336 132.798 141.373  0.00  0.00    +0.000 A 
ATOM      8  C   UNL     1     101.338 132.134 142.215  0.00  0.00    +0.000 C 
ATOM      9  C   UNL     1     102.684 133.488 141.083  0.00  0.00    +0.000 A 
ATOM     10  C   UNL     1     101.428 133.582 142.148  0.00  0.00    +0.000 A 
ATOM     11  C   UNL     1     102.403 134.224 141.326  0.00  0.00    +0.000 A 
ATOM     12  C   UNL     1     101.775 134.271 141.858  0.00  0.00    +0.000 A 
ENDROOT
BRANCH   4  14
ATOM     13  O   UNL     1     103.411 128.372 140.436  0.00  0.00    +0.000 OA
ATOM     14  C   UNL     1     102.562 130.579 141.167  0.00  0.00    +0.000 A 
ATOM     15  C   UNL     1     102.274 130.234 140.476  0.00  0.00    +0.000 A 
ATOM     16  C   UNL     1     103.134 130.187 141.615  0.00  0.00    +0.000 A 
ATOM     17  C   UNL     1     102.557 129.498 140.232  0.00  0.00    +0.000 A 
ATOM     18  C   UNL     1     103.418 129.452 141.372  0.00  0.00    +0.000 A 
ATOM     19  C   UNL     1     103.129 129.107 140.679  0.00  0.00    +0.000 A 
ENDBRANCH   4  14
BRANCH   9  20
ATOM     20  O   UNL     1     103.312 133.441 140.550  0.00  0.00    +0.000 OA
ATOM     21  C   UNL     1     104.085 133.555 140.813  0.00  0.00    +0.000 C 
ENDBRANCH   9  20
BRANCH  11  22
ATOM     22  O   UNL     1     102.751 134.914 141.035  0.00  0.00    +0.000 OA
ATOM     23  C   UNL     1     102.436 135.286 140.369  0.00  0.00    +0.000 C 
ENDBRANCH  11  22
BRANCH  12  24
ATOM     24  O   UNL     1     101.494 135.009 142.101  0.00  0.00    +0.000 OA
ATOM     25  C   UNL     1     101.659 135.284 142.860  0.00  0.00    +0.000 C 
ENDBRANCH  12  24
TORSDOF 4
ENDMDL
MODEL 6
REMARK VINA RESULT:      -7.5     12.436     13.377
REMARK  Name = 42608125
REMARK  4 active torsions:
REMARK  status: ('A' for Active; 'I' for Inactive)
REMARK    1  A    between atoms: O_2  and  C_14
REMARK    2  A    between atoms: O_4  and  C_16
REMARK    3  A    between atoms: O_6  and  C_17
REMARK    4  A    between atoms: C_8  and  C_13
REMARK                            x       y       z     vdW  Elec       q    Type
REMARK                         _______ _______ _______ _____ _____    ______ ____
ROOT
ATOM      1  O   UNL     1     112.266 126.711 136.377  0.00  0.00    +0.000 OA
ATOM      2  O   UNL     1     110.455 125.149 135.546  0.00  0.00    +0.000 OA
ATOM      3  O   UNL     1     109.636 126.299 135.244  0.00  0.00    +0.000 OA
ATOM      4  C   UNL     1     112.399 125.862 136.400  0.00  0.00    +0.000 C 
ATOM      5  C   UNL     1     111.786 125.329 136.118  0.00  0.00    +0.000 C 
ATOM      6  C   UNL     1     110.934 126.504 135.803  0.00  0.00    +0.000 A 
ATOM      7  C   UNL     1     111.523 127.016 136.073  0.00  0.00    +0.000 A 
ATOM      8  C   UNL     1     111.049 125.653 135.818  0.00  0.00    +0.000 C 
ATOM      9  C   UNL     1     111.401 127.832 136.054  0.00  0.00    +0.000 A 
ATOM     10  C   UNL     1     110.224 126.810 135.514  0.00  0.00    +0.000 A 
ATOM     11  C   UNL     1     110.691 128.136 135.765  0.00  0.00    +0.000 A 
ATOM     12  C   UNL     1     110.103 127.625 135.495  0.00  0.00    +0.000 A 
ENDROOT
BRANCH   4  14
ATOM     13  O   UNL     1     115.242 124.654 137.560  0.00  0.00    +0.000 OA
ATOM     14  C   UNL     1     113.110 125.560 136.690  0.00  0.00    +0.000 A 
ATOM     15  C   UNL     1     113.757 125.473 136.186  0.00  0.00    +0.000 A 
ATOM     16  C   UNL     1     113.173 125.345 137.483  0.00  0.00    +0.000 A 
ATOM     17  C   UNL     1     114.468 125.171 136.476  0.00  0.00    +0.000 A 
ATOM     18  C   UNL     1     113.883 125.043 137.774  0.00  0.00    +0.000 A 
ATOM     19  C   UNL     1     114.532 124.955 137.270  0.00  0.00    +0.000 A 
ENDBRANCH   4  14
BRANCH   9  20
ATOM     20  O   UNL     1     111.990 128.343 136.325  0.00  0.00    +0.000 OA
ATOM     21  C   UNL     1     111.929 128.682 137.074  0.00  0.00    +0.000 C 
ENDBRANCH   9  20
BRANCH  11  22
ATOM     22  O   UNL     1     110.570 128.953 135.746  0.00  0.00    +0.000 OA
ATOM     23  C   UNL     1     110.764 129.382 135.069  0.00  0.00    +0.000 C 
ENDBRANCH  11  22
BRANCH  12  24
ATOM     24  O   UNL     1     109.393 127.930 135.205  0.00  0.00    +0.000 OA
ATOM     25  C   UNL     1     108.714 127.911 135.673  0.00  0.00    +0.000 C 
ENDBRANCH  12  24
TORSDOF 4
ENDMDL
MODEL 7
REMARK VINA RESULT:      -7.5      1.318      4.773
REMARK  Name = 42608125
REMARK  4 active torsions:
REMARK  status: ('A' for Active; 'I' for Inactive)
REMARK    1  A    between atoms: O_2  and  C_14
REMARK    2  A    between atoms: O_4  and  C_16
REMARK    3  A    between atoms: O_6  and  C_17
REMARK    4  A    between atoms: C_8  and  C_13
REMARK                            x       y       z     vdW  Elec       q    Type
REMARK                         _______ _______ _______ _____ _____    ______ ____
ROOT
ATOM      1  O   UNL     1     104.332 124.530 147.085  0.00  0.00    +0.000 OA
ATOM      2  O   UNL     1     103.403 124.729 149.432  0.00  0.00    +0.000 OA
ATOM      3  O   UNL     1     102.190 124.091 148.981  0.00  0.00    +0.000 OA
ATOM      4  C   UNL     1     104.812 124.894 147.699  0.00  0.00    +0.000 C 
ATOM      5  C   UNL     1     104.499 124.963 148.496  0.00  0.00    +0.000 C 
ATOM      6  C   UNL     1     103.246 124.307 148.043  0.00  0.00    +0.000 A 
ATOM      7  C   UNL     1     103.546 124.241 147.277  0.00  0.00    +0.000 A 
ATOM      8  C   UNL     1     103.711 124.667 148.669  0.00  0.00    +0.000 C 
ATOM      9  C   UNL     1     103.090 123.892 146.684  0.00  0.00    +0.000 A 
ATOM     10  C   UNL     1     102.490 124.025 148.215  0.00  0.00    +0.000 A 
ATOM     11  C   UNL     1     102.335 123.611 146.857  0.00  0.00    +0.000 A 
ATOM     12  C   UNL     1     102.034 123.677 147.622  0.00  0.00    +0.000 A 
ENDROOT
BRANCH   4  14
ATOM     13  O   UNL     1     107.834 126.017 146.998  0.00  0.00    +0.000 OA
ATOM     14  C   UNL     1     105.567 125.175 147.523  0.00  0.00    +0.000 A 
ATOM     15  C   UNL     1     105.662 125.921 147.185  0.00  0.00    +0.000 A 
ATOM     16  C   UNL     1     106.229 124.710 147.687  0.00  0.00    +0.000 A 
ATOM     17  C   UNL     1     106.418 126.202 147.009  0.00  0.00    +0.000 A 
ATOM     18  C   UNL     1     106.984 124.990 147.512  0.00  0.00    +0.000 A 
ATOM     19  C   UNL     1     107.079 125.737 147.173  0.00  0.00    +0.000 A 
ENDBRANCH   4  14
BRANCH   9  20
ATOM     20  O   UNL     1     103.390 123.826 145.918  0.00  0.00    +0.000 OA
ATOM     21  C   UNL     1     103.688 123.104 145.653  0.00  0.00    +0.000 C 
ENDBRANCH   9  20
BRANCH  11  22
ATOM     22  O   UNL     1     101.879 123.262 146.263  0.00  0.00    +0.000 OA
ATOM     23  C   UNL     1     101.299 123.704 145.876  0.00  0.00    +0.000 C 
ENDBRANCH  11  22
BRANCH  12  24
ATOM     24  O   UNL     1     101.278 123.395 147.794  0.00  0.00    +0.000 OA
ATOM     25  C   UNL     1     101.183 122.746 148.294  0.00  0.00    +0.000 C 
ENDBRANCH  12  24
TORSDOF 4
ENDMDL
MODEL 8
REMARK VINA RESULT:      -7.4     12.356     12.998
REMARK  Name = 42608125
REMARK  4 active torsions:
REMARK  status: ('A' for Active; 'I' for Inactive)
REMARK    1  A    between atoms: O_2  and  C_14
REMARK    2  A    between atoms: O_4  and  C_16
REMARK    3  A    between atoms: O_6  and  C_17
REMARK    4  A    between atoms: C_8  and  C_13
REMARK                            x       y       z     vdW  Elec       q    Type
REMARK                         _______ _______ _______ _____ _____    ______ ____
ROOT
ATOM      1  O   UNL     1     110.973 127.462 135.946  0.00  0.00    +0.000 OA
ATOM      2  O   UNL     1     109.912 125.367 135.000  0.00  0.00    +0.000 OA
ATOM      3  O   UNL     1     110.988 124.593 135.572  0.00  0.00    +0.000 OA
ATOM      4  C   UNL     1     110.243 127.526 135.496  0.00  0.00    +0.000 C 
ATOM      5  C   UNL     1     109.881 126.816 135.174  0.00  0.00    +0.000 C 
ATOM      6  C   UNL     1     110.982 126.009 135.758  0.00  0.00    +0.000 A 
ATOM      7  C   UNL     1     111.330 126.690 136.067  0.00  0.00    +0.000 A 
ATOM      8  C   UNL     1     110.253 126.053 135.306  0.00  0.00    +0.000 C 
ATOM      9  C   UNL     1     112.031 126.636 136.500  0.00  0.00    +0.000 A 
ATOM     10  C   UNL     1     111.335 125.274 135.881  0.00  0.00    +0.000 A 
ATOM     11  C   UNL     1     112.383 125.900 136.623  0.00  0.00    +0.000 A 
ATOM     12  C   UNL     1     112.035 125.219 136.314  0.00  0.00    +0.000 A 
ENDROOT
BRANCH   4  14
ATOM     13  O   UNL     1     108.843 130.473 135.008  0.00  0.00    +0.000 OA
ATOM     14  C   UNL     1     109.893 128.262 135.374  0.00  0.00    +0.000 A 
ATOM     15  C   UNL     1     109.269 128.508 135.855  0.00  0.00    +0.000 A 
ATOM     16  C   UNL     1     110.166 128.755 134.771  0.00  0.00    +0.000 A 
ATOM     17  C   UNL     1     108.919 129.245 135.733  0.00  0.00    +0.000 A 
ATOM     18  C   UNL     1     109.817 129.491 134.649  0.00  0.00    +0.000 A 
ATOM     19  C   UNL     1     109.193 129.737 135.130  0.00  0.00    +0.000 A 
ENDBRANCH   4  14
BRANCH   9  20
ATOM     20  O   UNL     1     112.379 127.317 136.810  0.00  0.00    +0.000 OA
ATOM     21  C   UNL     1     112.286 127.501 137.608  0.00  0.00    +0.000 C 
ENDBRANCH   9  20
BRANCH  11  22
ATOM     22  O   UNL     1     113.084 125.845 137.056  0.00  0.00    +0.000 OA
ATOM     23  C   UNL     1     113.811 125.867 136.667  0.00  0.00    +0.000 C 
ENDBRANCH  11  22
BRANCH  12  24
ATOM     24  O   UNL     1     112.388 124.483 136.437  0.00  0.00    +0.000 OA
ATOM     25  C   UNL     1     112.037 123.936 136.944  0.00  0.00    +0.000 C 
ENDBRANCH  12  24
TORSDOF 4
ENDMDL
MODEL 9
REMARK VINA RESULT:      -7.4     12.353     14.445
REMARK  Name = 42608125
REMARK  4 active torsions:
REMARK  status: ('A' for Active; 'I' for Inactive)
REMARK    1  A    between atoms: O_2  and  C_14
REMARK    2  A    between atoms: O_4  and  C_16
REMARK    3  A    between atoms: O_6  and  C_17
REMARK    4  A    between atoms: C_8  and  C_13
REMARK                            x       y       z     vdW  Elec       q    Type
REMARK                         _______ _______ _______ _____ _____    ______ ____
ROOT
ATOM      1  O   UNL     1     113.433 128.017 136.073  0.00  0.00    +0.000 OA
ATOM      2  O   UNL     1     111.192 128.423 134.968  0.00  0.00    +0.000 OA
ATOM      3  O   UNL     1     110.743 127.143 135.462  0.00  0.00    +0.000 OA
ATOM      4  C   UNL     1     113.305 128.747 135.638  0.00  0.00    +0.000 C 
ATOM      5  C   UNL     1     112.545 128.887 135.262  0.00  0.00    +0.000 C 
ATOM      6  C   UNL     1     112.072 127.573 135.765  0.00  0.00    +0.000 A 
ATOM      7  C   UNL     1     112.801 127.438 136.126  0.00  0.00    +0.000 A 
ATOM      8  C   UNL     1     111.924 128.296 135.326  0.00  0.00    +0.000 C 
ATOM      9  C   UNL     1     112.931 126.739 136.546  0.00  0.00    +0.000 A 
ATOM     10  C   UNL     1     111.472 127.009 135.823  0.00  0.00    +0.000 A 
ATOM     11  C   UNL     1     112.331 126.175 136.604  0.00  0.00    +0.000 A 
ATOM     12  C   UNL     1     111.602 126.310 136.242  0.00  0.00    +0.000 A 
ENDROOT
BRANCH   4  14
ATOM     13  O   UNL     1     115.709 130.995 135.414  0.00  0.00    +0.000 OA
ATOM     14  C   UNL     1     113.906 129.309 135.581  0.00  0.00    +0.000 A 
ATOM     15  C   UNL     1     114.407 129.313 134.927  0.00  0.00    +0.000 A 
ATOM     16  C   UNL     1     114.006 129.867 136.181  0.00  0.00    +0.000 A 
ATOM     17  C   UNL     1     115.008 129.875 134.870  0.00  0.00    +0.000 A 
ATOM     18  C   UNL     1     114.607 130.429 136.126  0.00  0.00    +0.000 A 
ATOM     19  C   UNL     1     115.109 130.433 135.469  0.00  0.00    +0.000 A 
ENDBRANCH   4  14
BRANCH   9  20
ATOM     20  O   UNL     1     113.660 126.604 136.907  0.00  0.00    +0.000 OA
ATOM     21  C   UNL     1     114.204 126.091 136.559  0.00  0.00    +0.000 C 
ENDBRANCH   9  20
BRANCH  11  22
ATOM     22  O   UNL     1     112.461 125.476 137.023  0.00  0.00    +0.000 OA
ATOM     23  C   UNL     1     112.250 125.429 137.819  0.00  0.00    +0.000 C 
ENDBRANCH  11  22
BRANCH  12  24
ATOM     24  O   UNL     1     111.002 125.746 136.301  0.00  0.00    +0.000 OA
ATOM     25  C   UNL     1     110.800 125.290 135.645  0.00  0.00    +0.000 C 
ENDBRANCH  12  24
TORSDOF 4
ENDMDL
MODEL 10
REMARK VINA RESULT:      -7.4     12.304     13.841
REMARK  Name = 42608125
REMARK  4 active torsions:
REMARK  status: ('A' for Active; 'I' for Inactive)
REMARK    1  A    between atoms: O_2  and  C_14
REMARK    2  A    between atoms: O_4  and  C_16
REMARK    3  A    between atoms: O_6  and  C_17
REMARK    4  A    between atoms: C_8  and  C_13
REMARK                            x       y       z     vdW  Elec       q    Type
REMARK                         _______ _______ _______ _____ _____    ______ ____
ROOT
ATOM      1  O   UNL     1     112.581 126.923 136.339  0.00  0.00    +0.000 OA
ATOM      2  O   UNL     1     113.816 129.125 136.147  0.00  0.00    +0.000 OA
ATOM      3  O   UNL     1     112.597 129.740 135.677  0.00  0.00    +0.000 OA
ATOM      4  C   UNL     1     113.413 126.959 136.552  0.00  0.00    +0.000 C 
ATOM      5  C   UNL     1     113.835 127.705 136.487  0.00  0.00    +0.000 C 
ATOM      6  C   UNL     1     112.587 128.349 136.003  0.00  0.00    +0.000 A 
ATOM      7  C   UNL     1     112.182 127.633 136.065  0.00  0.00    +0.000 A 
ATOM      8  C   UNL     1     113.419 128.405 136.211  0.00  0.00    +0.000 C 
ATOM      9  C   UNL     1     111.383 127.591 135.861  0.00  0.00    +0.000 A 
ATOM     10  C   UNL     1     112.193 129.024 135.738  0.00  0.00    +0.000 A 
ATOM     11  C   UNL     1     110.990 128.266 135.597  0.00  0.00    +0.000 A 
ATOM     12  C   UNL     1     111.395 128.983 135.535  0.00  0.00    +0.000 A 
ENDROOT
BRANCH   4  14
ATOM     13  O   UNL     1     114.979 124.254 137.607  0.00  0.00    +0.000 OA
ATOM     14  C   UNL     1     113.805 126.283 136.816  0.00  0.00    +0.000 A 
ATOM     15  C   UNL     1     113.806 126.094 137.618  0.00  0.00    +0.000 A 
ATOM     16  C   UNL     1     114.195 125.795 136.277  0.00  0.00    +0.000 A 
ATOM     17  C   UNL     1     114.198 125.417 137.883  0.00  0.00    +0.000 A 
ATOM     18  C   UNL     1     114.586 125.119 136.540  0.00  0.00    +0.000 A 
ATOM     19  C   UNL     1     114.588 124.930 137.344  0.00  0.00    +0.000 A 
ENDBRANCH   4  14
BRANCH   9  20
ATOM     20  O   UNL     1     110.978 126.875 135.923  0.00  0.00    +0.000 OA
ATOM     21  C   UNL     1     110.465 126.745 136.555  0.00  0.00    +0.000 C 
ENDBRANCH   9  20
BRANCH  11  22
ATOM     22  O   UNL     1     110.191 128.225 135.394  0.00  0.00    +0.000 OA
ATOM     23  C   UNL     1     109.972 128.080 134.612  0.00  0.00    +0.000 C 
ENDBRANCH  11  22
BRANCH  12  24
ATOM     24  O   UNL     1     111.000 129.657 135.271  0.00  0.00    +0.000 OA
ATOM     25  C   UNL     1     110.791 130.250 135.805  0.00  0.00    +0.000 C 
ENDBRANCH  12  24
TORSDOF 4
ENDMDL
