MODEL 1
REMARK VINA RESULT:      -8.2      0.000      0.000
REMARK  Name = 131836451
REMARK  4 active torsions:
REMARK  status: ('A' for Active; 'I' for Inactive)
REMARK    1  A    between atoms: O_2  and  C_11
REMARK    2  A    between atoms: O_6  and  C_20
REMARK    3  A    between atoms: O_8  and  C_24
REMARK    4  A    between atoms: C_10  and  C_12
REMARK                            x       y       z     vdW  Elec       q    Type
REMARK                         _______ _______ _______ _____ _____    ______ ____
ROOT
ATOM      1  O   UNL     1     104.596 124.063 146.844  0.00  0.00    +0.000 OA
ATOM      2  O   UNL     1     102.887 125.451 147.974  0.00  0.00    +0.000 OA
ATOM      3  O   UNL     1     101.833 124.817 147.221  0.00  0.00    +0.000 OA
ATOM      4  O   UNL     1     102.521 122.740 145.287  0.00  0.00    +0.000 OA
ATOM      5  C   UNL     1     104.824 124.616 147.412  0.00  0.00    +0.000 C 
ATOM      6  C   UNL     1     104.254 125.079 147.789  0.00  0.00    +0.000 C 
ATOM      7  C   UNL     1     103.456 124.988 147.598  0.00  0.00    +0.000 C 
ATOM      8  C   UNL     1     103.229 124.435 147.029  0.00  0.00    +0.000 A 
ATOM      9  C   UNL     1     103.799 123.972 146.653  0.00  0.00    +0.000 A 
ATOM     10  C   UNL     1     102.395 124.350 146.839  0.00  0.00    +0.000 A 
ATOM     11  C   UNL     1     103.574 123.392 146.059  0.00  0.00    +0.000 A 
ATOM     12  C   UNL     1     102.152 123.776 146.248  0.00  0.00    +0.000 A 
ATOM     13  C   UNL     1     102.746 123.294 145.856  0.00  0.00    +0.000 A 
ENDROOT
BRANCH   5  16
ATOM     14  O   UNL     1     105.856 125.321 146.335  0.00  0.00    +0.000 OA
ATOM     15  O   UNL     1     107.451 125.502 146.718  0.00  0.00    +0.000 OA
ATOM     16  C   UNL     1     105.621 124.706 147.604  0.00  0.00    +0.000 A 
ATOM     17  C   UNL     1     106.137 125.059 147.065  0.00  0.00    +0.000 A 
ATOM     18  C   UNL     1     105.903 124.445 148.334  0.00  0.00    +0.000 A 
ATOM     19  C   UNL     1     106.935 125.150 147.256  0.00  0.00    +0.000 A 
ATOM     20  C   UNL     1     106.700 124.535 148.525  0.00  0.00    +0.000 A 
ATOM     21  C   UNL     1     107.216 124.888 147.986  0.00  0.00    +0.000 A 
BRANCH  21  22
ATOM     22  O   UNL     1     108.014 124.979 148.178  0.00  0.00    +0.000 OA
ATOM     23  C   UNL     1     108.320 124.613 148.851  0.00  0.00    +0.000 C 
ENDBRANCH  21  22
ENDBRANCH   5  16
BRANCH   6  24
ATOM     24  O   UNL     1     104.481 125.632 148.357  0.00  0.00    +0.000 OA
ATOM     25  C   UNL     1     103.908 126.041 148.787  0.00  0.00    +0.000 C 
ENDBRANCH   6  24
BRANCH  12  26
ATOM     26  O   UNL     1     101.354 123.687 146.059  0.00  0.00    +0.000 OA
ATOM     27  C   UNL     1     100.917 123.071 146.391  0.00  0.00    +0.000 C 
ENDBRANCH  12  26
TORSDOF 4
ENDMDL
MODEL 2
REMARK VINA RESULT:      -7.9      2.173      4.434
REMARK  Name = 131836451
REMARK  4 active torsions:
REMARK  status: ('A' for Active; 'I' for Inactive)
REMARK    1  A    between atoms: O_2  and  C_11
REMARK    2  A    between atoms: O_6  and  C_20
REMARK    3  A    between atoms: O_8  and  C_24
REMARK    4  A    between atoms: C_10  and  C_12
REMARK                            x       y       z     vdW  Elec       q    Type
REMARK                         _______ _______ _______ _____ _____    ______ ____
ROOT
ATOM      1  O   UNL     1     106.817 125.397 146.186  0.00  0.00    +0.000 OA
ATOM      2  O   UNL     1     104.817 124.891 147.553  0.00  0.00    +0.000 OA
ATOM      3  O   UNL     1     105.639 124.629 148.709  0.00  0.00    +0.000 OA
ATOM      4  O   UNL     1     108.539 124.883 148.478  0.00  0.00    +0.000 OA
ATOM      5  C   UNL     1     106.066 125.439 145.848  0.00  0.00    +0.000 C 
ATOM      6  C   UNL     1     105.399 125.271 146.304  0.00  0.00    +0.000 C 
ATOM      7  C   UNL     1     105.484 125.059 147.097  0.00  0.00    +0.000 C 
ATOM      8  C   UNL     1     106.236 125.017 147.434  0.00  0.00    +0.000 A 
ATOM      9  C   UNL     1     106.902 125.185 146.978  0.00  0.00    +0.000 A 
ATOM     10  C   UNL     1     106.311 124.795 148.262  0.00  0.00    +0.000 A 
ATOM     11  C   UNL     1     107.691 125.145 147.318  0.00  0.00    +0.000 A 
ATOM     12  C   UNL     1     107.091 124.749 148.618  0.00  0.00    +0.000 A 
ATOM     13  C   UNL     1     107.786 124.925 148.143  0.00  0.00    +0.000 A 
ENDROOT
BRANCH   5  16
ATOM     14  O   UNL     1     106.356 124.329 144.663  0.00  0.00    +0.000 OA
ATOM     15  O   UNL     1     106.185 124.751 143.077  0.00  0.00    +0.000 OA
ATOM     16  C   UNL     1     105.980 125.650 145.056  0.00  0.00    +0.000 A 
ATOM     17  C   UNL     1     106.125 125.095 144.463  0.00  0.00    +0.000 A 
ATOM     18  C   UNL     1     105.750 126.417 144.854  0.00  0.00    +0.000 A 
ATOM     19  C   UNL     1     106.040 125.306 143.669  0.00  0.00    +0.000 A 
ATOM     20  C   UNL     1     105.665 126.628 144.062  0.00  0.00    +0.000 A 
ATOM     21  C   UNL     1     105.810 126.073 143.469  0.00  0.00    +0.000 A 
BRANCH  21  22
ATOM     22  O   UNL     1     105.725 126.284 142.676  0.00  0.00    +0.000 OA
ATOM     23  C   UNL     1     105.648 127.078 142.467  0.00  0.00    +0.000 C 
ENDBRANCH  21  22
ENDBRANCH   5  16
BRANCH   6  24
ATOM     24  O   UNL     1     104.647 125.313 145.967  0.00  0.00    +0.000 OA
ATOM     25  C   UNL     1     103.983 125.109 146.412  0.00  0.00    +0.000 C 
ENDBRANCH   6  24
BRANCH  12  26
ATOM     26  O   UNL     1     107.173 124.538 149.411  0.00  0.00    +0.000 OA
ATOM     27  C   UNL     1     107.415 123.775 149.612  0.00  0.00    +0.000 C 
ENDBRANCH  12  26
TORSDOF 4
ENDMDL
MODEL 3
REMARK VINA RESULT:      -7.8      1.202      2.224
REMARK  Name = 131836451
REMARK  4 active torsions:
REMARK  status: ('A' for Active; 'I' for Inactive)
REMARK    1  A    between atoms: O_2  and  C_11
REMARK    2  A    between atoms: O_6  and  C_20
REMARK    3  A    between atoms: O_8  and  C_24
REMARK    4  A    between atoms: C_10  and  C_12
REMARK                            x       y       z     vdW  Elec       q    Type
REMARK                         _______ _______ _______ _____ _____    ______ ____
ROOT
ATOM      1  O   UNL     1     104.341 124.717 147.042  0.00  0.00    +0.000 OA
ATOM      2  O   UNL     1     104.138 123.442 144.930  0.00  0.00    +0.000 OA
ATOM      3  O   UNL     1     102.884 122.874 145.361  0.00  0.00    +0.000 OA
ATOM      4  O   UNL     1     101.815 123.609 147.977  0.00  0.00    +0.000 OA
ATOM      5  C   UNL     1     104.928 124.779 146.465  0.00  0.00    +0.000 C 
ATOM      6  C   UNL     1     104.860 124.354 145.761  0.00  0.00    +0.000 C 
ATOM      7  C   UNL     1     104.206 123.867 145.634  0.00  0.00    +0.000 C 
ATOM      8  C   UNL     1     103.620 123.806 146.212  0.00  0.00    +0.000 A 
ATOM      9  C   UNL     1     103.688 124.230 146.916  0.00  0.00    +0.000 A 
ATOM     10  C   UNL     1     102.943 123.295 146.067  0.00  0.00    +0.000 A 
ATOM     11  C   UNL     1     103.083 124.174 147.525  0.00  0.00    +0.000 A 
ATOM     12  C   UNL     1     102.330 123.226 146.664  0.00  0.00    +0.000 A 
ATOM     13  C   UNL     1     102.400 123.669 147.398  0.00  0.00    +0.000 A 
ENDROOT
BRANCH   5  16
ATOM     14  O   UNL     1     106.159 124.269 147.439  0.00  0.00    +0.000 OA
ATOM     15  O   UNL     1     107.467 125.242 147.692  0.00  0.00    +0.000 OA
ATOM     16  C   UNL     1     105.582 125.265 146.592  0.00  0.00    +0.000 A 
ATOM     17  C   UNL     1     106.197 125.010 147.079  0.00  0.00    +0.000 A 
ATOM     18  C   UNL     1     105.621 126.007 146.232  0.00  0.00    +0.000 A 
ATOM     19  C   UNL     1     106.852 125.497 147.206  0.00  0.00    +0.000 A 
ATOM     20  C   UNL     1     106.275 126.493 146.359  0.00  0.00    +0.000 A 
ATOM     21  C   UNL     1     106.890 126.238 146.845  0.00  0.00    +0.000 A 
BRANCH  21  22
ATOM     22  O   UNL     1     107.545 126.725 146.972  0.00  0.00    +0.000 OA
ATOM     23  C   UNL     1     107.550 127.494 146.674  0.00  0.00    +0.000 C 
ENDBRANCH  21  22
ENDBRANCH   5  16
BRANCH   6  24
ATOM     24  O   UNL     1     105.446 124.415 145.184  0.00  0.00    +0.000 OA
ATOM     25  C   UNL     1     105.270 124.244 144.397  0.00  0.00    +0.000 C 
ENDBRANCH   6  24
BRANCH  12  26
ATOM     26  O   UNL     1     101.677 122.739 146.535  0.00  0.00    +0.000 OA
ATOM     27  C   UNL     1     100.962 123.065 146.282  0.00  0.00    +0.000 C 
ENDBRANCH  12  26
TORSDOF 4
ENDMDL
MODEL 4
REMARK VINA RESULT:      -7.8     12.901     14.119
REMARK  Name = 131836451
REMARK  4 active torsions:
REMARK  status: ('A' for Active; 'I' for Inactive)
REMARK    1  A    between atoms: O_2  and  C_11
REMARK    2  A    between atoms: O_6  and  C_20
REMARK    3  A    between atoms: O_8  and  C_24
REMARK    4  A    between atoms: C_10  and  C_12
REMARK                            x       y       z     vdW  Elec       q    Type
REMARK                         _______ _______ _______ _____ _____    ______ ____
ROOT
ATOM      1  O   UNL     1     113.421 126.802 136.673  0.00  0.00    +0.000 OA
ATOM      2  O   UNL     1     111.180 126.389 135.707  0.00  0.00    +0.000 OA
ATOM      3  O   UNL     1     111.311 124.971 135.937  0.00  0.00    +0.000 OA
ATOM      4  O   UNL     1     113.756 123.952 137.167  0.00  0.00    +0.000 OA
ATOM      5  C   UNL     1     112.970 127.434 136.392  0.00  0.00    +0.000 C 
ATOM      6  C   UNL     1     112.223 127.296 136.070  0.00  0.00    +0.000 C 
ATOM      7  C   UNL     1     111.927 126.527 136.029  0.00  0.00    +0.000 C 
ATOM      8  C   UNL     1     112.379 125.896 136.309  0.00  0.00    +0.000 A 
ATOM      9  C   UNL     1     113.126 126.034 136.631  0.00  0.00    +0.000 A 
ATOM     10  C   UNL     1     112.059 125.099 136.260  0.00  0.00    +0.000 A 
ATOM     11  C   UNL     1     113.605 125.384 136.926  0.00  0.00    +0.000 A 
ATOM     12  C   UNL     1     112.524 124.438 136.550  0.00  0.00    +0.000 A 
ATOM     13  C   UNL     1     113.302 124.581 136.886  0.00  0.00    +0.000 A 
ENDROOT
BRANCH   5  16
ATOM     14  O   UNL     1     112.919 128.261 137.819  0.00  0.00    +0.000 OA
ATOM     15  O   UNL     1     113.510 129.800 137.903  0.00  0.00    +0.000 OA
ATOM     16  C   UNL     1     113.265 128.203 136.434  0.00  0.00    +0.000 A 
ATOM     17  C   UNL     1     113.240 128.616 137.147  0.00  0.00    +0.000 A 
ATOM     18  C   UNL     1     113.587 128.559 135.763  0.00  0.00    +0.000 A 
ATOM     19  C   UNL     1     113.536 129.386 137.189  0.00  0.00    +0.000 A 
ATOM     20  C   UNL     1     113.882 129.327 135.804  0.00  0.00    +0.000 A 
ATOM     21  C   UNL     1     113.857 129.741 136.517  0.00  0.00    +0.000 A 
BRANCH  21  22
ATOM     22  O   UNL     1     114.152 130.511 136.559  0.00  0.00    +0.000 OA
ATOM     23  C   UNL     1     114.616 130.808 135.945  0.00  0.00    +0.000 C 
ENDBRANCH  21  22
ENDBRANCH   5  16
BRANCH   6  24
ATOM     24  O   UNL     1     111.772 127.927 135.790  0.00  0.00    +0.000 OA
ATOM     25  C   UNL     1     111.150 127.789 135.265  0.00  0.00    +0.000 C 
ENDBRANCH   6  24
BRANCH  12  26
ATOM     26  O   UNL     1     112.226 123.670 136.507  0.00  0.00    +0.000 OA
ATOM     27  C   UNL     1     111.899 123.316 137.177  0.00  0.00    +0.000 C 
ENDBRANCH  12  26
TORSDOF 4
ENDMDL
MODEL 5
REMARK VINA RESULT:      -7.8      1.144      1.491
REMARK  Name = 131836451
REMARK  4 active torsions:
REMARK  status: ('A' for Active; 'I' for Inactive)
REMARK    1  A    between atoms: O_2  and  C_11
REMARK    2  A    between atoms: O_6  and  C_20
REMARK    3  A    between atoms: O_8  and  C_24
REMARK    4  A    between atoms: C_10  and  C_12
REMARK                            x       y       z     vdW  Elec       q    Type
REMARK                         _______ _______ _______ _____ _____    ______ ____
ROOT
ATOM      1  O   UNL     1     104.272 124.640 146.658  0.00  0.00    +0.000 OA
ATOM      2  O   UNL     1     103.442 124.516 148.986  0.00  0.00    +0.000 OA
ATOM      3  O   UNL     1     102.370 123.637 148.587  0.00  0.00    +0.000 OA
ATOM      4  O   UNL     1     102.133 122.869 145.780  0.00  0.00    +0.000 OA
ATOM      5  C   UNL     1     104.661 125.054 147.256  0.00  0.00    +0.000 C 
ATOM      6  C   UNL     1     104.384 125.013 148.032  0.00  0.00    +0.000 C 
ATOM      7  C   UNL     1     103.718 124.557 148.210  0.00  0.00    +0.000 C 
ATOM      8  C   UNL     1     103.331 124.144 147.611  0.00  0.00    +0.000 A 
ATOM      9  C   UNL     1     103.608 124.185 146.835  0.00  0.00    +0.000 A 
ATOM     10  C   UNL     1     102.639 123.672 147.809  0.00  0.00    +0.000 A 
ATOM     11  C   UNL     1     103.212 123.758 146.202  0.00  0.00    +0.000 A 
ATOM     12  C   UNL     1     102.231 123.239 147.189  0.00  0.00    +0.000 A 
ATOM     13  C   UNL     1     102.519 123.282 146.380  0.00  0.00    +0.000 A 
ENDROOT
BRANCH   5  16
ATOM     14  O   UNL     1     106.107 124.319 146.955  0.00  0.00    +0.000 OA
ATOM     15  O   UNL     1     107.437 125.230 146.601  0.00  0.00    +0.000 OA
ATOM     16  C   UNL     1     105.325 125.509 147.079  0.00  0.00    +0.000 A 
ATOM     17  C   UNL     1     106.048 125.142 146.929  0.00  0.00    +0.000 A 
ATOM     18  C   UNL     1     105.267 126.332 147.053  0.00  0.00    +0.000 A 
ATOM     19  C   UNL     1     106.714 125.597 146.751  0.00  0.00    +0.000 A 
ATOM     20  C   UNL     1     105.931 126.787 146.876  0.00  0.00    +0.000 A 
ATOM     21  C   UNL     1     106.655 126.420 146.725  0.00  0.00    +0.000 A 
BRANCH  21  22
ATOM     22  O   UNL     1     107.320 126.875 146.548  0.00  0.00    +0.000 OA
ATOM     23  C   UNL     1     107.253 127.694 146.482  0.00  0.00    +0.000 C 
ENDBRANCH  21  22
ENDBRANCH   5  16
BRANCH   6  24
ATOM     24  O   UNL     1     104.771 125.427 148.631  0.00  0.00    +0.000 OA
ATOM     25  C   UNL     1     104.434 125.478 149.383  0.00  0.00    +0.000 C 
ENDBRANCH   6  24
BRANCH  12  26
ATOM     26  O   UNL     1     101.566 122.785 147.369  0.00  0.00    +0.000 OA
ATOM     27  C   UNL     1     100.812 123.066 147.188  0.00  0.00    +0.000 C 
ENDBRANCH  12  26
TORSDOF 4
ENDMDL
MODEL 6
REMARK VINA RESULT:      -7.8      7.796      8.874
REMARK  Name = 131836451
REMARK  4 active torsions:
REMARK  status: ('A' for Active; 'I' for Inactive)
REMARK    1  A    between atoms: O_2  and  C_11
REMARK    2  A    between atoms: O_6  and  C_20
REMARK    3  A    between atoms: O_8  and  C_24
REMARK    4  A    between atoms: C_10  and  C_12
REMARK                            x       y       z     vdW  Elec       q    Type
REMARK                         _______ _______ _______ _____ _____    ______ ____
ROOT
ATOM      1  O   UNL     1     103.555 130.158 142.271  0.00  0.00    +0.000 OA
ATOM      2  O   UNL     1     103.368 128.621 140.341  0.00  0.00    +0.000 OA
ATOM      3  O   UNL     1     104.270 127.684 140.963  0.00  0.00    +0.000 OA
ATOM      4  O   UNL     1     105.384 128.313 143.588  0.00  0.00    +0.000 OA
ATOM      5  C   UNL     1     103.075 130.358 141.630  0.00  0.00    +0.000 C 
ATOM      6  C   UNL     1     103.013 129.846 140.987  0.00  0.00    +0.000 C 
ATOM      7  C   UNL     1     103.430 129.133 140.984  0.00  0.00    +0.000 C 
ATOM      8  C   UNL     1     103.909 128.934 141.625  0.00  0.00    +0.000 A 
ATOM      9  C   UNL     1     103.972 129.447 142.269  0.00  0.00    +0.000 A 
ATOM     10  C   UNL     1     104.339 128.189 141.610  0.00  0.00    +0.000 A 
ATOM     11  C   UNL     1     104.468 129.250 142.943  0.00  0.00    +0.000 A 
ATOM     12  C   UNL     1     104.840 127.976 142.275  0.00  0.00    +0.000 A 
ATOM     13  C   UNL     1     104.905 128.510 142.946  0.00  0.00    +0.000 A 
ENDROOT
BRANCH   5  16
ATOM     14  O   UNL     1     103.853 131.771 141.281  0.00  0.00    +0.000 OA
ATOM     15  O   UNL     1     103.020 133.194 141.286  0.00  0.00    +0.000 OA
ATOM     16  C   UNL     1     102.659 131.069 141.633  0.00  0.00    +0.000 A 
ATOM     17  C   UNL     1     103.048 131.776 141.458  0.00  0.00    +0.000 A 
ATOM     18  C   UNL     1     101.853 131.076 141.810  0.00  0.00    +0.000 A 
ATOM     19  C   UNL     1     102.631 132.488 141.460  0.00  0.00    +0.000 A 
ATOM     20  C   UNL     1     101.436 131.787 141.812  0.00  0.00    +0.000 A 
ATOM     21  C   UNL     1     101.825 132.493 141.637  0.00  0.00    +0.000 A 
BRANCH  21  22
ATOM     22  O   UNL     1     101.408 133.206 141.640  0.00  0.00    +0.000 OA
ATOM     23  C   UNL     1     100.711 133.273 142.075  0.00  0.00    +0.000 C 
ENDBRANCH  21  22
ENDBRANCH   5  16
BRANCH   6  24
ATOM     24  O   UNL     1     102.534 130.044 140.346  0.00  0.00    +0.000 OA
ATOM     25  C   UNL     1     102.265 129.457 139.833  0.00  0.00    +0.000 C 
ENDBRANCH   6  24
BRANCH  12  26
ATOM     26  O   UNL     1     105.255 127.263 142.270  0.00  0.00    +0.000 OA
ATOM     27  C   UNL     1     106.076 127.265 142.181  0.00  0.00    +0.000 C 
ENDBRANCH  12  26
TORSDOF 4
ENDMDL
MODEL 7
REMARK VINA RESULT:      -7.7     11.771     13.187
REMARK  Name = 131836451
REMARK  4 active torsions:
REMARK  status: ('A' for Active; 'I' for Inactive)
REMARK    1  A    between atoms: O_2  and  C_11
REMARK    2  A    between atoms: O_6  and  C_20
REMARK    3  A    between atoms: O_8  and  C_24
REMARK    4  A    between atoms: C_10  and  C_12
REMARK                            x       y       z     vdW  Elec       q    Type
REMARK                         _______ _______ _______ _____ _____    ______ ____
ROOT
ATOM      1  O   UNL     1     110.034 127.047 136.305  0.00  0.00    +0.000 OA
ATOM      2  O   UNL     1     111.766 128.672 135.609  0.00  0.00    +0.000 OA
ATOM      3  O   UNL     1     110.760 129.663 135.318  0.00  0.00    +0.000 OA
ATOM      4  O   UNL     1     107.948 128.998 135.737  0.00  0.00    +0.000 OA
ATOM      5  C   UNL     1     110.831 126.835 136.330  0.00  0.00    +0.000 C 
ATOM      6  C   UNL     1     111.408 127.377 136.098  0.00  0.00    +0.000 C 
ATOM      7  C   UNL     1     111.189 128.130 135.841  0.00  0.00    +0.000 C 
ATOM      8  C   UNL     1     110.392 128.341 135.817  0.00  0.00    +0.000 A 
ATOM      9  C   UNL     1     109.814 127.799 136.049  0.00  0.00    +0.000 A 
ATOM     10  C   UNL     1     110.176 129.129 135.547  0.00  0.00    +0.000 A 
ATOM     11  C   UNL     1     108.980 128.007 136.027  0.00  0.00    +0.000 A 
ATOM     12  C   UNL     1     109.348 129.354 135.519  0.00  0.00    +0.000 A 
ATOM     13  C   UNL     1     108.746 128.790 135.761  0.00  0.00    +0.000 A 
ENDROOT
BRANCH   5  16
ATOM     14  O   UNL     1     110.749 126.454 137.933  0.00  0.00    +0.000 OA
ATOM     15  O   UNL     1     111.189 124.949 138.447  0.00  0.00    +0.000 OA
ATOM     16  C   UNL     1     111.050 126.083 136.586  0.00  0.00    +0.000 A 
ATOM     17  C   UNL     1     111.010 125.892 137.388  0.00  0.00    +0.000 A 
ATOM     18  C   UNL     1     111.311 125.520 136.042  0.00  0.00    +0.000 A 
ATOM     19  C   UNL     1     111.229 125.139 137.645  0.00  0.00    +0.000 A 
ATOM     20  C   UNL     1     111.531 124.768 136.298  0.00  0.00    +0.000 A 
ATOM     21  C   UNL     1     111.490 124.578 137.100  0.00  0.00    +0.000 A 
BRANCH  21  22
ATOM     22  O   UNL     1     111.710 123.825 137.357  0.00  0.00    +0.000 OA
ATOM     23  C   UNL     1     112.190 123.351 136.882  0.00  0.00    +0.000 C 
ENDBRANCH  21  22
ENDBRANCH   5  16
BRANCH   6  24
ATOM     24  O   UNL     1     112.206 127.166 136.123  0.00  0.00    +0.000 OA
ATOM     25  C   UNL     1     112.788 127.747 136.061  0.00  0.00    +0.000 C 
ENDBRANCH   6  24
BRANCH  12  26
ATOM     26  O   UNL     1     109.131 130.107 135.262  0.00  0.00    +0.000 OA
ATOM     27  C   UNL     1     108.894 130.678 135.809  0.00  0.00    +0.000 C 
ENDBRANCH  12  26
TORSDOF 4
ENDMDL
MODEL 8
REMARK VINA RESULT:      -7.7      2.635      3.615
REMARK  Name = 131836451
REMARK  4 active torsions:
REMARK  status: ('A' for Active; 'I' for Inactive)
REMARK    1  A    between atoms: O_2  and  C_11
REMARK    2  A    between atoms: O_6  and  C_20
REMARK    3  A    between atoms: O_8  and  C_24
REMARK    4  A    between atoms: C_10  and  C_12
REMARK                            x       y       z     vdW  Elec       q    Type
REMARK                         _______ _______ _______ _____ _____    ______ ____
ROOT
ATOM      1  O   UNL     1     106.286 124.960 145.729  0.00  0.00    +0.000 OA
ATOM      2  O   UNL     1     106.448 127.375 145.213  0.00  0.00    +0.000 OA
ATOM      3  O   UNL     1     106.054 127.138 143.846  0.00  0.00    +0.000 OA
ATOM      4  O   UNL     1     105.486 124.407 142.984  0.00  0.00    +0.000 OA
ATOM      5  C   UNL     1     106.509 125.493 146.318  0.00  0.00    +0.000 C 
ATOM      6  C   UNL     1     106.563 126.298 146.146  0.00  0.00    +0.000 C 
ATOM      7  C   UNL     1     106.394 126.570 145.385  0.00  0.00    +0.000 C 
ATOM      8  C   UNL     1     106.171 126.036 144.797  0.00  0.00    +0.000 A 
ATOM      9  C   UNL     1     106.117 125.231 144.969  0.00  0.00    +0.000 A 
ATOM     10  C   UNL     1     105.997 126.332 144.008  0.00  0.00    +0.000 A 
ATOM     11  C   UNL     1     105.886 124.666 144.364  0.00  0.00    +0.000 A 
ATOM     12  C   UNL     1     105.765 125.782 143.392  0.00  0.00    +0.000 A 
ATOM     13  C   UNL     1     105.709 124.942 143.571  0.00  0.00    +0.000 A 
ENDROOT
BRANCH   5  16
ATOM     14  O   UNL     1     105.284 125.009 147.312  0.00  0.00    +0.000 OA
ATOM     15  O   UNL     1     105.622 124.466 148.833  0.00  0.00    +0.000 OA
ATOM     16  C   UNL     1     106.678 125.222 147.078  0.00  0.00    +0.000 A 
ATOM     17  C   UNL     1     106.066 124.980 147.575  0.00  0.00    +0.000 A 
ATOM     18  C   UNL     1     107.459 125.191 147.342  0.00  0.00    +0.000 A 
ATOM     19  C   UNL     1     106.234 124.708 148.336  0.00  0.00    +0.000 A 
ATOM     20  C   UNL     1     107.628 124.920 148.102  0.00  0.00    +0.000 A 
ATOM     21  C   UNL     1     107.016 124.678 148.599  0.00  0.00    +0.000 A 
BRANCH  21  22
ATOM     22  O   UNL     1     107.185 124.407 149.360  0.00  0.00    +0.000 OA
ATOM     23  C   UNL     1     107.968 124.347 149.612  0.00  0.00    +0.000 C 
ENDBRANCH  21  22
ENDBRANCH   5  16
BRANCH   6  24
ATOM     24  O   UNL     1     106.786 126.832 146.734  0.00  0.00    +0.000 OA
ATOM     25  C   UNL     1     106.981 127.608 146.535  0.00  0.00    +0.000 C 
ENDBRANCH   6  24
BRANCH  12  26
ATOM     26  O   UNL     1     105.596 126.056 142.632  0.00  0.00    +0.000 OA
ATOM     27  C   UNL     1     106.153 125.969 142.029  0.00  0.00    +0.000 C 
ENDBRANCH  12  26
TORSDOF 4
ENDMDL
MODEL 9
REMARK VINA RESULT:      -7.7     10.056     11.212
REMARK  Name = 131836451
REMARK  4 active torsions:
REMARK  status: ('A' for Active; 'I' for Inactive)
REMARK    1  A    between atoms: O_2  and  C_11
REMARK    2  A    between atoms: O_6  and  C_20
REMARK    3  A    between atoms: O_8  and  C_24
REMARK    4  A    between atoms: C_10  and  C_12
REMARK                            x       y       z     vdW  Elec       q    Type
REMARK                         _______ _______ _______ _____ _____    ______ ____
ROOT
ATOM      1  O   UNL     1     111.747 131.658 145.397  0.00  0.00    +0.000 OA
ATOM      2  O   UNL     1     111.861 133.431 143.674  0.00  0.00    +0.000 OA
ATOM      3  O   UNL     1     111.801 132.449 142.620  0.00  0.00    +0.000 OA
ATOM      4  O   UNL     1     111.623 129.620 143.321  0.00  0.00    +0.000 OA
ATOM      5  C   UNL     1     111.796 132.450 145.624  0.00  0.00    +0.000 C 
ATOM      6  C   UNL     1     111.834 133.041 145.049  0.00  0.00    +0.000 C 
ATOM      7  C   UNL     1     111.823 132.840 144.249  0.00  0.00    +0.000 C 
ATOM      8  C   UNL     1     111.774 132.048 144.024  0.00  0.00    +0.000 A 
ATOM      9  C   UNL     1     111.736 131.457 144.598  0.00  0.00    +0.000 A 
ATOM     10  C   UNL     1     111.763 131.852 143.186  0.00  0.00    +0.000 A 
ATOM     11  C   UNL     1     111.685 130.628 144.375  0.00  0.00    +0.000 A 
ATOM     12  C   UNL     1     111.712 131.029 142.945  0.00  0.00    +0.000 A 
ATOM     13  C   UNL     1     111.673 130.413 143.544  0.00  0.00    +0.000 A 
ENDROOT
BRANCH   5  16
ATOM     14  O   UNL     1     113.134 132.133 146.535  0.00  0.00    +0.000 OA
ATOM     15  O   UNL     1     113.157 132.535 148.135  0.00  0.00    +0.000 OA
ATOM     16  C   UNL     1     111.807 132.651 146.423  0.00  0.00    +0.000 A 
ATOM     17  C   UNL     1     112.476 132.492 146.879  0.00  0.00    +0.000 A 
ATOM     18  C   UNL     1     111.150 133.010 146.768  0.00  0.00    +0.000 A 
ATOM     19  C   UNL     1     112.488 132.693 147.680  0.00  0.00    +0.000 A 
ATOM     20  C   UNL     1     111.161 133.211 147.568  0.00  0.00    +0.000 A 
ATOM     21  C   UNL     1     111.830 133.053 148.023  0.00  0.00    +0.000 A 
BRANCH  21  22
ATOM     22  O   UNL     1     111.841 133.254 148.824  0.00  0.00    +0.000 OA
ATOM     23  C   UNL     1     111.157 133.537 149.187  0.00  0.00    +0.000 C 
ENDBRANCH  21  22
ENDBRANCH   5  16
BRANCH   6  24
ATOM     24  O   UNL     1     111.883 133.833 145.275  0.00  0.00    +0.000 OA
ATOM     25  C   UNL     1     111.816 134.428 144.707  0.00  0.00    +0.000 C 
ENDBRANCH   6  24
BRANCH  12  26
ATOM     26  O   UNL     1     111.701 130.831 142.144  0.00  0.00    +0.000 OA
ATOM     27  C   UNL     1     112.379 130.527 141.785  0.00  0.00    +0.000 C 
ENDBRANCH  12  26
TORSDOF 4
ENDMDL
MODEL 10
REMARK VINA RESULT:      -7.6     12.810     13.864
REMARK  Name = 131836451
REMARK  4 active torsions:
REMARK  status: ('A' for Active; 'I' for Inactive)
REMARK    1  A    between atoms: O_2  and  C_11
REMARK    2  A    between atoms: O_6  and  C_20
REMARK    3  A    between atoms: O_8  and  C_24
REMARK    4  A    between atoms: C_10  and  C_12
REMARK                            x       y       z     vdW  Elec       q    Type
REMARK                         _______ _______ _______ _____ _____    ______ ____
ROOT
ATOM      1  O   UNL     1     109.975 127.850 135.396  0.00  0.00    +0.000 OA
ATOM      2  O   UNL     1     112.011 128.112 136.779  0.00  0.00    +0.000 OA
ATOM      3  O   UNL     1     112.295 126.702 136.679  0.00  0.00    +0.000 OA
ATOM      4  O   UNL     1     110.487 124.993 135.151  0.00  0.00    +0.000 OA
ATOM      5  C   UNL     1     110.185 128.594 135.684  0.00  0.00    +0.000 C 
ATOM      6  C   UNL     1     110.863 128.682 136.145  0.00  0.00    +0.000 C 
ATOM      7  C   UNL     1     111.332 128.025 136.318  0.00  0.00    +0.000 C 
ATOM      8  C   UNL     1     111.122 127.281 136.030  0.00  0.00    +0.000 A 
ATOM      9  C   UNL     1     110.444 127.193 135.569  0.00  0.00    +0.000 A 
ATOM     10  C   UNL     1     111.619 126.605 136.218  0.00  0.00    +0.000 A 
ATOM     11  C   UNL     1     110.215 126.423 135.263  0.00  0.00    +0.000 A 
ATOM     12  C   UNL     1     111.406 125.827 135.921  0.00  0.00    +0.000 A 
ATOM     13  C   UNL     1     110.699 125.736 135.440  0.00  0.00    +0.000 A 
ENDROOT
BRANCH   5  16
ATOM     14  O   UNL     1     108.744 128.807 136.460  0.00  0.00    +0.000 OA
ATOM     15  O   UNL     1     107.807 130.120 136.114  0.00  0.00    +0.000 OA
ATOM     16  C   UNL     1     109.717 129.250 135.511  0.00  0.00    +0.000 A 
ATOM     17  C   UNL     1     108.996 129.357 135.899  0.00  0.00    +0.000 A 
ATOM     18  C   UNL     1     109.967 129.801 134.950  0.00  0.00    +0.000 A 
ATOM     19  C   UNL     1     108.527 130.014 135.726  0.00  0.00    +0.000 A 
ATOM     20  C   UNL     1     109.499 130.457 134.777  0.00  0.00    +0.000 A 
ATOM     21  C   UNL     1     108.779 130.563 135.165  0.00  0.00    +0.000 A 
BRANCH  21  22
ATOM     22  O   UNL     1     108.310 131.220 134.992  0.00  0.00    +0.000 OA
ATOM     23  C   UNL     1     108.640 131.874 134.612  0.00  0.00    +0.000 C 
ENDBRANCH  21  22
ENDBRANCH   5  16
BRANCH   6  24
ATOM     24  O   UNL     1     111.074 129.425 136.433  0.00  0.00    +0.000 OA
ATOM     25  C   UNL     1     111.845 129.566 136.689  0.00  0.00    +0.000 C 
ENDBRANCH   6  24
BRANCH  12  26
ATOM     26  O   UNL     1     111.877 125.173 136.095  0.00  0.00    +0.000 OA
ATOM     27  C   UNL     1     111.635 124.632 136.670  0.00  0.00    +0.000 C 
ENDBRANCH  12  26
TORSDOF 4
ENDMDL
