MODEL 1
REMARK VINA RESULT:     -11.2      0.000      0.000
REMARK  Name = 
REMARK  8 active torsions:
REMARK  status: ('A' for Active; 'I' for Inactive)
REMARK    1  A    between atoms: C_1  and  O_18
REMARK    2  A    between atoms: C_9  and  C_12
REMARK    3  A    between atoms: C_15  and  O_40
REMARK    4  A    between atoms: O_18  and  C_23
REMARK    5  A    between atoms: C_22  and  O_28
REMARK    6  A    between atoms: C_25  and  C_38
REMARK    7  A    between atoms: O_28  and  C_33
REMARK    8  A    between atoms: C_35  and  C_39
REMARK                            x       y       z     vdW  Elec       q    Type
REMARK                         _______ _______ _______ _____ _____    ______ ____
ROOT
ATOM      1  C   UNL     1     105.945 126.876 143.050  0.00  0.00    +0.000 C 
ATOM      2  C   UNL     1     106.244 126.807 141.826  0.00  0.00    +0.000 C 
ATOM      3  C   UNL     1     107.361 126.444 141.786  0.00  0.00    +0.000 C 
ATOM      4  C   UNL     1     108.293 126.150 141.382  0.00  0.00    +0.000 C 
ATOM      5  O   UNL     1     107.902 126.255 142.390  0.00  0.00    +0.000 OA
ATOM      6  C   UNL     1     106.772 126.621 142.461  0.00  0.00    +0.000 C 
ATOM      7  O   UNL     1     104.988 127.187 143.059  0.00  0.00    +0.000 OA
ATOM      8  O   UNL     1     105.368 127.080 142.357  0.00  0.00    +0.000 OA
ENDROOT
BRANCH   6   9
ATOM      9  C   UNL     1     106.541 126.678 143.281  0.00  0.00    +0.000 C 
ATOM     10  O   UNL     1     106.309 126.392 143.663  0.00  0.00    +0.000 OA
ATOM     11  O   UNL     1     106.663 127.175 143.524  0.00  0.00    +0.000 OA
ENDBRANCH   6   9
BRANCH   4  12
ATOM     12  O   UNL     1     109.275 125.832 141.325  0.00  0.00    +0.000 OA
BRANCH  12  13
ATOM     13  C   UNL     1     110.058 126.297 141.017  0.00  0.00    +0.000 A 
ATOM     14  C   UNL     1     110.325 127.118 141.436  0.00  0.00    +0.000 A 
ATOM     15  C   UNL     1     111.107 127.583 141.129  0.00  0.00    +0.000 A 
ATOM     16  C   UNL     1     111.623 127.226 140.400  0.00  0.00    +0.000 A 
ATOM     17  C   UNL     1     111.356 126.404 139.981  0.00  0.00    +0.000 A 
ATOM     18  C   UNL     1     110.573 125.939 140.289  0.00  0.00    +0.000 A 
ATOM     19  C   UNL     1     112.406 127.691 140.092  0.00  0.00    +0.000 A 
ATOM     20  C   UNL     1     112.921 127.333 139.364  0.00  0.00    +0.000 A 
ATOM     21  C   UNL     1     112.654 126.512 138.944  0.00  0.00    +0.000 A 
ATOM     22  O   UNL     1     111.872 126.047 139.252  0.00  0.00    +0.000 OA
ATOM     23  O   UNL     1     112.674 128.516 140.513  0.00  0.00    +0.000 OA
ATOM     24  O   UNL     1     111.383 128.432 141.562  0.00  0.00    +0.000 OA
BRANCH  21  25
ATOM     25  C   UNL     1     113.169 126.154 138.216  0.00  0.00    +0.000 A 
ATOM     26  C   UNL     1     113.988 125.648 138.398  0.00  0.00    +0.000 A 
ATOM     27  C   UNL     1     114.513 125.283 137.657  0.00  0.00    +0.000 A 
ATOM     28  C   UNL     1     114.220 125.425 136.733  0.00  0.00    +0.000 A 
ATOM     29  C   UNL     1     113.401 125.931 136.551  0.00  0.00    +0.000 A 
ATOM     30  C   UNL     1     112.876 126.295 137.293  0.00  0.00    +0.000 A 
BRANCH  28  31
ATOM     31  O   UNL     1     114.745 125.060 135.991  0.00  0.00    +0.000 OA
ATOM     32  C   UNL     1     115.445 125.490 135.700  0.00  0.00    +0.000 C 
ENDBRANCH  28  31
ENDBRANCH  21  25
ENDBRANCH  12  13
ENDBRANCH   4  12
BRANCH   3  33
ATOM     33  O   UNL     1     107.997 126.263 140.646  0.00  0.00    +0.000 OA
BRANCH  33  38
ATOM     34  O   UNL     1     104.408 122.849 140.149  0.00  0.00    +0.000 OA
ATOM     35  C   UNL     1     104.984 123.682 139.891  0.00  0.00    +0.000 C 
ATOM     36  C   UNL     1     105.785 123.715 140.864  0.00  0.00    +0.000 C 
ATOM     37  C   UNL     1     106.491 124.635 140.668  0.00  0.00    +0.000 C 
ATOM     38  C   UNL     1     107.267 125.336 140.820  0.00  0.00    +0.000 C 
ATOM     39  O   UNL     1     106.518 125.188 140.048  0.00  0.00    +0.000 OA
ATOM     40  C   UNL     1     105.788 124.264 140.219  0.00  0.00    +0.000 C 
ATOM     41  O   UNL     1     105.097 123.126 140.692  0.00  0.00    +0.000 OA
ATOM     42  O   UNL     1     107.478 125.031 141.447  0.00  0.00    +0.000 OA
BRANCH  40  43
ATOM     43  C   UNL     1     104.908 124.023 139.393  0.00  0.00    +0.000 C 
ATOM     44  O   UNL     1     105.068 123.689 138.947  0.00  0.00    +0.000 OA
ATOM     45  O   UNL     1     104.406 124.205 139.425  0.00  0.00    +0.000 OA
ENDBRANCH  40  43
ENDBRANCH  33  38
ENDBRANCH   3  33
TORSDOF 8
ENDMDL
MODEL 2
REMARK VINA RESULT:     -11.0      2.364      4.310
REMARK  Name = 
REMARK  8 active torsions:
REMARK  status: ('A' for Active; 'I' for Inactive)
REMARK    1  A    between atoms: C_1  and  O_18
REMARK    2  A    between atoms: C_9  and  C_12
REMARK    3  A    between atoms: C_15  and  O_40
REMARK    4  A    between atoms: O_18  and  C_23
REMARK    5  A    between atoms: C_22  and  O_28
REMARK    6  A    between atoms: C_25  and  C_38
REMARK    7  A    between atoms: O_28  and  C_33
REMARK    8  A    between atoms: C_35  and  C_39
REMARK                            x       y       z     vdW  Elec       q    Type
REMARK                         _______ _______ _______ _____ _____    ______ ____
ROOT
ATOM      1  C   UNL     1     105.675 125.105 143.178  0.00  0.00    +0.000 C 
ATOM      2  C   UNL     1     106.258 124.535 142.216  0.00  0.00    +0.000 C 
ATOM      3  C   UNL     1     106.974 125.343 141.748  0.00  0.00    +0.000 C 
ATOM      4  C   UNL     1     107.690 125.775 141.102  0.00  0.00    +0.000 C 
ATOM      5  O   UNL     1     107.119 126.136 141.952  0.00  0.00    +0.000 OA
ATOM      6  C   UNL     1     106.385 125.340 142.446  0.00  0.00    +0.000 C 
ATOM      7  O   UNL     1     105.071 124.398 143.562  0.00  0.00    +0.000 OA
ATOM      8  O   UNL     1     105.536 124.226 142.927  0.00  0.00    +0.000 OA
ENDROOT
BRANCH   6   9
ATOM      9  C   UNL     1     105.975 125.699 143.103  0.00  0.00    +0.000 C 
ATOM     10  O   UNL     1     105.528 125.962 143.214  0.00  0.00    +0.000 OA
ATOM     11  O   UNL     1     106.247 125.658 143.598  0.00  0.00    +0.000 OA
ENDBRANCH   6   9
BRANCH   4  12
ATOM     12  O   UNL     1     108.326 126.470 140.675  0.00  0.00    +0.000 OA
BRANCH  12  13
ATOM     13  C   UNL     1     109.222 126.718 140.919  0.00  0.00    +0.000 A 
ATOM     14  C   UNL     1     109.971 126.306 140.480  0.00  0.00    +0.000 A 
ATOM     15  C   UNL     1     110.867 126.553 140.724  0.00  0.00    +0.000 A 
ATOM     16  C   UNL     1     111.013 127.214 141.406  0.00  0.00    +0.000 A 
ATOM     17  C   UNL     1     110.265 127.626 141.844  0.00  0.00    +0.000 A 
ATOM     18  C   UNL     1     109.369 127.378 141.601  0.00  0.00    +0.000 A 
ATOM     19  C   UNL     1     111.910 127.462 141.650  0.00  0.00    +0.000 A 
ATOM     20  C   UNL     1     112.056 128.122 142.333  0.00  0.00    +0.000 A 
ATOM     21  C   UNL     1     111.308 128.534 142.771  0.00  0.00    +0.000 A 
ATOM     22  O   UNL     1     110.412 128.287 142.528  0.00  0.00    +0.000 OA
ATOM     23  O   UNL     1     112.661 127.048 141.210  0.00  0.00    +0.000 OA
ATOM     24  O   UNL     1     111.640 126.128 140.271  0.00  0.00    +0.000 OA
BRANCH  21  25
ATOM     25  C   UNL     1     111.455 129.195 143.453  0.00  0.00    +0.000 A 
ATOM     26  C   UNL     1     111.527 128.921 144.391  0.00  0.00    +0.000 A 
ATOM     27  C   UNL     1     111.676 129.594 145.087  0.00  0.00    +0.000 A 
ATOM     28  C   UNL     1     111.753 130.540 144.845  0.00  0.00    +0.000 A 
ATOM     29  C   UNL     1     111.681 130.813 143.908  0.00  0.00    +0.000 A 
ATOM     30  C   UNL     1     111.532 130.140 143.212  0.00  0.00    +0.000 A 
BRANCH  28  31
ATOM     31  O   UNL     1     111.903 131.213 145.541  0.00  0.00    +0.000 OA
ATOM     32  C   UNL     1     111.867 132.061 145.342  0.00  0.00    +0.000 C 
ENDBRANCH  28  31
ENDBRANCH  21  25
ENDBRANCH  12  13
ENDBRANCH   4  12
BRANCH   3  33
ATOM     33  O   UNL     1     107.742 125.078 140.710  0.00  0.00    +0.000 OA
BRANCH  33  38
ATOM     34  O   UNL     1     103.273 124.254 138.677  0.00  0.00    +0.000 OA
ATOM     35  C   UNL     1     104.252 124.032 138.968  0.00  0.00    +0.000 C 
ATOM     36  C   UNL     1     104.581 125.121 139.511  0.00  0.00    +0.000 C 
ATOM     37  C   UNL     1     105.688 124.975 139.881  0.00  0.00    +0.000 C 
ATOM     38  C   UNL     1     106.620 125.200 140.325  0.00  0.00    +0.000 C 
ATOM     39  O   UNL     1     106.205 124.325 139.832  0.00  0.00    +0.000 OA
ATOM     40  C   UNL     1     105.086 124.443 139.446  0.00  0.00    +0.000 C 
ATOM     41  O   UNL     1     103.785 124.882 139.113  0.00  0.00    +0.000 OA
ATOM     42  O   UNL     1     106.419 125.875 140.506  0.00  0.00    +0.000 OA
BRANCH  40  43
ATOM     43  C   UNL     1     104.536 123.502 138.876  0.00  0.00    +0.000 C 
ATOM     44  O   UNL     1     104.298 123.104 139.222  0.00  0.00    +0.000 OA
ATOM     45  O   UNL     1     104.509 123.445 138.343  0.00  0.00    +0.000 OA
ENDBRANCH  40  43
ENDBRANCH  33  38
ENDBRANCH   3  33
TORSDOF 8
ENDMDL
MODEL 3
REMARK VINA RESULT:     -11.0      4.875      7.085
REMARK  Name = 
REMARK  8 active torsions:
REMARK  status: ('A' for Active; 'I' for Inactive)
REMARK    1  A    between atoms: C_1  and  O_18
REMARK    2  A    between atoms: C_9  and  C_12
REMARK    3  A    between atoms: C_15  and  O_40
REMARK    4  A    between atoms: O_18  and  C_23
REMARK    5  A    between atoms: C_22  and  O_28
REMARK    6  A    between atoms: C_25  and  C_38
REMARK    7  A    between atoms: O_28  and  C_33
REMARK    8  A    between atoms: C_35  and  C_39
REMARK                            x       y       z     vdW  Elec       q    Type
REMARK                         _______ _______ _______ _____ _____    ______ ____
ROOT
ATOM      1  C   UNL     1     110.973 129.004 143.598  0.00  0.00    +0.000 C 
ATOM      2  C   UNL     1     110.901 130.013 142.846  0.00  0.00    +0.000 C 
ATOM      3  C   UNL     1     111.826 129.944 142.123  0.00  0.00    +0.000 C 
ATOM      4  C   UNL     1     112.499 130.201 141.350  0.00  0.00    +0.000 C 
ATOM      5  O   UNL     1     112.437 129.383 142.061  0.00  0.00    +0.000 OA
ATOM      6  C   UNL     1     111.510 129.426 142.806  0.00  0.00    +0.000 C 
ATOM      7  O   UNL     1     110.175 129.083 144.206  0.00  0.00    +0.000 OA
ATOM      8  O   UNL     1     110.308 129.644 143.642  0.00  0.00    +0.000 OA
ENDROOT
BRANCH   6   9
ATOM      9  C   UNL     1     111.533 128.752 143.330  0.00  0.00    +0.000 C 
ATOM     10  O   UNL     1     111.713 128.610 143.808  0.00  0.00    +0.000 OA
ATOM     11  O   UNL     1     111.277 128.290 143.126  0.00  0.00    +0.000 OA
ENDBRANCH   6   9
BRANCH   4  12
ATOM     12  O   UNL     1     113.307 130.159 140.704  0.00  0.00    +0.000 OA
BRANCH  12  13
ATOM     13  C   UNL     1     113.343 129.912 139.776  0.00  0.00    +0.000 A 
ATOM     14  C   UNL     1     113.536 130.575 139.110  0.00  0.00    +0.000 A 
ATOM     15  C   UNL     1     113.572 130.328 138.182  0.00  0.00    +0.000 A 
ATOM     16  C   UNL     1     113.415 129.416 137.922  0.00  0.00    +0.000 A 
ATOM     17  C   UNL     1     113.222 128.753 138.588  0.00  0.00    +0.000 A 
ATOM     18  C   UNL     1     113.186 129.000 139.516  0.00  0.00    +0.000 A 
ATOM     19  C   UNL     1     113.451 129.168 136.993  0.00  0.00    +0.000 A 
ATOM     20  C   UNL     1     113.293 128.256 136.733  0.00  0.00    +0.000 A 
ATOM     21  C   UNL     1     113.101 127.593 137.400  0.00  0.00    +0.000 A 
ATOM     22  O   UNL     1     113.064 127.840 138.328  0.00  0.00    +0.000 OA
ATOM     23  O   UNL     1     113.644 129.834 136.324  0.00  0.00    +0.000 OA
ATOM     24  O   UNL     1     113.771 131.013 137.493  0.00  0.00    +0.000 OA
BRANCH  21  25
ATOM     25  C   UNL     1     112.943 126.681 137.140  0.00  0.00    +0.000 A 
ATOM     26  C   UNL     1     112.097 126.433 136.714  0.00  0.00    +0.000 A 
ATOM     27  C   UNL     1     111.936 125.504 136.449  0.00  0.00    +0.000 A 
ATOM     28  C   UNL     1     112.622 124.824 136.610  0.00  0.00    +0.000 A 
ATOM     29  C   UNL     1     113.468 125.072 137.036  0.00  0.00    +0.000 A 
ATOM     30  C   UNL     1     113.629 126.001 137.301  0.00  0.00    +0.000 A 
BRANCH  28  31
ATOM     31  O   UNL     1     112.461 123.895 136.345  0.00  0.00    +0.000 OA
ATOM     32  C   UNL     1     112.148 123.324 136.925  0.00  0.00    +0.000 C 
ENDBRANCH  28  31
ENDBRANCH  21  25
ENDBRANCH  12  13
ENDBRANCH   4  12
BRANCH   3  33
ATOM     33  O   UNL     1     112.058 130.852 141.196  0.00  0.00    +0.000 OA
BRANCH  33  38
ATOM     34  O   UNL     1     112.380 133.708 145.261  0.00  0.00    +0.000 OA
ATOM     35  C   UNL     1     112.027 133.404 144.326  0.00  0.00    +0.000 C 
ATOM     36  C   UNL     1     112.727 132.372 144.142  0.00  0.00    +0.000 C 
ATOM     37  C   UNL     1     112.400 131.945 143.095  0.00  0.00    +0.000 C 
ATOM     38  C   UNL     1     112.371 131.306 142.253  0.00  0.00    +0.000 C 
ATOM     39  O   UNL     1     111.838 132.209 142.542  0.00  0.00    +0.000 OA
ATOM     40  C   UNL     1     112.148 132.665 143.597  0.00  0.00    +0.000 C 
ATOM     41  O   UNL     1     112.719 132.955 144.856  0.00  0.00    +0.000 OA
ATOM     42  O   UNL     1     112.887 130.866 142.516  0.00  0.00    +0.000 OA
BRANCH  40  43
ATOM     43  C   UNL     1     111.596 133.687 144.003  0.00  0.00    +0.000 C 
ATOM     44  O   UNL     1     111.114 133.606 144.313  0.00  0.00    +0.000 OA
ATOM     45  O   UNL     1     111.774 134.184 143.909  0.00  0.00    +0.000 OA
ENDBRANCH  40  43
ENDBRANCH  33  38
ENDBRANCH   3  33
TORSDOF 8
ENDMDL
MODEL 4
REMARK VINA RESULT:     -10.8      5.984      8.969
REMARK  Name = 
REMARK  8 active torsions:
REMARK  status: ('A' for Active; 'I' for Inactive)
REMARK    1  A    between atoms: C_1  and  O_18
REMARK    2  A    between atoms: C_9  and  C_12
REMARK    3  A    between atoms: C_15  and  O_40
REMARK    4  A    between atoms: O_18  and  C_23
REMARK    5  A    between atoms: C_22  and  O_28
REMARK    6  A    between atoms: C_25  and  C_38
REMARK    7  A    between atoms: O_28  and  C_33
REMARK    8  A    between atoms: C_35  and  C_39
REMARK                            x       y       z     vdW  Elec       q    Type
REMARK                         _______ _______ _______ _____ _____    ______ ____
ROOT
ATOM      1  C   UNL     1     111.918 135.009 144.350  0.00  0.00    +0.000 C 
ATOM      2  C   UNL     1     112.490 134.047 144.932  0.00  0.00    +0.000 C 
ATOM      3  C   UNL     1     111.948 133.074 144.557  0.00  0.00    +0.000 C 
ATOM      4  C   UNL     1     111.717 132.048 144.453  0.00  0.00    +0.000 C 
ATOM      5  O   UNL     1     111.319 132.963 144.025  0.00  0.00    +0.000 OA
ATOM      6  C   UNL     1     111.848 133.965 144.387  0.00  0.00    +0.000 C 
ATOM      7  O   UNL     1     112.396 135.828 144.685  0.00  0.00    +0.000 OA
ATOM      8  O   UNL     1     112.619 135.099 144.946  0.00  0.00    +0.000 OA
ENDROOT
BRANCH   6   9
ATOM      9  C   UNL     1     111.480 134.636 144.007  0.00  0.00    +0.000 C 
ATOM     10  O   UNL     1     111.093 134.990 144.085  0.00  0.00    +0.000 OA
ATOM     11  O   UNL     1     111.704 134.771 143.505  0.00  0.00    +0.000 OA
ENDBRANCH   6   9
BRANCH   4  12
ATOM     12  O   UNL     1     111.254 131.179 144.136  0.00  0.00    +0.000 OA
BRANCH  12  13
ATOM     13  C   UNL     1     111.532 130.536 143.478  0.00  0.00    +0.000 A 
ATOM     14  C   UNL     1     111.494 129.598 143.676  0.00  0.00    +0.000 A 
ATOM     15  C   UNL     1     111.772 128.955 143.018  0.00  0.00    +0.000 A 
ATOM     16  C   UNL     1     112.089 129.253 142.161  0.00  0.00    +0.000 A 
ATOM     17  C   UNL     1     112.127 130.191 141.962  0.00  0.00    +0.000 A 
ATOM     18  C   UNL     1     111.849 130.834 142.620  0.00  0.00    +0.000 A 
ATOM     19  C   UNL     1     112.368 128.610 141.502  0.00  0.00    +0.000 A 
ATOM     20  C   UNL     1     112.685 128.908 140.645  0.00  0.00    +0.000 A 
ATOM     21  C   UNL     1     112.723 129.846 140.446  0.00  0.00    +0.000 A 
ATOM     22  O   UNL     1     112.445 130.489 141.104  0.00  0.00    +0.000 OA
ATOM     23  O   UNL     1     112.329 127.667 141.702  0.00  0.00    +0.000 OA
ATOM     24  O   UNL     1     111.732 127.985 143.223  0.00  0.00    +0.000 OA
BRANCH  21  25
ATOM     25  C   UNL     1     113.040 130.144 139.589  0.00  0.00    +0.000 A 
ATOM     26  C   UNL     1     112.411 130.254 138.847  0.00  0.00    +0.000 A 
ATOM     27  C   UNL     1     112.734 130.558 137.974  0.00  0.00    +0.000 A 
ATOM     28  C   UNL     1     113.685 130.750 137.843  0.00  0.00    +0.000 A 
ATOM     29  C   UNL     1     114.314 130.640 138.585  0.00  0.00    +0.000 A 
ATOM     30  C   UNL     1     113.991 130.336 139.458  0.00  0.00    +0.000 A 
BRANCH  28  31
ATOM     31  O   UNL     1     114.007 131.054 136.969  0.00  0.00    +0.000 OA
ATOM     32  C   UNL     1     114.437 130.502 136.448  0.00  0.00    +0.000 C 
ENDBRANCH  28  31
ENDBRANCH  21  25
ENDBRANCH  12  13
ENDBRANCH   4  12
BRANCH   3  33
ATOM     33  O   UNL     1     112.301 131.874 144.973  0.00  0.00    +0.000 OA
BRANCH  33  38
ATOM     34  O   UNL     1     110.925 133.912 149.301  0.00  0.00    +0.000 OA
ATOM     35  C   UNL     1     111.564 133.443 148.621  0.00  0.00    +0.000 C 
ATOM     36  C   UNL     1     110.803 133.352 147.620  0.00  0.00    +0.000 C 
ATOM     37  C   UNL     1     111.438 132.826 146.779  0.00  0.00    +0.000 C 
ATOM     38  C   UNL     1     111.680 132.404 145.841  0.00  0.00    +0.000 C 
ATOM     39  O   UNL     1     112.221 132.548 146.773  0.00  0.00    +0.000 OA
ATOM     40  C   UNL     1     111.604 133.077 147.642  0.00  0.00    +0.000 C 
ATOM     41  O   UNL     1     110.635 133.710 148.452  0.00  0.00    +0.000 OA
ATOM     42  O   UNL     1     111.021 132.537 145.564  0.00  0.00    +0.000 OA
BRANCH  40  43
ATOM     43  C   UNL     1     112.139 133.279 148.731  0.00  0.00    +0.000 C 
ATOM     44  O   UNL     1     112.203 132.814 149.069  0.00  0.00    +0.000 OA
ATOM     45  O   UNL     1     112.309 133.758 148.900  0.00  0.00    +0.000 OA
ENDBRANCH  40  43
ENDBRANCH  33  38
ENDBRANCH   3  33
TORSDOF 8
ENDMDL
MODEL 5
REMARK VINA RESULT:     -10.8      1.588      7.516
REMARK  Name = 
REMARK  8 active torsions:
REMARK  status: ('A' for Active; 'I' for Inactive)
REMARK    1  A    between atoms: C_1  and  O_18
REMARK    2  A    between atoms: C_9  and  C_12
REMARK    3  A    between atoms: C_15  and  O_40
REMARK    4  A    between atoms: O_18  and  C_23
REMARK    5  A    between atoms: C_22  and  O_28
REMARK    6  A    between atoms: C_25  and  C_38
REMARK    7  A    between atoms: O_28  and  C_33
REMARK    8  A    between atoms: C_35  and  C_39
REMARK                            x       y       z     vdW  Elec       q    Type
REMARK                         _______ _______ _______ _____ _____    ______ ____
ROOT
ATOM      1  C   UNL     1     111.623 128.613 137.641  0.00  0.00    +0.000 C 
ATOM      2  C   UNL     1     111.219 127.443 137.395  0.00  0.00    +0.000 C 
ATOM      3  C   UNL     1     110.868 127.000 138.426  0.00  0.00    +0.000 C 
ATOM      4  C   UNL     1     110.481 126.308 139.125  0.00  0.00    +0.000 C 
ATOM      5  O   UNL     1     110.857 127.325 139.192  0.00  0.00    +0.000 OA
ATOM      6  C   UNL     1     111.220 127.800 138.163  0.00  0.00    +0.000 C 
ATOM      7  O   UNL     1     111.917 128.972 136.748  0.00  0.00    +0.000 OA
ATOM      8  O   UNL     1     111.622 128.224 136.802  0.00  0.00    +0.000 OA
ENDROOT
BRANCH   6   9
ATOM      9  C   UNL     1     111.500 128.595 138.299  0.00  0.00    +0.000 C 
ATOM     10  O   UNL     1     111.951 128.865 138.367  0.00  0.00    +0.000 OA
ATOM     11  O   UNL     1     111.090 128.984 138.330  0.00  0.00    +0.000 OA
ENDBRANCH   6   9
BRANCH   4  12
ATOM     12  O   UNL     1     110.166 125.899 140.022  0.00  0.00    +0.000 OA
BRANCH  12  13
ATOM     13  C   UNL     1     109.306 125.936 140.449  0.00  0.00    +0.000 A 
ATOM     14  C   UNL     1     109.201 126.414 141.275  0.00  0.00    +0.000 A 
ATOM     15  C   UNL     1     108.341 126.451 141.703  0.00  0.00    +0.000 A 
ATOM     16  C   UNL     1     107.587 126.010 141.303  0.00  0.00    +0.000 A 
ATOM     17  C   UNL     1     107.692 125.532 140.477  0.00  0.00    +0.000 A 
ATOM     18  C   UNL     1     108.552 125.495 140.049  0.00  0.00    +0.000 A 
ATOM     19  C   UNL     1     106.726 126.047 141.730  0.00  0.00    +0.000 A 
ATOM     20  C   UNL     1     105.972 125.605 141.330  0.00  0.00    +0.000 A 
ATOM     21  C   UNL     1     106.078 125.127 140.505  0.00  0.00    +0.000 A 
ATOM     22  O   UNL     1     106.937 125.090 140.077  0.00  0.00    +0.000 OA
ATOM     23  O   UNL     1     106.620 126.527 142.560  0.00  0.00    +0.000 OA
ATOM     24  O   UNL     1     108.232 126.945 142.556  0.00  0.00    +0.000 OA
BRANCH  21  25
ATOM     25  C   UNL     1     105.324 124.686 140.105  0.00  0.00    +0.000 A 
ATOM     26  C   UNL     1     105.078 123.782 140.391  0.00  0.00    +0.000 A 
ATOM     27  C   UNL     1     104.310 123.332 139.983  0.00  0.00    +0.000 A 
ATOM     28  C   UNL     1     103.787 123.785 139.290  0.00  0.00    +0.000 A 
ATOM     29  C   UNL     1     104.033 124.689 139.004  0.00  0.00    +0.000 A 
ATOM     30  C   UNL     1     104.801 125.139 139.412  0.00  0.00    +0.000 A 
BRANCH  28  31
ATOM     31  O   UNL     1     103.019 123.335 138.883  0.00  0.00    +0.000 OA
ATOM     32  C   UNL     1     102.606 123.702 138.208  0.00  0.00    +0.000 C 
ENDBRANCH  28  31
ENDBRANCH  21  25
ENDBRANCH  12  13
ENDBRANCH   4  12
BRANCH   3  33
ATOM     33  O   UNL     1     110.383 125.779 138.532  0.00  0.00    +0.000 OA
BRANCH  33  38
ATOM     34  O   UNL     1     115.009 124.744 137.013  0.00  0.00    +0.000 OA
ATOM     35  C   UNL     1     113.965 124.743 136.981  0.00  0.00    +0.000 C 
ATOM     36  C   UNL     1     113.705 125.401 138.024  0.00  0.00    +0.000 C 
ATOM     37  C   UNL     1     112.531 125.459 138.083  0.00  0.00    +0.000 C 
ATOM     38  C   UNL     1     111.570 125.705 138.448  0.00  0.00    +0.000 C 
ATOM     39  O   UNL     1     111.937 125.158 137.584  0.00  0.00    +0.000 OA
ATOM     40  C   UNL     1     113.122 125.082 137.498  0.00  0.00    +0.000 C 
ATOM     41  O   UNL     1     114.522 125.164 137.670  0.00  0.00    +0.000 OA
ATOM     42  O   UNL     1     111.833 126.061 139.025  0.00  0.00    +0.000 OA
BRANCH  40  43
ATOM     43  C   UNL     1     113.625 124.480 136.550  0.00  0.00    +0.000 C 
ATOM     44  O   UNL     1     113.556 123.905 136.553  0.00  0.00    +0.000 OA
ATOM     45  O   UNL     1     113.894 124.716 136.151  0.00  0.00    +0.000 OA
ENDBRANCH  40  43
ENDBRANCH  33  38
ENDBRANCH   3  33
TORSDOF 8
ENDMDL
MODEL 6
REMARK VINA RESULT:     -10.7      5.292      7.974
REMARK  Name = 
REMARK  8 active torsions:
REMARK  status: ('A' for Active; 'I' for Inactive)
REMARK    1  A    between atoms: C_1  and  O_18
REMARK    2  A    between atoms: C_9  and  C_12
REMARK    3  A    between atoms: C_15  and  O_40
REMARK    4  A    between atoms: O_18  and  C_23
REMARK    5  A    between atoms: C_22  and  O_28
REMARK    6  A    between atoms: C_25  and  C_38
REMARK    7  A    between atoms: O_28  and  C_33
REMARK    8  A    between atoms: C_35  and  C_39
REMARK                            x       y       z     vdW  Elec       q    Type
REMARK                         _______ _______ _______ _____ _____    ______ ____
ROOT
ATOM      1  C   UNL     1     107.142 125.215 147.911  0.00  0.00    +0.000 C 
ATOM      2  C   UNL     1     106.171 125.846 147.411  0.00  0.00    +0.000 C 
ATOM      3  C   UNL     1     106.370 125.880 146.253  0.00  0.00    +0.000 C 
ATOM      4  C   UNL     1     106.222 126.099 145.229  0.00  0.00    +0.000 C 
ATOM      5  O   UNL     1     106.991 125.577 145.791  0.00  0.00    +0.000 OA
ATOM      6  C   UNL     1     106.817 125.527 146.967  0.00  0.00    +0.000 C 
ATOM      7  O   UNL     1     106.951 125.199 148.899  0.00  0.00    +0.000 OA
ATOM      8  O   UNL     1     106.437 125.564 148.397  0.00  0.00    +0.000 OA
ENDROOT
BRANCH   6   9
ATOM      9  C   UNL     1     107.461 125.104 147.334  0.00  0.00    +0.000 C 
ATOM     10  O   UNL     1     107.568 124.638 147.563  0.00  0.00    +0.000 OA
ATOM     11  O   UNL     1     107.948 125.392 147.352  0.00  0.00    +0.000 OA
ENDBRANCH   6   9
BRANCH   4  12
ATOM     12  O   UNL     1     106.378 126.140 144.208  0.00  0.00    +0.000 OA
BRANCH  12  13
ATOM     13  C   UNL     1     106.333 126.888 143.606  0.00  0.00    +0.000 A 
ATOM     14  C   UNL     1     107.101 127.132 143.085  0.00  0.00    +0.000 A 
ATOM     15  C   UNL     1     107.056 127.880 142.484  0.00  0.00    +0.000 A 
ATOM     16  C   UNL     1     106.241 128.383 142.404  0.00  0.00    +0.000 A 
ATOM     17  C   UNL     1     105.473 128.139 142.925  0.00  0.00    +0.000 A 
ATOM     18  C   UNL     1     105.518 127.391 143.526  0.00  0.00    +0.000 A 
ATOM     19  C   UNL     1     106.196 129.132 141.802  0.00  0.00    +0.000 A 
ATOM     20  C   UNL     1     105.381 129.635 141.722  0.00  0.00    +0.000 A 
ATOM     21  C   UNL     1     104.612 129.390 142.243  0.00  0.00    +0.000 A 
ATOM     22  O   UNL     1     104.657 128.642 142.844  0.00  0.00    +0.000 OA
ATOM     23  O   UNL     1     106.968 129.378 141.279  0.00  0.00    +0.000 OA
ATOM     24  O   UNL     1     107.851 128.133 141.946  0.00  0.00    +0.000 OA
BRANCH  21  25
ATOM     25  C   UNL     1     103.797 129.893 142.163  0.00  0.00    +0.000 A 
ATOM     26  C   UNL     1     103.487 130.443 142.911  0.00  0.00    +0.000 A 
ATOM     27  C   UNL     1     102.656 130.956 142.830  0.00  0.00    +0.000 A 
ATOM     28  C   UNL     1     102.137 130.919 142.001  0.00  0.00    +0.000 A 
ATOM     29  C   UNL     1     102.447 130.369 141.253  0.00  0.00    +0.000 A 
ATOM     30  C   UNL     1     103.278 129.856 141.334  0.00  0.00    +0.000 A 
BRANCH  28  31
ATOM     31  O   UNL     1     101.306 131.431 141.920  0.00  0.00    +0.000 OA
ATOM     32  C   UNL     1     101.337 132.291 141.777  0.00  0.00    +0.000 C 
ENDBRANCH  28  31
ENDBRANCH  21  25
ENDBRANCH  12  13
ENDBRANCH   4  12
BRANCH   3  33
ATOM     33  O   UNL     1     105.539 126.472 145.419  0.00  0.00    +0.000 OA
BRANCH  33  38
ATOM     34  O   UNL     1     102.508 122.930 147.165  0.00  0.00    +0.000 OA
ATOM     35  C   UNL     1     102.817 123.900 146.931  0.00  0.00    +0.000 C 
ATOM     36  C   UNL     1     103.947 123.664 146.424  0.00  0.00    +0.000 C 
ATOM     37  C   UNL     1     104.389 124.711 146.120  0.00  0.00    +0.000 C 
ATOM     38  C   UNL     1     105.068 125.424 145.736  0.00  0.00    +0.000 C 
ATOM     39  O   UNL     1     104.083 125.481 146.192  0.00  0.00    +0.000 OA
ATOM     40  C   UNL     1     103.610 124.436 146.510  0.00  0.00    +0.000 C 
ATOM     41  O   UNL     1     103.325 123.077 146.769  0.00  0.00    +0.000 OA
ATOM     42  O   UNL     1     105.559 124.920 145.553  0.00  0.00    +0.000 OA
BRANCH  40  43
ATOM     43  C   UNL     1     102.497 124.407 147.034  0.00  0.00    +0.000 C 
ATOM     44  O   UNL     1     102.488 124.478 147.609  0.00  0.00    +0.000 OA
ATOM     45  O   UNL     1     102.039 124.335 146.766  0.00  0.00    +0.000 OA
ENDBRANCH  40  43
ENDBRANCH  33  38
ENDBRANCH   3  33
TORSDOF 8
ENDMDL
MODEL 7
REMARK VINA RESULT:     -10.6      5.542      9.057
REMARK  Name = 
REMARK  8 active torsions:
REMARK  status: ('A' for Active; 'I' for Inactive)
REMARK    1  A    between atoms: C_1  and  O_18
REMARK    2  A    between atoms: C_9  and  C_12
REMARK    3  A    between atoms: C_15  and  O_40
REMARK    4  A    between atoms: O_18  and  C_23
REMARK    5  A    between atoms: C_22  and  O_28
REMARK    6  A    between atoms: C_25  and  C_38
REMARK    7  A    between atoms: O_28  and  C_33
REMARK    8  A    between atoms: C_35  and  C_39
REMARK                            x       y       z     vdW  Elec       q    Type
REMARK                         _______ _______ _______ _____ _____    ______ ____
ROOT
ATOM      1  C   UNL     1     110.544 131.644 137.614  0.00  0.00    +0.000 C 
ATOM      2  C   UNL     1     111.130 130.540 137.787  0.00  0.00    +0.000 C 
ATOM      3  C   UNL     1     111.666 130.620 138.830  0.00  0.00    +0.000 C 
ATOM      4  C   UNL     1     112.248 130.341 139.667  0.00  0.00    +0.000 C 
ATOM      5  O   UNL     1     111.698 131.235 139.389  0.00  0.00    +0.000 OA
ATOM      6  C   UNL     1     111.145 131.184 138.337  0.00  0.00    +0.000 C 
ATOM      7  O   UNL     1     110.094 131.554 136.718  0.00  0.00    +0.000 OA
ATOM      8  O   UNL     1     110.527 130.942 137.013  0.00  0.00    +0.000 OA
ENDROOT
BRANCH   6   9
ATOM      9  C   UNL     1     110.737 131.920 138.192  0.00  0.00    +0.000 C 
ATOM     10  O   UNL     1     110.789 132.371 137.917  0.00  0.00    +0.000 OA
ATOM     11  O   UNL     1     110.246 131.973 138.468  0.00  0.00    +0.000 OA
ENDBRANCH   6   9
BRANCH   4  12
ATOM     12  O   UNL     1     112.728 130.390 140.582  0.00  0.00    +0.000 OA
BRANCH  12  13
ATOM     13  C   UNL     1     112.418 130.137 141.456  0.00  0.00    +0.000 A 
ATOM     14  C   UNL     1     112.198 129.221 141.641  0.00  0.00    +0.000 A 
ATOM     15  C   UNL     1     111.887 128.969 142.515  0.00  0.00    +0.000 A 
ATOM     16  C   UNL     1     111.797 129.634 143.203  0.00  0.00    +0.000 A 
ATOM     17  C   UNL     1     112.017 130.550 143.017  0.00  0.00    +0.000 A 
ATOM     18  C   UNL     1     112.327 130.802 142.144  0.00  0.00    +0.000 A 
ATOM     19  C   UNL     1     111.486 129.381 144.077  0.00  0.00    +0.000 A 
ATOM     20  C   UNL     1     111.396 130.047 144.765  0.00  0.00    +0.000 A 
ATOM     21  C   UNL     1     111.615 130.962 144.580  0.00  0.00    +0.000 A 
ATOM     22  O   UNL     1     111.926 131.215 143.706  0.00  0.00    +0.000 OA
ATOM     23  O   UNL     1     111.266 128.462 144.264  0.00  0.00    +0.000 OA
ATOM     24  O   UNL     1     111.661 128.022 142.707  0.00  0.00    +0.000 OA
BRANCH  21  25
ATOM     25  C   UNL     1     111.525 131.628 145.267  0.00  0.00    +0.000 A 
ATOM     26  C   UNL     1     110.672 132.095 145.386  0.00  0.00    +0.000 A 
ATOM     27  C   UNL     1     110.580 132.773 146.087  0.00  0.00    +0.000 A 
ATOM     28  C   UNL     1     111.339 132.983 146.668  0.00  0.00    +0.000 A 
ATOM     29  C   UNL     1     112.192 132.516 146.549  0.00  0.00    +0.000 A 
ATOM     30  C   UNL     1     112.284 131.838 145.848  0.00  0.00    +0.000 A 
BRANCH  28  31
ATOM     31  O   UNL     1     111.247 133.661 147.369  0.00  0.00    +0.000 OA
ATOM     32  C   UNL     1     111.103 133.418 148.194  0.00  0.00    +0.000 C 
ENDBRANCH  28  31
ENDBRANCH  21  25
ENDBRANCH  12  13
ENDBRANCH   4  12
BRANCH   3  33
ATOM     33  O   UNL     1     112.379 129.628 139.326  0.00  0.00    +0.000 OA
BRANCH  33  38
ATOM     34  O   UNL     1     114.955 130.626 135.184  0.00  0.00    +0.000 OA
ATOM     35  C   UNL     1     114.391 130.051 135.850  0.00  0.00    +0.000 C 
ATOM     36  C   UNL     1     114.200 130.889 136.771  0.00  0.00    +0.000 C 
ATOM     37  C   UNL     1     113.563 130.331 137.587  0.00  0.00    +0.000 C 
ATOM     38  C   UNL     1     113.025 130.170 138.483  0.00  0.00    +0.000 C 
ATOM     39  O   UNL     1     113.265 129.555 137.620  0.00  0.00    +0.000 OA
ATOM     40  C   UNL     1     113.910 130.093 136.777  0.00  0.00    +0.000 C 
ATOM     41  O   UNL     1     114.659 130.985 135.978  0.00  0.00    +0.000 OA
ATOM     42  O   UNL     1     113.140 130.847 138.724  0.00  0.00    +0.000 OA
BRANCH  40  43
ATOM     43  C   UNL     1     114.228 129.471 135.764  0.00  0.00    +0.000 C 
ATOM     44  O   UNL     1     113.821 129.436 135.353  0.00  0.00    +0.000 OA
ATOM     45  O   UNL     1     114.705 129.240 135.689  0.00  0.00    +0.000 OA
ENDBRANCH  40  43
ENDBRANCH  33  38
ENDBRANCH   3  33
TORSDOF 8
ENDMDL
MODEL 8
REMARK VINA RESULT:     -10.5      2.358      7.568
REMARK  Name = 
REMARK  8 active torsions:
REMARK  status: ('A' for Active; 'I' for Inactive)
REMARK    1  A    between atoms: C_1  and  O_18
REMARK    2  A    between atoms: C_9  and  C_12
REMARK    3  A    between atoms: C_15  and  O_40
REMARK    4  A    between atoms: O_18  and  C_23
REMARK    5  A    between atoms: C_22  and  O_28
REMARK    6  A    between atoms: C_25  and  C_38
REMARK    7  A    between atoms: O_28  and  C_33
REMARK    8  A    between atoms: C_35  and  C_39
REMARK                            x       y       z     vdW  Elec       q    Type
REMARK                         _______ _______ _______ _____ _____    ______ ____
ROOT
ATOM      1  C   UNL     1     110.632 126.120 139.492  0.00  0.00    +0.000 C 
ATOM      2  C   UNL     1     110.234 126.111 140.689  0.00  0.00    +0.000 C 
ATOM      3  C   UNL     1     109.059 126.137 140.638  0.00  0.00    +0.000 C 
ATOM      4  C   UNL     1     108.055 126.154 140.967  0.00  0.00    +0.000 C 
ATOM      5  O   UNL     1     108.535 126.158 139.993  0.00  0.00    +0.000 OA
ATOM      6  C   UNL     1     109.724 126.132 140.013  0.00  0.00    +0.000 C 
ATOM      7  O   UNL     1     111.636 126.097 139.559  0.00  0.00    +0.000 OA
ATOM      8  O   UNL     1     111.189 126.097 140.230  0.00  0.00    +0.000 OA
ENDROOT
BRANCH   6   9
ATOM      9  C   UNL     1     110.024 126.137 139.213  0.00  0.00    +0.000 C 
ATOM     10  O   UNL     1     110.127 126.473 138.816  0.00  0.00    +0.000 OA
ATOM     11  O   UNL     1     110.168 125.627 139.015  0.00  0.00    +0.000 OA
ENDBRANCH   6   9
BRANCH   4  12
ATOM     12  O   UNL     1     107.021 126.177 140.945  0.00  0.00    +0.000 OA
BRANCH  12  13
ATOM     13  C   UNL     1     106.389 125.456 140.868  0.00  0.00    +0.000 A 
ATOM     14  C   UNL     1     106.199 124.901 141.628  0.00  0.00    +0.000 A 
ATOM     15  C   UNL     1     105.567 124.181 141.551  0.00  0.00    +0.000 A 
ATOM     16  C   UNL     1     105.127 124.017 140.713  0.00  0.00    +0.000 A 
ATOM     17  C   UNL     1     105.317 124.572 139.953  0.00  0.00    +0.000 A 
ATOM     18  C   UNL     1     105.949 125.292 140.030  0.00  0.00    +0.000 A 
ATOM     19  C   UNL     1     104.494 123.296 140.635  0.00  0.00    +0.000 A 
ATOM     20  C   UNL     1     104.054 123.132 139.797  0.00  0.00    +0.000 A 
ATOM     21  C   UNL     1     104.245 123.687 139.037  0.00  0.00    +0.000 A 
ATOM     22  O   UNL     1     104.876 124.408 139.114  0.00  0.00    +0.000 OA
ATOM     23  O   UNL     1     104.303 122.739 141.398  0.00  0.00    +0.000 OA
ATOM     24  O   UNL     1     105.370 123.608 142.336  0.00  0.00    +0.000 OA
BRANCH  21  25
ATOM     25  C   UNL     1     103.804 123.523 138.199  0.00  0.00    +0.000 A 
ATOM     26  C   UNL     1     104.322 123.220 137.425  0.00  0.00    +0.000 A 
ATOM     27  C   UNL     1     103.874 123.053 136.571  0.00  0.00    +0.000 A 
ATOM     28  C   UNL     1     102.908 123.189 136.490  0.00  0.00    +0.000 A 
ATOM     29  C   UNL     1     102.389 123.492 137.264  0.00  0.00    +0.000 A 
ATOM     30  C   UNL     1     102.838 123.659 138.118  0.00  0.00    +0.000 A 
BRANCH  28  31
ATOM     31  O   UNL     1     102.459 123.022 135.636  0.00  0.00    +0.000 OA
ATOM     32  C   UNL     1     102.798 123.336 134.897  0.00  0.00    +0.000 C 
ENDBRANCH  28  31
ENDBRANCH  21  25
ENDBRANCH  12  13
ENDBRANCH   4  12
BRANCH   3  33
ATOM     33  O   UNL     1     108.314 126.137 141.725  0.00  0.00    +0.000 OA
BRANCH  33  38
ATOM     34  O   UNL     1     110.729 130.444 142.360  0.00  0.00    +0.000 OA
ATOM     35  C   UNL     1     110.401 129.482 142.602  0.00  0.00    +0.000 C 
ATOM     36  C   UNL     1     109.710 129.214 141.582  0.00  0.00    +0.000 C 
ATOM     37  C   UNL     1     109.286 128.130 141.757  0.00  0.00    +0.000 C 
ATOM     38  C   UNL     1     108.756 127.234 141.574  0.00  0.00    +0.000 C 
ATOM     39  O   UNL     1     109.378 127.596 142.388  0.00  0.00    +0.000 OA
ATOM     40  C   UNL     1     109.822 128.691 142.240  0.00  0.00    +0.000 C 
ATOM     41  O   UNL     1     110.187 129.976 141.783  0.00  0.00    +0.000 OA
ATOM     42  O   UNL     1     108.510 127.462 140.928  0.00  0.00    +0.000 OA
BRANCH  40  43
ATOM     43  C   UNL     1     110.537 129.180 143.113  0.00  0.00    +0.000 C 
ATOM     44  O   UNL     1     110.259 129.421 143.559  0.00  0.00    +0.000 OA
ATOM     45  O   UNL     1     111.073 129.180 143.099  0.00  0.00    +0.000 OA
ENDBRANCH  40  43
ENDBRANCH  33  38
ENDBRANCH   3  33
TORSDOF 8
ENDMDL
MODEL 9
REMARK VINA RESULT:     -10.5      4.312      9.052
REMARK  Name = 
REMARK  8 active torsions:
REMARK  status: ('A' for Active; 'I' for Inactive)
REMARK    1  A    between atoms: C_1  and  O_18
REMARK    2  A    between atoms: C_9  and  C_12
REMARK    3  A    between atoms: C_15  and  O_40
REMARK    4  A    between atoms: O_18  and  C_23
REMARK    5  A    between atoms: C_22  and  O_28
REMARK    6  A    between atoms: C_25  and  C_38
REMARK    7  A    between atoms: O_28  and  C_33
REMARK    8  A    between atoms: C_35  and  C_39
REMARK                            x       y       z     vdW  Elec       q    Type
REMARK                         _______ _______ _______ _____ _____    ______ ____
ROOT
ATOM      1  C   UNL     1     107.397 125.264 141.530  0.00  0.00    +0.000 C 
ATOM      2  C   UNL     1     106.283 125.375 142.111  0.00  0.00    +0.000 C 
ATOM      3  C   UNL     1     106.033 126.524 142.114  0.00  0.00    +0.000 C 
ATOM      4  C   UNL     1     105.504 127.421 142.294  0.00  0.00    +0.000 C 
ATOM      5  O   UNL     1     106.450 127.180 141.817  0.00  0.00    +0.000 OA
ATOM      6  C   UNL     1     106.729 126.023 141.800  0.00  0.00    +0.000 C 
ATOM      7  O   UNL     1     107.591 124.277 141.540  0.00  0.00    +0.000 OA
ATOM      8  O   UNL     1     106.911 124.555 141.870  0.00  0.00    +0.000 OA
ENDROOT
BRANCH   6   9
ATOM      9  C   UNL     1     107.482 125.917 141.411  0.00  0.00    +0.000 C 
ATOM     10  O   UNL     1     107.997 125.860 141.523  0.00  0.00    +0.000 OA
ATOM     11  O   UNL     1     107.452 125.898 140.846  0.00  0.00    +0.000 OA
ENDBRANCH   6   9
BRANCH   4  12
ATOM     12  O   UNL     1     105.265 128.427 142.307  0.00  0.00    +0.000 OA
BRANCH  12  13
ATOM     13  C   UNL     1     104.491 128.882 141.963  0.00  0.00    +0.000 A 
ATOM     14  C   UNL     1     104.074 128.577 141.154  0.00  0.00    +0.000 A 
ATOM     15  C   UNL     1     103.300 129.032 140.810  0.00  0.00    +0.000 A 
ATOM     16  C   UNL     1     102.945 129.793 141.278  0.00  0.00    +0.000 A 
ATOM     17  C   UNL     1     103.362 130.098 142.087  0.00  0.00    +0.000 A 
ATOM     18  C   UNL     1     104.135 129.643 142.430  0.00  0.00    +0.000 A 
ATOM     19  C   UNL     1     102.170 130.249 140.934  0.00  0.00    +0.000 A 
ATOM     20  C   UNL     1     101.815 131.009 141.402  0.00  0.00    +0.000 A 
ATOM     21  C   UNL     1     102.232 131.314 142.211  0.00  0.00    +0.000 A 
ATOM     22  O   UNL     1     103.005 130.859 142.554  0.00  0.00    +0.000 OA
ATOM     23  O   UNL     1     101.752 129.942 140.122  0.00  0.00    +0.000 OA
ATOM     24  O   UNL     1     102.870 128.717 139.974  0.00  0.00    +0.000 OA
BRANCH  21  25
ATOM     25  C   UNL     1     101.876 132.075 142.678  0.00  0.00    +0.000 A 
ATOM     26  C   UNL     1     101.362 131.946 143.502  0.00  0.00    +0.000 A 
ATOM     27  C   UNL     1     100.999 132.721 143.978  0.00  0.00    +0.000 A 
ATOM     28  C   UNL     1     101.150 133.624 143.631  0.00  0.00    +0.000 A 
ATOM     29  C   UNL     1     101.664 133.753 142.808  0.00  0.00    +0.000 A 
ATOM     30  C   UNL     1     102.027 132.978 142.331  0.00  0.00    +0.000 A 
BRANCH  28  31
ATOM     31  O   UNL     1     100.788 134.399 144.108  0.00  0.00    +0.000 OA
ATOM     32  C   UNL     1     101.086 134.602 144.901  0.00  0.00    +0.000 C 
ENDBRANCH  28  31
ENDBRANCH  21  25
ENDBRANCH  12  13
ENDBRANCH   4  12
BRANCH   3  33
ATOM     33  O   UNL     1     104.926 126.996 142.650  0.00  0.00    +0.000 OA
BRANCH  33  38
ATOM     34  O   UNL     1     106.882 124.856 146.697  0.00  0.00    +0.000 OA
ATOM     35  C   UNL     1     106.155 125.062 145.976  0.00  0.00    +0.000 C 
ATOM     36  C   UNL     1     106.775 125.891 145.256  0.00  0.00    +0.000 C 
ATOM     37  C   UNL     1     106.030 126.192 144.397  0.00  0.00    +0.000 C 
ATOM     38  C   UNL     1     105.661 126.673 143.531  0.00  0.00    +0.000 C 
ATOM     39  O   UNL     1     105.250 125.954 144.234  0.00  0.00    +0.000 OA
ATOM     40  C   UNL     1     105.981 125.630 145.115  0.00  0.00    +0.000 C 
ATOM     41  O   UNL     1     107.055 125.449 146.015  0.00  0.00    +0.000 OA
ATOM     42  O   UNL     1     106.278 127.042 143.421  0.00  0.00    +0.000 OA
BRANCH  40  43
ATOM     43  C   UNL     1     105.597 124.819 145.957  0.00  0.00    +0.000 C 
ATOM     44  O   UNL     1     105.298 125.040 146.400  0.00  0.00    +0.000 OA
ATOM     45  O   UNL     1     105.691 124.292 145.933  0.00  0.00    +0.000 OA
ENDBRANCH  40  43
ENDBRANCH  33  38
ENDBRANCH   3  33
TORSDOF 8
ENDMDL
MODEL 10
REMARK VINA RESULT:     -10.5      1.507      3.954
REMARK  Name = 
REMARK  8 active torsions:
REMARK  status: ('A' for Active; 'I' for Inactive)
REMARK    1  A    between atoms: C_1  and  O_18
REMARK    2  A    between atoms: C_9  and  C_12
REMARK    3  A    between atoms: C_15  and  O_40
REMARK    4  A    between atoms: O_18  and  C_23
REMARK    5  A    between atoms: C_22  and  O_28
REMARK    6  A    between atoms: C_25  and  C_38
REMARK    7  A    between atoms: O_28  and  C_33
REMARK    8  A    between atoms: C_35  and  C_39
REMARK                            x       y       z     vdW  Elec       q    Type
REMARK                         _______ _______ _______ _____ _____    ______ ____
ROOT
ATOM      1  C   UNL     1     105.698 124.107 140.603  0.00  0.00    +0.000 C 
ATOM      2  C   UNL     1     106.668 124.400 141.354  0.00  0.00    +0.000 C 
ATOM      3  C   UNL     1     107.301 125.198 140.767  0.00  0.00    +0.000 C 
ATOM      4  C   UNL     1     108.075 125.887 140.555  0.00  0.00    +0.000 C 
ATOM      5  O   UNL     1     107.197 125.542 140.017  0.00  0.00    +0.000 OA
ATOM      6  C   UNL     1     106.536 124.734 140.588  0.00  0.00    +0.000 C 
ATOM      7  O   UNL     1     105.171 123.426 141.125  0.00  0.00    +0.000 OA
ATOM      8  O   UNL     1     105.842 123.742 141.441  0.00  0.00    +0.000 OA
ENDROOT
BRANCH   6   9
ATOM      9  C   UNL     1     105.868 124.515 140.101  0.00  0.00    +0.000 C 
ATOM     10  O   UNL     1     105.349 124.610 140.050  0.00  0.00    +0.000 OA
ATOM     11  O   UNL     1     105.992 124.148 139.688  0.00  0.00    +0.000 OA
ENDBRANCH   6   9
BRANCH   4  12
ATOM     12  O   UNL     1     108.646 126.589 140.055  0.00  0.00    +0.000 OA
BRANCH  12  13
ATOM     13  C   UNL     1     109.557 126.541 139.751  0.00  0.00    +0.000 A 
ATOM     14  C   UNL     1     109.856 125.779 139.249  0.00  0.00    +0.000 A 
ATOM     15  C   UNL     1     110.767 125.731 138.945  0.00  0.00    +0.000 A 
ATOM     16  C   UNL     1     111.377 126.446 139.145  0.00  0.00    +0.000 A 
ATOM     17  C   UNL     1     111.078 127.207 139.647  0.00  0.00    +0.000 A 
ATOM     18  C   UNL     1     110.167 127.256 139.951  0.00  0.00    +0.000 A 
ATOM     19  C   UNL     1     112.289 126.398 138.841  0.00  0.00    +0.000 A 
ATOM     20  C   UNL     1     112.899 127.113 139.041  0.00  0.00    +0.000 A 
ATOM     21  C   UNL     1     112.600 127.874 139.543  0.00  0.00    +0.000 A 
ATOM     22  O   UNL     1     111.689 127.923 139.847  0.00  0.00    +0.000 OA
ATOM     23  O   UNL     1     112.589 125.634 138.337  0.00  0.00    +0.000 OA
ATOM     24  O   UNL     1     111.076 124.944 138.427  0.00  0.00    +0.000 OA
BRANCH  21  25
ATOM     25  C   UNL     1     113.210 128.589 139.742  0.00  0.00    +0.000 A 
ATOM     26  C   UNL     1     113.210 129.400 139.193  0.00  0.00    +0.000 A 
ATOM     27  C   UNL     1     113.832 130.129 139.396  0.00  0.00    +0.000 A 
ATOM     28  C   UNL     1     114.454 130.047 140.148  0.00  0.00    +0.000 A 
ATOM     29  C   UNL     1     114.455 129.236 140.697  0.00  0.00    +0.000 A 
ATOM     30  C   UNL     1     113.832 128.507 140.494  0.00  0.00    +0.000 A 
BRANCH  28  31
ATOM     31  O   UNL     1     115.076 130.775 140.351  0.00  0.00    +0.000 OA
ATOM     32  C   UNL     1     114.988 131.230 141.089  0.00  0.00    +0.000 C 
ENDBRANCH  28  31
ENDBRANCH  21  25
ENDBRANCH  12  13
ENDBRANCH   4  12
BRANCH   3  33
ATOM     33  O   UNL     1     108.400 125.725 141.269  0.00  0.00    +0.000 OA
BRANCH  33  38
ATOM     34  O   UNL     1     105.112 127.095 144.748  0.00  0.00    +0.000 OA
ATOM     35  C   UNL     1     105.968 126.636 144.363  0.00  0.00    +0.000 C 
ATOM     36  C   UNL     1     105.862 126.942 143.144  0.00  0.00    +0.000 C 
ATOM     37  C   UNL     1     106.796 126.464 142.610  0.00  0.00    +0.000 C 
ATOM     38  C   UNL     1     107.463 126.199 141.835  0.00  0.00    +0.000 C 
ATOM     39  O   UNL     1     107.428 126.011 142.905  0.00  0.00    +0.000 OA
ATOM     40  C   UNL     1     106.494 126.482 143.472  0.00  0.00    +0.000 C 
ATOM     41  O   UNL     1     105.308 127.149 143.850  0.00  0.00    +0.000 OA
ATOM     42  O   UNL     1     107.074 126.542 141.325  0.00  0.00    +0.000 OA
BRANCH  40  43
ATOM     43  C   UNL     1     106.375 126.319 144.686  0.00  0.00    +0.000 C 
ATOM     44  O   UNL     1     106.102 125.834 144.848  0.00  0.00    +0.000 OA
ATOM     45  O   UNL     1     106.556 126.661 145.056  0.00  0.00    +0.000 OA
ENDBRANCH  40  43
ENDBRANCH  33  38
ENDBRANCH   3  33
TORSDOF 8
ENDMDL
