MODEL 1
REMARK VINA RESULT:      -8.0      0.000      0.000
REMARK  Name = 386324
REMARK  4 active torsions:
REMARK  status: ('A' for Active; 'I' for Inactive)
REMARK    1  A    between atoms: O_4  and  C_12
REMARK    2  A    between atoms: O_5  and  C_16
REMARK    3  A    between atoms: O_6  and  C_21
REMARK    4  A    between atoms: C_8  and  C_10
REMARK                            x       y       z     vdW  Elec       q    Type
REMARK                         _______ _______ _______ _____ _____    ______ ____
ROOT
ATOM      1  O   UNL     1     103.747 124.739 147.792  0.00  0.00    +0.000 OA
ATOM      2  O   UNL     1     103.519 123.718 145.549  0.00  0.00    +0.000 OA
ATOM      3  C   UNL     1     104.416 124.619 147.324  0.00  0.00    +0.000 A 
ATOM      4  C   UNL     1     102.927 124.178 146.765  0.00  0.00    +0.000 A 
ATOM      5  C   UNL     1     103.003 124.518 147.513  0.00  0.00    +0.000 A 
ATOM      6  C   UNL     1     104.340 124.279 146.576  0.00  0.00    +0.000 A 
ATOM      7  C   UNL     1     103.595 124.058 146.297  0.00  0.00    +0.000 A 
ATOM      8  C   UNL     1     102.157 123.945 146.463  0.00  0.00    +0.000 A 
ATOM      9  C   UNL     1     102.314 124.649 148.011  0.00  0.00    +0.000 A 
ATOM     10  C   UNL     1     101.537 124.421 147.725  0.00  0.00    +0.000 A 
ATOM     11  C   UNL     1     101.458 124.067 146.946  0.00  0.00    +0.000 A 
ENDROOT
BRANCH   3  14
ATOM     12  O   UNL     1     106.907 124.135 148.786  0.00  0.00    +0.000 OA
ATOM     13  O   UNL     1     107.390 125.340 148.508  0.00  0.00    +0.000 OA
ATOM     14  C   UNL     1     105.160 124.839 147.603  0.00  0.00    +0.000 A 
ATOM     15  C   UNL     1     106.349 124.531 148.334  0.00  0.00    +0.000 A 
ATOM     16  C   UNL     1     105.605 124.311 148.055  0.00  0.00    +0.000 A 
ATOM     17  C   UNL     1     106.649 125.280 148.161  0.00  0.00    +0.000 A 
ATOM     18  C   UNL     1     105.460 125.588 147.430  0.00  0.00    +0.000 A 
ATOM     19  C   UNL     1     106.205 125.808 147.709  0.00  0.00    +0.000 A 
ATOM     20  C   UNL     1     107.549 124.634 148.893  0.00  0.00    +0.000 C 
ENDBRANCH   3  14
BRANCH   6  21
ATOM     21  O   UNL     1     105.008 124.158 146.108  0.00  0.00    +0.000 OA
ATOM     22  C   UNL     1     104.939 124.144 145.286  0.00  0.00    +0.000 C 
ENDBRANCH   6  21
BRANCH   8  23
ATOM     23  O   UNL     1     102.091 123.605 145.714  0.00  0.00    +0.000 OA
ATOM     24  C   UNL     1     101.390 123.231 145.492  0.00  0.00    +0.000 C 
ENDBRANCH   8  23
BRANCH  10  25
ATOM     25  O   UNL     1     100.870 124.542 148.196  0.00  0.00    +0.000 OA
ATOM     26  C   UNL     1     100.783 124.128 148.903  0.00  0.00    +0.000 C 
ENDBRANCH  10  25
TORSDOF 4
ENDMDL
MODEL 2
REMARK VINA RESULT:      -7.8      1.025      2.161
REMARK  Name = 386324
REMARK  4 active torsions:
REMARK  status: ('A' for Active; 'I' for Inactive)
REMARK    1  A    between atoms: O_4  and  C_12
REMARK    2  A    between atoms: O_5  and  C_16
REMARK    3  A    between atoms: O_6  and  C_21
REMARK    4  A    between atoms: C_8  and  C_10
REMARK                            x       y       z     vdW  Elec       q    Type
REMARK                         _______ _______ _______ _____ _____    ______ ____
ROOT
ATOM      1  O   UNL     1     104.991 124.235 146.847  0.00  0.00    +0.000 OA
ATOM      2  O   UNL     1     103.352 125.664 148.028  0.00  0.00    +0.000 OA
ATOM      3  C   UNL     1     105.254 124.836 147.348  0.00  0.00    +0.000 A 
ATOM      4  C   UNL     1     103.637 124.587 147.134  0.00  0.00    +0.000 A 
ATOM      5  C   UNL     1     104.183 124.110 146.740  0.00  0.00    +0.000 A 
ATOM      6  C   UNL     1     104.707 125.312 147.742  0.00  0.00    +0.000 A 
ATOM      7  C   UNL     1     103.898 125.188 147.635  0.00  0.00    +0.000 A 
ATOM      8  C   UNL     1     102.792 124.467 147.030  0.00  0.00    +0.000 A 
ATOM      9  C   UNL     1     103.923 123.481 146.215  0.00  0.00    +0.000 A 
ATOM     10  C   UNL     1     103.082 123.347 146.100  0.00  0.00    +0.000 A 
ATOM     11  C   UNL     1     102.513 123.843 146.509  0.00  0.00    +0.000 A 
ENDROOT
BRANCH   3  14
ATOM     12  O   UNL     1     107.802 124.412 148.727  0.00  0.00    +0.000 OA
ATOM     13  O   UNL     1     108.463 125.224 147.910  0.00  0.00    +0.000 OA
ATOM     14  C   UNL     1     106.062 124.960 147.456  0.00  0.00    +0.000 A 
ATOM     15  C   UNL     1     107.268 124.705 148.178  0.00  0.00    +0.000 A 
ATOM     16  C   UNL     1     106.460 124.580 148.071  0.00  0.00    +0.000 A 
ATOM     17  C   UNL     1     107.679 125.209 147.670  0.00  0.00    +0.000 A 
ATOM     18  C   UNL     1     106.472 125.465 146.948  0.00  0.00    +0.000 A 
ATOM     19  C   UNL     1     107.281 125.589 147.055  0.00  0.00    +0.000 A 
ATOM     20  C   UNL     1     108.539 124.732 148.562  0.00  0.00    +0.000 C 
ENDBRANCH   3  14
BRANCH   6  21
ATOM     21  O   UNL     1     104.969 125.913 148.243  0.00  0.00    +0.000 OA
ATOM     22  C   UNL     1     104.440 126.280 148.759  0.00  0.00    +0.000 C 
ENDBRANCH   6  21
BRANCH   8  23
ATOM     23  O   UNL     1     102.253 124.948 147.428  0.00  0.00    +0.000 OA
ATOM     24  C   UNL     1     101.486 124.679 147.570  0.00  0.00    +0.000 C 
ENDBRANCH   8  23
BRANCH  10  25
ATOM     25  O   UNL     1     102.823 122.745 145.598  0.00  0.00    +0.000 OA
ATOM     26  C   UNL     1     103.052 122.740 144.806  0.00  0.00    +0.000 C 
ENDBRANCH  10  25
TORSDOF 4
ENDMDL
MODEL 3
REMARK VINA RESULT:      -7.8     13.495     15.302
REMARK  Name = 386324
REMARK  4 active torsions:
REMARK  status: ('A' for Active; 'I' for Inactive)
REMARK    1  A    between atoms: O_4  and  C_12
REMARK    2  A    between atoms: O_5  and  C_16
REMARK    3  A    between atoms: O_6  and  C_21
REMARK    4  A    between atoms: C_8  and  C_10
REMARK                            x       y       z     vdW  Elec       q    Type
REMARK                         _______ _______ _______ _____ _____    ______ ____
ROOT
ATOM      1  O   UNL     1     113.830 127.737 136.455  0.00  0.00    +0.000 OA
ATOM      2  O   UNL     1     111.533 127.508 135.561  0.00  0.00    +0.000 OA
ATOM      3  C   UNL     1     113.480 128.366 136.050  0.00  0.00    +0.000 A 
ATOM      4  C   UNL     1     112.649 126.956 136.263  0.00  0.00    +0.000 A 
ATOM      5  C   UNL     1     113.414 127.033 136.561  0.00  0.00    +0.000 A 
ATOM      6  C   UNL     1     112.715 128.289 135.752  0.00  0.00    +0.000 A 
ATOM      7  C   UNL     1     112.298 127.584 135.859  0.00  0.00    +0.000 A 
ATOM      8  C   UNL     1     112.206 126.227 136.368  0.00  0.00    +0.000 A 
ATOM      9  C   UNL     1     113.790 126.385 136.984  0.00  0.00    +0.000 A 
ATOM     10  C   UNL     1     113.362 125.649 137.098  0.00  0.00    +0.000 A 
ATOM     11  C   UNL     1     112.565 125.570 136.788  0.00  0.00    +0.000 A 
ENDROOT
BRANCH   3  14
ATOM     12  O   UNL     1     115.344 130.108 134.613  0.00  0.00    +0.000 OA
ATOM     13  O   UNL     1     115.202 131.101 135.484  0.00  0.00    +0.000 OA
ATOM     14  C   UNL     1     113.896 129.070 135.944  0.00  0.00    +0.000 A 
ATOM     15  C   UNL     1     114.815 129.862 135.190  0.00  0.00    +0.000 A 
ATOM     16  C   UNL     1     114.400 129.158 135.296  0.00  0.00    +0.000 A 
ATOM     17  C   UNL     1     114.727 130.479 135.730  0.00  0.00    +0.000 A 
ATOM     18  C   UNL     1     113.807 129.687 136.484  0.00  0.00    +0.000 A 
ATOM     19  C   UNL     1     114.223 130.392 136.378  0.00  0.00    +0.000 A 
ATOM     20  C   UNL     1     115.583 130.871 134.795  0.00  0.00    +0.000 C 
ENDBRANCH   3  14
BRANCH   6  21
ATOM     21  O   UNL     1     112.364 128.917 135.348  0.00  0.00    +0.000 OA
ATOM     22  C   UNL     1     111.753 128.774 134.813  0.00  0.00    +0.000 C 
ENDBRANCH   6  21
BRANCH   8  23
ATOM     23  O   UNL     1     111.440 126.160 136.067  0.00  0.00    +0.000 OA
ATOM     24  C   UNL     1     111.036 125.443 136.125  0.00  0.00    +0.000 C 
ENDBRANCH   8  23
BRANCH  10  25
ATOM     25  O   UNL     1     113.714 125.023 137.503  0.00  0.00    +0.000 OA
ATOM     26  C   UNL     1     114.459 124.752 137.277  0.00  0.00    +0.000 C 
ENDBRANCH  10  25
TORSDOF 4
ENDMDL
MODEL 4
REMARK VINA RESULT:      -7.8     12.953     15.049
REMARK  Name = 386324
REMARK  4 active torsions:
REMARK  status: ('A' for Active; 'I' for Inactive)
REMARK    1  A    between atoms: O_4  and  C_12
REMARK    2  A    between atoms: O_5  and  C_16
REMARK    3  A    between atoms: O_6  and  C_21
REMARK    4  A    between atoms: C_8  and  C_10
REMARK                            x       y       z     vdW  Elec       q    Type
REMARK                         _______ _______ _______ _____ _____    ______ ____
ROOT
ATOM      1  O   UNL     1     113.732 127.502 136.103  0.00  0.00    +0.000 OA
ATOM      2  O   UNL     1     112.878 128.801 138.029  0.00  0.00    +0.000 OA
ATOM      3  C   UNL     1     113.430 127.110 136.763  0.00  0.00    +0.000 A 
ATOM      4  C   UNL     1     113.465 128.759 136.727  0.00  0.00    +0.000 A 
ATOM      5  C   UNL     1     113.749 128.326 136.084  0.00  0.00    +0.000 A 
ATOM      6  C   UNL     1     113.146 127.543 137.405  0.00  0.00    +0.000 A 
ATOM      7  C   UNL     1     113.163 128.368 137.387  0.00  0.00    +0.000 A 
ATOM      8  C   UNL     1     113.477 129.619 136.719  0.00  0.00    +0.000 A 
ATOM      9  C   UNL     1     114.066 128.723 135.391  0.00  0.00    +0.000 A 
ATOM     10  C   UNL     1     114.087 129.581 135.366  0.00  0.00    +0.000 A 
ATOM     11  C   UNL     1     113.790 130.032 136.034  0.00  0.00    +0.000 A 
ENDROOT
BRANCH   3  14
ATOM     12  O   UNL     1     112.133 124.514 136.370  0.00  0.00    +0.000 OA
ATOM     13  O   UNL     1     113.200 123.837 136.778  0.00  0.00    +0.000 OA
ATOM     14  C   UNL     1     113.413 126.286 136.782  0.00  0.00    +0.000 A 
ATOM     15  C   UNL     1     112.716 125.057 136.565  0.00  0.00    +0.000 A 
ATOM     16  C   UNL     1     112.733 125.881 136.547  0.00  0.00    +0.000 A 
ATOM     17  C   UNL     1     113.378 124.637 136.819  0.00  0.00    +0.000 A 
ATOM     18  C   UNL     1     114.076 125.865 137.035  0.00  0.00    +0.000 A 
ATOM     19  C   UNL     1     114.059 125.040 137.054  0.00  0.00    +0.000 A 
ATOM     20  C   UNL     1     112.432 123.762 136.501  0.00  0.00    +0.000 C 
ENDBRANCH   3  14
BRANCH   6  21
ATOM     21  O   UNL     1     112.844 127.152 138.066  0.00  0.00    +0.000 OA
ATOM     22  C   UNL     1     112.837 127.527 138.801  0.00  0.00    +0.000 C 
ENDBRANCH   6  21
BRANCH   8  23
ATOM     23  O   UNL     1     113.190 130.043 137.366  0.00  0.00    +0.000 OA
ATOM     24  C   UNL     1     113.108 130.863 137.318  0.00  0.00    +0.000 C 
ENDBRANCH   8  23
BRANCH  10  25
ATOM     25  O   UNL     1     114.389 129.970 134.704  0.00  0.00    +0.000 OA
ATOM     26  C   UNL     1     115.204 130.057 134.613  0.00  0.00    +0.000 C 
ENDBRANCH  10  25
TORSDOF 4
ENDMDL
MODEL 5
REMARK VINA RESULT:      -7.7      1.191      4.473
REMARK  Name = 386324
REMARK  4 active torsions:
REMARK  status: ('A' for Active; 'I' for Inactive)
REMARK    1  A    between atoms: O_4  and  C_12
REMARK    2  A    between atoms: O_5  and  C_16
REMARK    3  A    between atoms: O_6  and  C_21
REMARK    4  A    between atoms: C_8  and  C_10
REMARK                            x       y       z     vdW  Elec       q    Type
REMARK                         _______ _______ _______ _____ _____    ______ ____
ROOT
ATOM      1  O   UNL     1     104.932 124.132 147.341  0.00  0.00    +0.000 OA
ATOM      2  O   UNL     1     106.143 125.570 145.731  0.00  0.00    +0.000 OA
ATOM      3  C   UNL     1     104.638 124.232 146.576  0.00  0.00    +0.000 A 
ATOM      4  C   UNL     1     106.032 124.989 147.032  0.00  0.00    +0.000 A 
ATOM      5  C   UNL     1     105.628 124.510 147.569  0.00  0.00    +0.000 A 
ATOM      6  C   UNL     1     105.042 124.711 146.039  0.00  0.00    +0.000 A 
ATOM      7  C   UNL     1     105.739 125.090 146.267  0.00  0.00    +0.000 A 
ATOM      8  C   UNL     1     106.759 125.389 147.258  0.00  0.00    +0.000 A 
ATOM      9  C   UNL     1     105.923 124.397 148.368  0.00  0.00    +0.000 A 
ATOM     10  C   UNL     1     106.648 124.789 148.611  0.00  0.00    +0.000 A 
ATOM     11  C   UNL     1     107.068 125.288 148.053  0.00  0.00    +0.000 A 
ENDROOT
BRANCH   3  14
ATOM     12  O   UNL     1     101.724 124.019 146.378  0.00  0.00    +0.000 OA
ATOM     13  O   UNL     1     101.780 122.857 145.738  0.00  0.00    +0.000 OA
ATOM     14  C   UNL     1     103.942 123.854 146.348  0.00  0.00    +0.000 A 
ATOM     15  C   UNL     1     102.515 123.819 146.289  0.00  0.00    +0.000 A 
ATOM     16  C   UNL     1     103.211 124.197 146.517  0.00  0.00    +0.000 A 
ATOM     17  C   UNL     1     102.549 123.097 145.891  0.00  0.00    +0.000 A 
ATOM     18  C   UNL     1     103.977 123.132 145.950  0.00  0.00    +0.000 A 
ATOM     19  C   UNL     1     103.279 122.753 145.722  0.00  0.00    +0.000 A 
ATOM     20  C   UNL     1     101.272 123.426 146.038  0.00  0.00    +0.000 C 
ENDBRANCH   3  14
BRANCH   6  21
ATOM     21  O   UNL     1     104.750 124.813 145.275  0.00  0.00    +0.000 OA
ATOM     22  C   UNL     1     105.268 124.966 144.651  0.00  0.00    +0.000 C 
ENDBRANCH   6  21
BRANCH   8  23
ATOM     23  O   UNL     1     107.155 125.866 146.714  0.00  0.00    +0.000 OA
ATOM     24  C   UNL     1     107.840 126.268 146.941  0.00  0.00    +0.000 C 
ENDBRANCH   8  23
BRANCH  10  25
ATOM     25  O   UNL     1     106.939 124.686 149.376  0.00  0.00    +0.000 OA
ATOM     26  C   UNL     1     107.234 123.953 149.611  0.00  0.00    +0.000 C 
ENDBRANCH  10  25
TORSDOF 4
ENDMDL
MODEL 6
REMARK VINA RESULT:      -7.6     12.963     14.248
REMARK  Name = 386324
REMARK  4 active torsions:
REMARK  status: ('A' for Active; 'I' for Inactive)
REMARK    1  A    between atoms: O_4  and  C_12
REMARK    2  A    between atoms: O_5  and  C_16
REMARK    3  A    between atoms: O_6  and  C_21
REMARK    4  A    between atoms: C_8  and  C_10
REMARK                            x       y       z     vdW  Elec       q    Type
REMARK                         _______ _______ _______ _____ _____    ______ ____
ROOT
ATOM      1  O   UNL     1     111.221 126.106 135.972  0.00  0.00    +0.000 OA
ATOM      2  O   UNL     1     113.497 126.966 136.425  0.00  0.00    +0.000 OA
ATOM      3  C   UNL     1     111.382 126.911 135.886  0.00  0.00    +0.000 A 
ATOM      4  C   UNL     1     112.576 125.875 136.359  0.00  0.00    +0.000 A 
ATOM      5  C   UNL     1     111.818 125.588 136.208  0.00  0.00    +0.000 A 
ATOM      6  C   UNL     1     112.141 127.197 136.037  0.00  0.00    +0.000 A 
ATOM      7  C   UNL     1     112.739 126.679 136.274  0.00  0.00    +0.000 A 
ATOM      8  C   UNL     1     113.207 125.345 136.606  0.00  0.00    +0.000 A 
ATOM      9  C   UNL     1     111.637 124.752 136.293  0.00  0.00    +0.000 A 
ATOM     10  C   UNL     1     112.254 124.208 136.539  0.00  0.00    +0.000 A 
ATOM     11  C   UNL     1     113.044 124.506 136.697  0.00  0.00    +0.000 A 
ENDROOT
BRANCH   3  14
ATOM     12  O   UNL     1     109.126 128.706 136.398  0.00  0.00    +0.000 OA
ATOM     13  O   UNL     1     108.964 128.989 135.110  0.00  0.00    +0.000 OA
ATOM     14  C   UNL     1     110.786 127.428 135.650  0.00  0.00    +0.000 A 
ATOM     15  C   UNL     1     109.693 128.289 135.976  0.00  0.00    +0.000 A 
ATOM     16  C   UNL     1     110.289 127.772 136.212  0.00  0.00    +0.000 A 
ATOM     17  C   UNL     1     109.592 128.465 135.176  0.00  0.00    +0.000 A 
ATOM     18  C   UNL     1     110.685 127.604 134.850  0.00  0.00    +0.000 A 
ATOM     19  C   UNL     1     110.088 128.122 134.613  0.00  0.00    +0.000 A 
ATOM     20  C   UNL     1     108.677 129.137 135.864  0.00  0.00    +0.000 C 
ENDBRANCH   3  14
BRANCH   6  21
ATOM     21  O   UNL     1     112.303 128.001 135.952  0.00  0.00    +0.000 OA
ATOM     22  C   UNL     1     112.956 128.334 136.332  0.00  0.00    +0.000 C 
ENDBRANCH   6  21
BRANCH   8  23
ATOM     23  O   UNL     1     113.962 125.641 136.755  0.00  0.00    +0.000 OA
ATOM     24  C   UNL     1     114.579 125.124 136.939  0.00  0.00    +0.000 C 
ENDBRANCH   8  23
BRANCH  10  25
ATOM     25  O   UNL     1     112.090 123.404 136.624  0.00  0.00    +0.000 OA
ATOM     26  C   UNL     1     111.829 123.110 137.349  0.00  0.00    +0.000 C 
ENDBRANCH  10  25
TORSDOF 4
ENDMDL
MODEL 7
REMARK VINA RESULT:      -7.6     11.175     13.096
REMARK  Name = 386324
REMARK  4 active torsions:
REMARK  status: ('A' for Active; 'I' for Inactive)
REMARK    1  A    between atoms: O_4  and  C_12
REMARK    2  A    between atoms: O_5  and  C_16
REMARK    3  A    between atoms: O_6  and  C_21
REMARK    4  A    between atoms: C_8  and  C_10
REMARK                            x       y       z     vdW  Elec       q    Type
REMARK                         _______ _______ _______ _____ _____    ______ ____
ROOT
ATOM      1  O   UNL     1     113.839 126.385 138.597  0.00  0.00    +0.000 OA
ATOM      2  O   UNL     1     111.606 125.329 138.435  0.00  0.00    +0.000 OA
ATOM      3  C   UNL     1     113.235 126.618 139.109  0.00  0.00    +0.000 A 
ATOM      4  C   UNL     1     112.955 125.449 137.978  0.00  0.00    +0.000 A 
ATOM      5  C   UNL     1     113.699 125.801 138.032  0.00  0.00    +0.000 A 
ATOM      6  C   UNL     1     112.491 126.266 139.055  0.00  0.00    +0.000 A 
ATOM      7  C   UNL     1     112.350 125.681 138.489  0.00  0.00    +0.000 A 
ATOM      8  C   UNL     1     112.797 124.839 137.393  0.00  0.00    +0.000 A 
ATOM      9  C   UNL     1     114.337 125.567 137.506  0.00  0.00    +0.000 A 
ATOM     10  C   UNL     1     114.198 124.959 136.915  0.00  0.00    +0.000 A 
ATOM     11  C   UNL     1     113.423 124.593 136.859  0.00  0.00    +0.000 A 
ENDROOT
BRANCH   3  14
ATOM     12  O   UNL     1     113.387 129.401 140.008  0.00  0.00    +0.000 OA
ATOM     13  O   UNL     1     113.752 129.060 141.239  0.00  0.00    +0.000 OA
ATOM     14  C   UNL     1     113.374 127.202 139.674  0.00  0.00    +0.000 A 
ATOM     15  C   UNL     1     113.427 128.582 140.040  0.00  0.00    +0.000 A 
ATOM     16  C   UNL     1     113.288 127.998 139.475  0.00  0.00    +0.000 A 
ATOM     17  C   UNL     1     113.654 128.370 140.805  0.00  0.00    +0.000 A 
ATOM     18  C   UNL     1     113.601 126.990 140.438  0.00  0.00    +0.000 A 
ATOM     19  C   UNL     1     113.741 127.575 141.004  0.00  0.00    +0.000 A 
ATOM     20  C   UNL     1     113.587 129.695 140.747  0.00  0.00    +0.000 C 
ENDBRANCH   3  14
BRANCH   6  21
ATOM     21  O   UNL     1     111.886 126.498 139.565  0.00  0.00    +0.000 OA
ATOM     22  C   UNL     1     111.097 126.389 139.349  0.00  0.00    +0.000 C 
ENDBRANCH   6  21
BRANCH   8  23
ATOM     23  O   UNL     1     112.050 124.493 137.347  0.00  0.00    +0.000 OA
ATOM     24  C   UNL     1     111.910 123.886 136.806  0.00  0.00    +0.000 C 
ENDBRANCH   8  23
BRANCH  10  25
ATOM     25  O   UNL     1     114.804 124.729 136.405  0.00  0.00    +0.000 OA
ATOM     26  C   UNL     1     115.160 125.283 135.910  0.00  0.00    +0.000 C 
ENDBRANCH  10  25
TORSDOF 4
ENDMDL
MODEL 8
REMARK VINA RESULT:      -7.6     13.155     14.202
REMARK  Name = 386324
REMARK  4 active torsions:
REMARK  status: ('A' for Active; 'I' for Inactive)
REMARK    1  A    between atoms: O_4  and  C_12
REMARK    2  A    between atoms: O_5  and  C_16
REMARK    3  A    between atoms: O_6  and  C_21
REMARK    4  A    between atoms: C_8  and  C_10
REMARK                            x       y       z     vdW  Elec       q    Type
REMARK                         _______ _______ _______ _____ _____    ______ ____
ROOT
ATOM      1  O   UNL     1     112.089 127.308 135.906  0.00  0.00    +0.000 OA
ATOM      2  O   UNL     1     112.847 125.607 137.537  0.00  0.00    +0.000 OA
ATOM      3  C   UNL     1     112.691 127.489 136.441  0.00  0.00    +0.000 A 
ATOM      4  C   UNL     1     111.993 125.994 136.458  0.00  0.00    +0.000 A 
ATOM      5  C   UNL     1     111.740 126.561 135.915  0.00  0.00    +0.000 A 
ATOM      6  C   UNL     1     112.944 126.922 136.985  0.00  0.00    +0.000 A 
ATOM      7  C   UNL     1     112.595 126.174 136.993  0.00  0.00    +0.000 A 
ATOM      8  C   UNL     1     111.637 125.212 136.477  0.00  0.00    +0.000 A 
ATOM      9  C   UNL     1     111.114 126.385 135.353  0.00  0.00    +0.000 A 
ATOM     10  C   UNL     1     110.747 125.609 135.357  0.00  0.00    +0.000 A 
ATOM     11  C   UNL     1     111.010 125.018 135.923  0.00  0.00    +0.000 A 
ENDROOT
BRANCH   3  14
ATOM     12  O   UNL     1     112.863 130.303 137.236  0.00  0.00    +0.000 OA
ATOM     13  O   UNL     1     113.957 130.516 136.514  0.00  0.00    +0.000 OA
ATOM     14  C   UNL     1     113.040 128.236 136.433  0.00  0.00    +0.000 A 
ATOM     15  C   UNL     1     113.059 129.598 136.864  0.00  0.00    +0.000 A 
ATOM     16  C   UNL     1     112.710 128.852 136.872  0.00  0.00    +0.000 A 
ATOM     17  C   UNL     1     113.739 129.731 136.415  0.00  0.00    +0.000 A 
ATOM     18  C   UNL     1     113.720 128.368 135.984  0.00  0.00    +0.000 A 
ATOM     19  C   UNL     1     114.070 129.116 135.975  0.00  0.00    +0.000 A 
ATOM     20  C   UNL     1     113.417 130.868 137.020  0.00  0.00    +0.000 C 
ENDBRANCH   3  14
BRANCH   6  21
ATOM     21  O   UNL     1     113.546 127.102 137.519  0.00  0.00    +0.000 OA
ATOM     22  C   UNL     1     113.575 126.723 138.251  0.00  0.00    +0.000 C 
ENDBRANCH   6  21
BRANCH   8  23
ATOM     23  O   UNL     1     111.896 124.652 137.024  0.00  0.00    +0.000 OA
ATOM     24  C   UNL     1     111.778 123.848 136.879  0.00  0.00    +0.000 C 
ENDBRANCH   8  23
BRANCH  10  25
ATOM     25  O   UNL     1     110.145 125.431 134.821  0.00  0.00    +0.000 OA
ATOM     26  C   UNL     1     109.444 125.864 134.829  0.00  0.00    +0.000 C 
ENDBRANCH  10  25
TORSDOF 4
ENDMDL
MODEL 9
REMARK VINA RESULT:      -7.6     13.479     14.272
REMARK  Name = 386324
REMARK  4 active torsions:
REMARK  status: ('A' for Active; 'I' for Inactive)
REMARK    1  A    between atoms: O_4  and  C_12
REMARK    2  A    between atoms: O_5  and  C_16
REMARK    3  A    between atoms: O_6  and  C_21
REMARK    4  A    between atoms: C_8  and  C_10
REMARK                            x       y       z     vdW  Elec       q    Type
REMARK                         _______ _______ _______ _____ _____    ______ ____
ROOT
ATOM      1  O   UNL     1     112.272 126.821 136.303  0.00  0.00    +0.000 OA
ATOM      2  O   UNL     1     110.851 124.893 135.679  0.00  0.00    +0.000 OA
ATOM      3  C   UNL     1     111.582 126.942 135.867  0.00  0.00    +0.000 A 
ATOM      4  C   UNL     1     112.015 125.416 136.323  0.00  0.00    +0.000 A 
ATOM      5  C   UNL     1     112.489 126.059 136.531  0.00  0.00    +0.000 A 
ATOM      6  C   UNL     1     111.108 126.299 135.659  0.00  0.00    +0.000 A 
ATOM      7  C   UNL     1     111.325 125.536 135.887  0.00  0.00    +0.000 A 
ATOM      8  C   UNL     1     112.230 124.617 136.554  0.00  0.00    +0.000 A 
ATOM      9  C   UNL     1     113.210 125.947 136.984  0.00  0.00    +0.000 A 
ATOM     10  C   UNL     1     113.441 125.155 137.224  0.00  0.00    +0.000 A 
ATOM     11  C   UNL     1     112.948 124.486 137.008  0.00  0.00    +0.000 A 
ENDROOT
BRANCH   3  14
ATOM     12  O   UNL     1     110.198 129.492 136.260  0.00  0.00    +0.000 OA
ATOM     13  O   UNL     1     110.630 129.989 135.107  0.00  0.00    +0.000 OA
ATOM     14  C   UNL     1     111.365 127.704 135.639  0.00  0.00    +0.000 A 
ATOM     15  C   UNL     1     110.663 128.921 135.900  0.00  0.00    +0.000 A 
ATOM     16  C   UNL     1     110.880 128.159 136.128  0.00  0.00    +0.000 A 
ATOM     17  C   UNL     1     110.932 129.229 135.183  0.00  0.00    +0.000 A 
ATOM     18  C   UNL     1     111.634 128.012 134.923  0.00  0.00    +0.000 A 
ATOM     19  C   UNL     1     111.417 128.775 134.694  0.00  0.00    +0.000 A 
ATOM     20  C   UNL     1     110.177 130.150 135.771  0.00  0.00    +0.000 C 
ENDBRANCH   3  14
BRANCH   6  21
ATOM     21  O   UNL     1     110.418 126.418 135.224  0.00  0.00    +0.000 OA
ATOM     22  C   UNL     1     110.101 125.803 134.774  0.00  0.00    +0.000 C 
ENDBRANCH   6  21
BRANCH   8  23
ATOM     23  O   UNL     1     111.750 123.980 136.342  0.00  0.00    +0.000 OA
ATOM     24  C   UNL     1     111.864 123.242 136.694  0.00  0.00    +0.000 C 
ENDBRANCH   8  23
BRANCH  10  25
ATOM     25  O   UNL     1     114.131 125.038 137.660  0.00  0.00    +0.000 OA
ATOM     26  C   UNL     1     114.856 124.962 137.273  0.00  0.00    +0.000 C 
ENDBRANCH  10  25
TORSDOF 4
ENDMDL
MODEL 10
REMARK VINA RESULT:      -7.6      7.797      8.943
REMARK  Name = 386324
REMARK  4 active torsions:
REMARK  status: ('A' for Active; 'I' for Inactive)
REMARK    1  A    between atoms: O_4  and  C_12
REMARK    2  A    between atoms: O_5  and  C_16
REMARK    3  A    between atoms: O_6  and  C_21
REMARK    4  A    between atoms: C_8  and  C_10
REMARK                            x       y       z     vdW  Elec       q    Type
REMARK                         _______ _______ _______ _____ _____    ______ ____
ROOT
ATOM      1  O   UNL     1     103.163 130.573 142.664  0.00  0.00    +0.000 OA
ATOM      2  O   UNL     1     103.420 129.075 140.710  0.00  0.00    +0.000 OA
ATOM      3  C   UNL     1     102.745 130.727 141.969  0.00  0.00    +0.000 A 
ATOM      4  C   UNL     1     103.752 129.422 142.056  0.00  0.00    +0.000 A 
ATOM      5  C   UNL     1     103.666 129.921 142.707  0.00  0.00    +0.000 A 
ATOM      6  C   UNL     1     102.831 130.227 141.318  0.00  0.00    +0.000 A 
ATOM      7  C   UNL     1     103.334 129.575 141.361  0.00  0.00    +0.000 A 
ATOM      8  C   UNL     1     104.273 128.739 142.089  0.00  0.00    +0.000 A 
ATOM      9  C   UNL     1     104.096 129.772 143.437  0.00  0.00    +0.000 A 
ATOM     10  C   UNL     1     104.621 129.095 143.488  0.00  0.00    +0.000 A 
ATOM     11  C   UNL     1     104.710 128.575 142.810  0.00  0.00    +0.000 A 
ENDROOT
BRANCH   3  14
ATOM     12  O   UNL     1     102.161 133.544 141.426  0.00  0.00    +0.000 OA
ATOM     13  O   UNL     1     100.877 133.415 141.742  0.00  0.00    +0.000 OA
ATOM     14  C   UNL     1     102.242 131.378 141.925  0.00  0.00    +0.000 A 
ATOM     15  C   UNL     1     102.033 132.763 141.641  0.00  0.00    +0.000 A 
ATOM     16  C   UNL     1     102.536 132.111 141.685  0.00  0.00    +0.000 A 
ATOM     17  C   UNL     1     101.235 132.683 141.838  0.00  0.00    +0.000 A 
ATOM     18  C   UNL     1     101.445 131.298 142.121  0.00  0.00    +0.000 A 
ATOM     19  C   UNL     1     100.941 131.951 142.078  0.00  0.00    +0.000 A 
ATOM     20  C   UNL     1     101.448 133.946 141.489  0.00  0.00    +0.000 C 
ENDBRANCH   3  14
BRANCH   6  21
ATOM     21  O   UNL     1     102.413 130.380 140.623  0.00  0.00    +0.000 OA
ATOM     22  C   UNL     1     102.275 129.772 140.082  0.00  0.00    +0.000 C 
ENDBRANCH   6  21
BRANCH   8  23
ATOM     23  O   UNL     1     104.352 128.246 141.433  0.00  0.00    +0.000 OA
ATOM     24  C   UNL     1     104.871 127.604 141.460  0.00  0.00    +0.000 C 
ENDBRANCH   8  23
BRANCH  10  25
ATOM     25  O   UNL     1     105.038 128.944 144.184  0.00  0.00    +0.000 OA
ATOM     26  C   UNL     1     105.671 129.427 144.400  0.00  0.00    +0.000 C 
ENDBRANCH  10  25
TORSDOF 4
ENDMDL
