MODEL 1
REMARK VINA RESULT:     -10.6      0.000      0.000
REMARK  Name = 131752149
REMARK  10 active torsions:
REMARK  status: ('A' for Active; 'I' for Inactive)
REMARK    1  A    between atoms: O_3  and  C_30
REMARK    2  A    between atoms: O_3  and  C_41
REMARK    3  A    between atoms: O_5  and  C_33
REMARK    4  A    between atoms: O_5  and  C_43
REMARK    5  A    between atoms: O_6  and  C_37
REMARK    6  A    between atoms: O_6  and  C_42
REMARK    7  A    between atoms: C_27  and  C_39
REMARK    8  A    between atoms: C_32  and  C_40
REMARK    9  A    between atoms: C_38  and  C_47
REMARK   10  A    between atoms: C_50  and  C_51
REMARK                            x       y       z     vdW  Elec       q    Type
REMARK                         _______ _______ _______ _____ _____    ______ ____
ROOT
ATOM      1  O   UNL     1     113.389 128.711 137.185  0.00  0.00    +0.000 OA
ATOM      2  O   UNL     1     110.959 128.545 138.739  0.00  0.00    +0.000 OA
ATOM      3  O   UNL     1     111.309 129.752 138.031  0.00  0.00    +0.000 OA
ATOM      4  C   UNL     1     111.837 127.380 138.680  0.00  0.00    +0.000 A 
ATOM      5  C   UNL     1     112.560 127.019 138.386  0.00  0.00    +0.000 A 
ATOM      6  C   UNL     1     112.510 129.835 137.262  0.00  0.00    +0.000 A 
ATOM      7  C   UNL     1     112.187 128.628 137.954  0.00  0.00    +0.000 A 
ATOM      8  C   UNL     1     111.650 128.190 138.462  0.00  0.00    +0.000 A 
ATOM      9  C   UNL     1     112.880 128.280 137.672  0.00  0.00    +0.000 A 
ATOM     10  C   UNL     1     113.084 127.472 137.879  0.00  0.00    +0.000 A 
ATOM     11  C   UNL     1     112.002 129.405 137.749  0.00  0.00    +0.000 A 
ATOM     12  C   UNL     1     113.204 129.488 136.980  0.00  0.00    +0.000 A 
ENDROOT
BRANCH  12  14
ATOM     13  O   UNL     1     115.236 131.209 135.032  0.00  0.00    +0.000 OA
ATOM     14  C   UNL     1     113.712 129.918 136.492  0.00  0.00    +0.000 A 
ATOM     15  C   UNL     1     113.772 129.730 135.691  0.00  0.00    +0.000 A 
ATOM     16  C   UNL     1     114.160 130.536 136.806  0.00  0.00    +0.000 A 
ATOM     17  C   UNL     1     114.280 130.161 135.205  0.00  0.00    +0.000 A 
ATOM     18  C   UNL     1     114.668 130.966 136.319  0.00  0.00    +0.000 A 
ATOM     19  C   UNL     1     114.728 130.779 135.519  0.00  0.00    +0.000 A 
ENDBRANCH  12  14
BRANCH   4  20
ATOM     20  O   UNL     1     111.327 126.952 139.167  0.00  0.00    +0.000 OA
BRANCH  20  29
ATOM     21  O   UNL     1     111.994 127.430 140.337  0.00  0.00    +0.000 OA
ATOM     22  O   UNL     1     110.081 126.700 141.726  0.00  0.00    +0.000 OA
ATOM     23  O   UNL     1     111.385 127.422 142.433  0.00  0.00    +0.000 OA
ATOM     24  O   UNL     1     110.052 126.465 140.093  0.00  0.00    +0.000 OA
ATOM     25  C   UNL     1     110.719 126.943 141.263  0.00  0.00    +0.000 C 
ATOM     26  C   UNL     1     111.371 127.304 141.616  0.00  0.00    +0.000 C 
ATOM     27  C   UNL     1     110.704 126.826 140.446  0.00  0.00    +0.000 C 
ATOM     28  C   UNL     1     112.009 127.548 141.153  0.00  0.00    +0.000 C 
ATOM     29  C   UNL     1     111.342 127.069 139.983  0.00  0.00    +0.000 C 
BRANCH  28  31
ATOM     30  O   UNL     1     113.406 127.560 141.453  0.00  0.00    +0.000 OA
ATOM     31  C   UNL     1     112.661 127.908 141.507  0.00  0.00    +0.000 C 
ENDBRANCH  28  31
ENDBRANCH  20  29
ENDBRANCH   4  20
BRANCH   6  32
ATOM     32  O   UNL     1     112.325 130.612 137.057  0.00  0.00    +0.000 OA
BRANCH  32  41
ATOM     33  O   UNL     1     111.280 130.254 136.150  0.00  0.00    +0.000 OA
ATOM     34  O   UNL     1     110.087 132.352 136.696  0.00  0.00    +0.000 OA
ATOM     35  O   UNL     1     109.441 131.294 135.607  0.00  0.00    +0.000 OA
ATOM     36  O   UNL     1     111.529 132.011 137.421  0.00  0.00    +0.000 OA
ATOM     37  C   UNL     1     110.484 131.653 136.514  0.00  0.00    +0.000 C 
ATOM     38  C   UNL     1     110.161 131.124 135.969  0.00  0.00    +0.000 C 
ATOM     39  C   UNL     1     111.206 131.482 136.876  0.00  0.00    +0.000 C 
ATOM     40  C   UNL     1     110.559 130.425 135.787  0.00  0.00    +0.000 C 
ATOM     41  C   UNL     1     111.603 130.783 136.694  0.00  0.00    +0.000 C 
BRANCH  40  43
ATOM     42  O   UNL     1     110.697 129.612 134.619  0.00  0.00    +0.000 OA
ATOM     43  C   UNL     1     110.237 129.895 135.243  0.00  0.00    +0.000 C 
ENDBRANCH  40  43
ENDBRANCH  32  41
ENDBRANCH   6  32
BRANCH   5  44
ATOM     44  O   UNL     1     112.748 126.241 138.589  0.00  0.00    +0.000 OA
BRANCH  44  52
ATOM     45  O   UNL     1     112.332 125.474 137.458  0.00  0.00    +0.000 OA
ATOM     46  O   UNL     1     114.588 124.466 137.312  0.00  0.00    +0.000 OA
ATOM     47  O   UNL     1     114.252 125.570 138.493  0.00  0.00    +0.000 OA
ATOM     48  O   UNL     1     113.420 124.035 136.230  0.00  0.00    +0.000 OA
ATOM     49  C   UNL     1     113.836 124.802 137.361  0.00  0.00    +0.000 C 
ATOM     50  C   UNL     1     113.668 125.354 137.951  0.00  0.00    +0.000 C 
ATOM     51  C   UNL     1     113.252 124.586 136.819  0.00  0.00    +0.000 C 
ATOM     52  C   UNL     1     112.916 125.690 138.000  0.00  0.00    +0.000 C 
ATOM     53  C   UNL     1     112.500 124.922 136.868  0.00  0.00    +0.000 C 
BRANCH  53  56
ATOM     54  O   UNL     1     111.505 123.998 136.423  0.00  0.00    +0.000 OA
ATOM     55  O   UNL     1     111.744 125.200 135.688  0.00  0.00    +0.000 OA
ATOM     56  C   UNL     1     111.916 124.706 136.326  0.00  0.00    +0.000 C 
ENDBRANCH  53  56
ENDBRANCH  44  52
ENDBRANCH   5  44
TORSDOF 10
ENDMDL
MODEL 2
REMARK VINA RESULT:     -10.5      1.338      1.788
REMARK  Name = 131752149
REMARK  10 active torsions:
REMARK  status: ('A' for Active; 'I' for Inactive)
REMARK    1  A    between atoms: O_3  and  C_30
REMARK    2  A    between atoms: O_3  and  C_41
REMARK    3  A    between atoms: O_5  and  C_33
REMARK    4  A    between atoms: O_5  and  C_43
REMARK    5  A    between atoms: O_6  and  C_37
REMARK    6  A    between atoms: O_6  and  C_42
REMARK    7  A    between atoms: C_27  and  C_39
REMARK    8  A    between atoms: C_32  and  C_40
REMARK    9  A    between atoms: C_38  and  C_47
REMARK   10  A    between atoms: C_50  and  C_51
REMARK                            x       y       z     vdW  Elec       q    Type
REMARK                         _______ _______ _______ _____ _____    ______ ____
ROOT
ATOM      1  O   UNL     1     112.116 128.422 137.497  0.00  0.00    +0.000 OA
ATOM      2  O   UNL     1     109.559 128.459 138.842  0.00  0.00    +0.000 OA
ATOM      3  O   UNL     1     110.263 129.684 138.547  0.00  0.00    +0.000 OA
ATOM      4  C   UNL     1     110.136 127.172 138.462  0.00  0.00    +0.000 A 
ATOM      5  C   UNL     1     110.780 126.735 138.097  0.00  0.00    +0.000 A 
ATOM      6  C   UNL     1     111.527 129.667 137.881  0.00  0.00    +0.000 A 
ATOM      7  C   UNL     1     110.851 128.439 138.163  0.00  0.00    +0.000 A 
ATOM      8  C   UNL     1     110.172 128.031 138.495  0.00  0.00    +0.000 A 
ATOM      9  C   UNL     1     111.469 128.019 137.813  0.00  0.00    +0.000 A 
ATOM     10  C   UNL     1     111.450 127.161 137.771  0.00  0.00    +0.000 A 
ATOM     11  C   UNL     1     110.880 129.263 138.197  0.00  0.00    +0.000 A 
ATOM     12  C   UNL     1     112.145 129.246 137.532  0.00  0.00    +0.000 A 
ENDROOT
BRANCH  12  14
ATOM     13  O   UNL     1     114.732 130.860 136.271  0.00  0.00    +0.000 OA
ATOM     14  C   UNL     1     112.792 129.649 137.216  0.00  0.00    +0.000 A 
ATOM     15  C   UNL     1     112.888 129.699 136.398  0.00  0.00    +0.000 A 
ATOM     16  C   UNL     1     113.342 130.003 137.719  0.00  0.00    +0.000 A 
ATOM     17  C   UNL     1     113.535 130.103 136.084  0.00  0.00    +0.000 A 
ATOM     18  C   UNL     1     113.989 130.407 137.403  0.00  0.00    +0.000 A 
ATOM     19  C   UNL     1     114.085 130.457 136.586  0.00  0.00    +0.000 A 
ENDBRANCH  12  14
BRANCH   4  20
ATOM     20  O   UNL     1     109.488 126.771 138.778  0.00  0.00    +0.000 OA
BRANCH  20  29
ATOM     21  O   UNL     1     110.135 126.728 140.052  0.00  0.00    +0.000 OA
ATOM     22  O   UNL     1     108.150 125.614 141.023  0.00  0.00    +0.000 OA
ATOM     23  O   UNL     1     109.459 125.942 141.972  0.00  0.00    +0.000 OA
ATOM     24  O   UNL     1     108.165 126.028 139.426  0.00  0.00    +0.000 OA
ATOM     25  C   UNL     1     108.812 125.985 140.699  0.00  0.00    +0.000 C 
ATOM     26  C   UNL     1     109.467 126.150 141.173  0.00  0.00    +0.000 C 
ATOM     27  C   UNL     1     108.819 126.193 139.900  0.00  0.00    +0.000 C 
ATOM     28  C   UNL     1     110.128 126.521 140.849  0.00  0.00    +0.000 C 
ATOM     29  C   UNL     1     109.481 126.564 139.576  0.00  0.00    +0.000 C 
BRANCH  28  31
ATOM     30  O   UNL     1     111.454 126.208 141.282  0.00  0.00    +0.000 OA
ATOM     31  C   UNL     1     110.783 126.685 141.325  0.00  0.00    +0.000 C 
ENDBRANCH  28  31
ENDBRANCH  20  29
ENDBRANCH   4  20
BRANCH   6  32
ATOM     32  O   UNL     1     111.555 130.490 137.916  0.00  0.00    +0.000 OA
BRANCH  32  41
ATOM     33  O   UNL     1     110.579 130.679 136.891  0.00  0.00    +0.000 OA
ATOM     34  O   UNL     1     109.880 132.805 137.948  0.00  0.00    +0.000 OA
ATOM     35  O   UNL     1     109.137 132.285 136.570  0.00  0.00    +0.000 OA
ATOM     36  O   UNL     1     111.090 131.907 138.621  0.00  0.00    +0.000 OA
ATOM     37  C   UNL     1     110.113 132.096 137.596  0.00  0.00    +0.000 C 
ATOM     38  C   UNL     1     109.741 131.837 136.907  0.00  0.00    +0.000 C 
ATOM     39  C   UNL     1     110.718 131.647 137.932  0.00  0.00    +0.000 C 
ATOM     40  C   UNL     1     109.974 131.128 136.554  0.00  0.00    +0.000 C 
ATOM     41  C   UNL     1     110.951 130.939 137.580  0.00  0.00    +0.000 C 
BRANCH  40  43
ATOM     42  O   UNL     1     110.044 130.740 135.180  0.00  0.00    +0.000 OA
ATOM     43  C   UNL     1     109.602 130.867 135.865  0.00  0.00    +0.000 C 
ENDBRANCH  40  43
ENDBRANCH  32  41
ENDBRANCH   6  32
BRANCH   5  44
ATOM     44  O   UNL     1     110.754 125.911 138.061  0.00  0.00    +0.000 OA
BRANCH  44  52
ATOM     45  O   UNL     1     110.579 125.789 136.648  0.00  0.00    +0.000 OA
ATOM     46  O   UNL     1     112.093 123.831 136.630  0.00  0.00    +0.000 OA
ATOM     47  O   UNL     1     111.763 124.606 138.050  0.00  0.00    +0.000 OA
ATOM     48  O   UNL     1     111.414 124.362 135.224  0.00  0.00    +0.000 OA
ATOM     49  C   UNL     1     111.589 124.484 136.637  0.00  0.00    +0.000 C 
ATOM     50  C   UNL     1     111.424 124.871 137.346  0.00  0.00    +0.000 C 
ATOM     51  C   UNL     1     111.249 124.749 135.933  0.00  0.00    +0.000 C 
ATOM     52  C   UNL     1     110.919 125.524 137.352  0.00  0.00    +0.000 C 
ATOM     53  C   UNL     1     110.745 125.402 135.939  0.00  0.00    +0.000 C 
BRANCH  53  56
ATOM     54  O   UNL     1     109.629 125.461 135.048  0.00  0.00    +0.000 OA
ATOM     55  O   UNL     1     110.843 126.139 134.719  0.00  0.00    +0.000 OA
ATOM     56  C   UNL     1     110.405 125.667 135.235  0.00  0.00    +0.000 C 
ENDBRANCH  53  56
ENDBRANCH  44  52
ENDBRANCH   5  44
TORSDOF 10
ENDMDL
MODEL 3
REMARK VINA RESULT:     -10.5      1.729      5.874
REMARK  Name = 131752149
REMARK  10 active torsions:
REMARK  status: ('A' for Active; 'I' for Inactive)
REMARK    1  A    between atoms: O_3  and  C_30
REMARK    2  A    between atoms: O_3  and  C_41
REMARK    3  A    between atoms: O_5  and  C_33
REMARK    4  A    between atoms: O_5  and  C_43
REMARK    5  A    between atoms: O_6  and  C_37
REMARK    6  A    between atoms: O_6  and  C_42
REMARK    7  A    between atoms: C_27  and  C_39
REMARK    8  A    between atoms: C_32  and  C_40
REMARK    9  A    between atoms: C_38  and  C_47
REMARK   10  A    between atoms: C_50  and  C_51
REMARK                            x       y       z     vdW  Elec       q    Type
REMARK                         _______ _______ _______ _____ _____    ______ ____
ROOT
ATOM      1  O   UNL     1     111.247 127.535 137.616  0.00  0.00    +0.000 OA
ATOM      2  O   UNL     1     109.251 129.221 138.849  0.00  0.00    +0.000 OA
ATOM      3  O   UNL     1     109.165 127.782 138.932  0.00  0.00    +0.000 OA
ATOM      4  C   UNL     1     110.359 129.849 138.134  0.00  0.00    +0.000 A 
ATOM      5  C   UNL     1     111.081 129.762 137.677  0.00  0.00    +0.000 A 
ATOM      6  C   UNL     1     110.152 126.948 138.322  0.00  0.00    +0.000 A 
ATOM      7  C   UNL     1     110.260 128.369 138.226  0.00  0.00    +0.000 A 
ATOM      8  C   UNL     1     109.945 129.147 138.410  0.00  0.00    +0.000 A 
ATOM      9  C   UNL     1     110.954 128.287 137.787  0.00  0.00    +0.000 A 
ATOM     10  C   UNL     1     111.381 128.976 137.502  0.00  0.00    +0.000 A 
ATOM     11  C   UNL     1     109.859 127.700 138.493  0.00  0.00    +0.000 A 
ATOM     12  C   UNL     1     110.846 126.865 137.884  0.00  0.00    +0.000 A 
ENDROOT
BRANCH  12  14
ATOM     13  O   UNL     1     112.018 123.857 137.201  0.00  0.00    +0.000 OA
ATOM     14  C   UNL     1     111.139 126.113 137.713  0.00  0.00    +0.000 A 
ATOM     15  C   UNL     1     110.775 125.650 137.135  0.00  0.00    +0.000 A 
ATOM     16  C   UNL     1     111.796 125.824 138.120  0.00  0.00    +0.000 A 
ATOM     17  C   UNL     1     111.068 124.898 136.965  0.00  0.00    +0.000 A 
ATOM     18  C   UNL     1     112.088 125.072 137.949  0.00  0.00    +0.000 A 
ATOM     19  C   UNL     1     111.725 124.609 137.372  0.00  0.00    +0.000 A 
ENDBRANCH  12  14
BRANCH   4  20
ATOM     20  O   UNL     1     110.063 130.599 138.306  0.00  0.00    +0.000 OA
BRANCH  20  29
ATOM     21  O   UNL     1     109.298 130.645 137.100  0.00  0.00    +0.000 OA
ATOM     22  O   UNL     1     107.800 132.334 138.114  0.00  0.00    +0.000 OA
ATOM     23  O   UNL     1     107.534 131.816 136.570  0.00  0.00    +0.000 OA
ATOM     24  O   UNL     1     109.065 131.725 138.982  0.00  0.00    +0.000 OA
ATOM     25  C   UNL     1     108.299 131.771 137.776  0.00  0.00    +0.000 C 
ATOM     26  C   UNL     1     108.167 131.512 137.004  0.00  0.00    +0.000 C 
ATOM     27  C   UNL     1     108.932 131.466 138.210  0.00  0.00    +0.000 C 
ATOM     28  C   UNL     1     108.666 130.949 136.666  0.00  0.00    +0.000 C 
ATOM     29  C   UNL     1     109.432 130.903 137.872  0.00  0.00    +0.000 C 
BRANCH  28  31
ATOM     30  O   UNL     1     108.219 129.940 135.758  0.00  0.00    +0.000 OA
ATOM     31  C   UNL     1     108.532 130.690 135.894  0.00  0.00    +0.000 C 
ENDBRANCH  28  31
ENDBRANCH  20  29
ENDBRANCH   4  20
BRANCH   6  32
ATOM     32  O   UNL     1     109.751 126.279 138.590  0.00  0.00    +0.000 OA
BRANCH  32  41
ATOM     33  O   UNL     1     110.157 126.388 139.956  0.00  0.00    +0.000 OA
ATOM     34  O   UNL     1     107.954 125.525 140.681  0.00  0.00    +0.000 OA
ATOM     35  O   UNL     1     109.096 125.922 141.804  0.00  0.00    +0.000 OA
ATOM     36  O   UNL     1     108.282 125.703 139.074  0.00  0.00    +0.000 OA
ATOM     37  C   UNL     1     108.688 125.813 140.440  0.00  0.00    +0.000 C 
ATOM     38  C   UNL     1     109.259 126.011 141.001  0.00  0.00    +0.000 C 
ATOM     39  C   UNL     1     108.852 125.902 139.636  0.00  0.00    +0.000 C 
ATOM     40  C   UNL     1     109.994 126.299 140.759  0.00  0.00    +0.000 C 
ATOM     41  C   UNL     1     109.587 126.190 139.394  0.00  0.00    +0.000 C 
BRANCH  40  43
ATOM     42  O   UNL     1     111.290 126.104 141.330  0.00  0.00    +0.000 OA
ATOM     43  C   UNL     1     110.565 126.498 141.321  0.00  0.00    +0.000 C 
ENDBRANCH  40  43
ENDBRANCH  32  41
ENDBRANCH   6  32
BRANCH   5  44
ATOM     44  O   UNL     1     111.485 130.429 137.407  0.00  0.00    +0.000 OA
BRANCH  44  52
ATOM     45  O   UNL     1     112.588 130.385 138.315  0.00  0.00    +0.000 OA
ATOM     46  O   UNL     1     114.125 131.004 136.476  0.00  0.00    +0.000 OA
ATOM     47  O   UNL     1     112.509 130.842 136.181  0.00  0.00    +0.000 OA
ATOM     48  O   UNL     1     114.715 130.753 137.996  0.00  0.00    +0.000 OA
ATOM     49  C   UNL     1     113.612 130.797 137.089  0.00  0.00    +0.000 C 
ATOM     50  C   UNL     1     112.805 130.716 136.942  0.00  0.00    +0.000 C 
ATOM     51  C   UNL     1     113.908 130.672 137.849  0.00  0.00    +0.000 C 
ATOM     52  C   UNL     1     112.292 130.510 137.555  0.00  0.00    +0.000 C 
ATOM     53  C   UNL     1     113.395 130.466 138.462  0.00  0.00    +0.000 C 
BRANCH  53  56
ATOM     54  O   UNL     1     113.979 129.598 139.435  0.00  0.00    +0.000 OA
ATOM     55  O   UNL     1     113.697 130.959 139.769  0.00  0.00    +0.000 OA
ATOM     56  C   UNL     1     113.691 130.341 139.222  0.00  0.00    +0.000 C 
ENDBRANCH  53  56
ENDBRANCH  44  52
ENDBRANCH   5  44
TORSDOF 10
ENDMDL
MODEL 4
REMARK VINA RESULT:     -10.3      1.612      4.747
REMARK  Name = 131752149
REMARK  10 active torsions:
REMARK  status: ('A' for Active; 'I' for Inactive)
REMARK    1  A    between atoms: O_3  and  C_30
REMARK    2  A    between atoms: O_3  and  C_41
REMARK    3  A    between atoms: O_5  and  C_33
REMARK    4  A    between atoms: O_5  and  C_43
REMARK    5  A    between atoms: O_6  and  C_37
REMARK    6  A    between atoms: O_6  and  C_42
REMARK    7  A    between atoms: C_27  and  C_39
REMARK    8  A    between atoms: C_32  and  C_40
REMARK    9  A    between atoms: C_38  and  C_47
REMARK   10  A    between atoms: C_50  and  C_51
REMARK                            x       y       z     vdW  Elec       q    Type
REMARK                         _______ _______ _______ _____ _____    ______ ____
ROOT
ATOM      1  O   UNL     1     111.705 129.072 137.113  0.00  0.00    +0.000 OA
ATOM      2  O   UNL     1     110.470 127.186 138.920  0.00  0.00    +0.000 OA
ATOM      3  O   UNL     1     111.593 126.804 138.098  0.00  0.00    +0.000 OA
ATOM      4  C   UNL     1     109.939 128.545 138.849  0.00  0.00    +0.000 A 
ATOM      5  C   UNL     1     109.978 129.331 138.506  0.00  0.00    +0.000 A 
ATOM      6  C   UNL     1     112.205 127.736 137.204  0.00  0.00    +0.000 A 
ATOM      7  C   UNL     1     111.094 128.140 138.007  0.00  0.00    +0.000 A 
ATOM      8  C   UNL     1     110.501 127.944 138.597  0.00  0.00    +0.000 A 
ATOM      9  C   UNL     1     111.131 128.896 137.679  0.00  0.00    +0.000 A 
ATOM     10  C   UNL     1     110.578 129.508 137.917  0.00  0.00    +0.000 A 
ATOM     11  C   UNL     1     111.631 127.560 137.769  0.00  0.00    +0.000 A 
ATOM     12  C   UNL     1     112.242 128.492 136.875  0.00  0.00    +0.000 A 
ENDROOT
BRANCH  12  14
ATOM     13  O   UNL     1     114.539 129.196 134.613  0.00  0.00    +0.000 OA
ATOM     14  C   UNL     1     112.816 128.668 136.309  0.00  0.00    +0.000 A 
ATOM     15  C   UNL     1     112.601 128.754 135.517  0.00  0.00    +0.000 A 
ATOM     16  C   UNL     1     113.604 128.757 136.535  0.00  0.00    +0.000 A 
ATOM     17  C   UNL     1     113.176 128.930 134.952  0.00  0.00    +0.000 A 
ATOM     18  C   UNL     1     114.178 128.933 135.970  0.00  0.00    +0.000 A 
ATOM     19  C   UNL     1     113.965 129.020 135.178  0.00  0.00    +0.000 A 
ENDBRANCH  12  14
BRANCH   4  20
ATOM     20  O   UNL     1     109.366 128.366 139.415  0.00  0.00    +0.000 OA
BRANCH  20  29
ATOM     21  O   UNL     1     110.226 128.741 140.492  0.00  0.00    +0.000 OA
ATOM     22  O   UNL     1     108.890 127.349 142.043  0.00  0.00    +0.000 OA
ATOM     23  O   UNL     1     110.196 128.187 142.604  0.00  0.00    +0.000 OA
ATOM     24  O   UNL     1     108.475 127.438 140.448  0.00  0.00    +0.000 OA
ATOM     25  C   UNL     1     109.336 127.813 141.526  0.00  0.00    +0.000 C 
ATOM     26  C   UNL     1     109.989 128.232 141.806  0.00  0.00    +0.000 C 
ATOM     27  C   UNL     1     109.128 127.857 140.728  0.00  0.00    +0.000 C 
ATOM     28  C   UNL     1     110.434 128.696 141.289  0.00  0.00    +0.000 C 
ATOM     29  C   UNL     1     109.573 128.321 140.211  0.00  0.00    +0.000 C 
BRANCH  28  31
ATOM     30  O   UNL     1     111.084 129.940 141.559  0.00  0.00    +0.000 OA
ATOM     31  C   UNL     1     111.087 129.115 141.570  0.00  0.00    +0.000 C 
ENDBRANCH  28  31
ENDBRANCH  20  29
ENDBRANCH   4  20
BRANCH   6  32
ATOM     32  O   UNL     1     112.741 127.156 136.967  0.00  0.00    +0.000 OA
BRANCH  32  41
ATOM     33  O   UNL     1     111.787 126.409 136.209  0.00  0.00    +0.000 OA
ATOM     34  O   UNL     1     113.004 124.319 136.737  0.00  0.00    +0.000 OA
ATOM     35  O   UNL     1     111.645 124.270 135.804  0.00  0.00    +0.000 OA
ATOM     36  O   UNL     1     113.552 125.763 137.318  0.00  0.00    +0.000 OA
ATOM     37  C   UNL     1     112.599 125.016 136.561  0.00  0.00    +0.000 C 
ATOM     38  C   UNL     1     111.919 124.990 136.095  0.00  0.00    +0.000 C 
ATOM     39  C   UNL     1     112.872 125.738 136.852  0.00  0.00    +0.000 C 
ATOM     40  C   UNL     1     111.513 125.687 135.919  0.00  0.00    +0.000 C 
ATOM     41  C   UNL     1     112.467 126.434 136.676  0.00  0.00    +0.000 C 
BRANCH  40  43
ATOM     42  O   UNL     1     110.802 126.085 134.744  0.00  0.00    +0.000 OA
ATOM     43  C   UNL     1     110.833 125.662 135.452  0.00  0.00    +0.000 C 
ENDBRANCH  40  43
ENDBRANCH  32  41
ENDBRANCH   6  32
BRANCH   5  44
ATOM     44  O   UNL     1     109.443 129.914 138.741  0.00  0.00    +0.000 OA
BRANCH  44  52
ATOM     45  O   UNL     1     108.827 130.168 137.477  0.00  0.00    +0.000 OA
ATOM     46  O   UNL     1     108.872 132.598 137.944  0.00  0.00    +0.000 OA
ATOM     47  O   UNL     1     109.473 131.534 139.053  0.00  0.00    +0.000 OA
ATOM     48  O   UNL     1     108.241 132.042 136.525  0.00  0.00    +0.000 OA
ATOM     49  C   UNL     1     108.857 131.788 137.789  0.00  0.00    +0.000 C 
ATOM     50  C   UNL     1     109.158 131.256 138.343  0.00  0.00    +0.000 C 
ATOM     51  C   UNL     1     108.541 131.510 137.079  0.00  0.00    +0.000 C 
ATOM     52  C   UNL     1     109.143 130.446 138.188  0.00  0.00    +0.000 C 
ATOM     53  C   UNL     1     108.526 130.700 136.923  0.00  0.00    +0.000 C 
BRANCH  53  56
ATOM     54  O   UNL     1     108.679 130.400 135.535  0.00  0.00    +0.000 OA
ATOM     55  O   UNL     1     107.426 130.167 136.183  0.00  0.00    +0.000 OA
ATOM     56  C   UNL     1     108.211 130.422 136.213  0.00  0.00    +0.000 C 
ENDBRANCH  53  56
ENDBRANCH  44  52
ENDBRANCH   5  44
TORSDOF 10
ENDMDL
MODEL 5
REMARK VINA RESULT:     -10.3      6.716      9.276
REMARK  Name = 131752149
REMARK  10 active torsions:
REMARK  status: ('A' for Active; 'I' for Inactive)
REMARK    1  A    between atoms: O_3  and  C_30
REMARK    2  A    between atoms: O_3  and  C_41
REMARK    3  A    between atoms: O_5  and  C_33
REMARK    4  A    between atoms: O_5  and  C_43
REMARK    5  A    between atoms: O_6  and  C_37
REMARK    6  A    between atoms: O_6  and  C_42
REMARK    7  A    between atoms: C_27  and  C_39
REMARK    8  A    between atoms: C_32  and  C_40
REMARK    9  A    between atoms: C_38  and  C_47
REMARK   10  A    between atoms: C_50  and  C_51
REMARK                            x       y       z     vdW  Elec       q    Type
REMARK                         _______ _______ _______ _____ _____    ______ ____
ROOT
ATOM      1  O   UNL     1     105.078 127.847 143.541  0.00  0.00    +0.000 OA
ATOM      2  O   UNL     1     107.043 126.921 141.636  0.00  0.00    +0.000 OA
ATOM      3  O   UNL     1     106.646 128.308 141.682  0.00  0.00    +0.000 OA
ATOM      4  C   UNL     1     106.451 125.959 142.561  0.00  0.00    +0.000 A 
ATOM      5  C   UNL     1     105.907 125.800 143.206  0.00  0.00    +0.000 A 
ATOM      6  C   UNL     1     105.674 128.767 142.623  0.00  0.00    +0.000 A 
ATOM      7  C   UNL     1     106.050 127.388 142.599  0.00  0.00    +0.000 A 
ATOM      8  C   UNL     1     106.523 126.759 142.255  0.00  0.00    +0.000 A 
ATOM      9  C   UNL     1     105.527 127.235 143.219  0.00  0.00    +0.000 A 
ATOM     10  C   UNL     1     105.442 126.442 143.537  0.00  0.00    +0.000 A 
ATOM     11  C   UNL     1     106.123 128.154 142.301  0.00  0.00    +0.000 A 
ATOM     12  C   UNL     1     105.151 128.613 143.243  0.00  0.00    +0.000 A 
ENDROOT
BRANCH  12  14
ATOM     13  O   UNL     1     103.353 131.063 144.530  0.00  0.00    +0.000 OA
ATOM     14  C   UNL     1     104.702 129.225 143.565  0.00  0.00    +0.000 A 
ATOM     15  C   UNL     1     104.860 129.496 144.328  0.00  0.00    +0.000 A 
ATOM     16  C   UNL     1     104.094 129.567 143.124  0.00  0.00    +0.000 A 
ATOM     17  C   UNL     1     104.410 130.108 144.649  0.00  0.00    +0.000 A 
ATOM     18  C   UNL     1     103.645 130.180 143.446  0.00  0.00    +0.000 A 
ATOM     19  C   UNL     1     103.803 130.450 144.208  0.00  0.00    +0.000 A 
ENDBRANCH  12  14
BRANCH   4  20
ATOM     20  O   UNL     1     106.902 125.348 142.237  0.00  0.00    +0.000 OA
BRANCH  20  29
ATOM     21  O   UNL     1     105.906 125.132 141.236  0.00  0.00    +0.000 OA
ATOM     22  O   UNL     1     107.087 123.085 140.502  0.00  0.00    +0.000 OA
ATOM     23  O   UNL     1     105.697 123.551 139.745  0.00  0.00    +0.000 OA
ATOM     24  O   UNL     1     107.689 123.983 141.748  0.00  0.00    +0.000 OA
ATOM     25  C   UNL     1     106.693 123.767 140.747  0.00  0.00    +0.000 C 
ATOM     26  C   UNL     1     105.998 124.001 140.369  0.00  0.00    +0.000 C 
ATOM     27  C   UNL     1     106.995 124.217 141.370  0.00  0.00    +0.000 C 
ATOM     28  C   UNL     1     105.605 124.684 140.613  0.00  0.00    +0.000 C 
ATOM     29  C   UNL     1     106.601 124.899 141.615  0.00  0.00    +0.000 C 
BRANCH  28  31
ATOM     30  O   UNL     1     104.912 125.572 139.734  0.00  0.00    +0.000 OA
ATOM     31  C   UNL     1     104.910 124.916 140.234  0.00  0.00    +0.000 C 
ENDBRANCH  28  31
ENDBRANCH  20  29
ENDBRANCH   4  20
BRANCH   6  32
ATOM     32  O   UNL     1     105.747 129.532 142.325  0.00  0.00    +0.000 OA
BRANCH  32  41
ATOM     33  O   UNL     1     106.997 129.785 142.971  0.00  0.00    +0.000 OA
ATOM     34  O   UNL     1     107.637 131.314 141.133  0.00  0.00    +0.000 OA
ATOM     35  O   UNL     1     108.672 131.057 142.392  0.00  0.00    +0.000 OA
ATOM     36  O   UNL     1     106.174 130.552 141.100  0.00  0.00    +0.000 OA
ATOM     37  C   UNL     1     107.424 130.804 141.746  0.00  0.00    +0.000 C 
ATOM     38  C   UNL     1     107.942 130.676 142.375  0.00  0.00    +0.000 C 
ATOM     39  C   UNL     1     106.692 130.423 141.729  0.00  0.00    +0.000 C 
ATOM     40  C   UNL     1     107.728 130.166 142.988  0.00  0.00    +0.000 C 
ATOM     41  C   UNL     1     106.479 129.913 142.342  0.00  0.00    +0.000 C 
BRANCH  40  43
ATOM     42  O   UNL     1     108.025 130.249 144.384  0.00  0.00    +0.000 OA
ATOM     43  C   UNL     1     108.245 130.037 143.617  0.00  0.00    +0.000 C 
ENDBRANCH  40  43
ENDBRANCH  32  41
ENDBRANCH   6  32
BRANCH   5  44
ATOM     44  O   UNL     1     105.831 125.034 143.507  0.00  0.00    +0.000 OA
BRANCH  44  52
ATOM     45  O   UNL     1     106.278 125.307 144.836  0.00  0.00    +0.000 OA
ATOM     46  O   UNL     1     104.553 123.773 145.730  0.00  0.00    +0.000 OA
ATOM     47  O   UNL     1     104.682 124.012 144.102  0.00  0.00    +0.000 OA
ATOM     48  O   UNL     1     105.574 124.557 146.762  0.00  0.00    +0.000 OA
ATOM     49  C   UNL     1     105.128 124.284 145.432  0.00  0.00    +0.000 C 
ATOM     50  C   UNL     1     105.192 124.404 144.618  0.00  0.00    +0.000 C 
ATOM     51  C   UNL     1     105.639 124.676 145.948  0.00  0.00    +0.000 C 
ATOM     52  C   UNL     1     105.767 124.915 144.320  0.00  0.00    +0.000 C 
ATOM     53  C   UNL     1     106.213 125.188 145.650  0.00  0.00    +0.000 C 
BRANCH  53  56
ATOM     54  O   UNL     1     106.502 126.302 146.497  0.00  0.00    +0.000 OA
ATOM     55  O   UNL     1     107.457 125.249 146.351  0.00  0.00    +0.000 OA
ATOM     56  C   UNL     1     106.724 125.580 146.166  0.00  0.00    +0.000 C 
ENDBRANCH  53  56
ENDBRANCH  44  52
ENDBRANCH   5  44
TORSDOF 10
ENDMDL
MODEL 6
REMARK VINA RESULT:     -10.3      3.866      7.390
REMARK  Name = 131752149
REMARK  10 active torsions:
REMARK  status: ('A' for Active; 'I' for Inactive)
REMARK    1  A    between atoms: O_3  and  C_30
REMARK    2  A    between atoms: O_3  and  C_41
REMARK    3  A    between atoms: O_5  and  C_33
REMARK    4  A    between atoms: O_5  and  C_43
REMARK    5  A    between atoms: O_6  and  C_37
REMARK    6  A    between atoms: O_6  and  C_42
REMARK    7  A    between atoms: C_27  and  C_39
REMARK    8  A    between atoms: C_32  and  C_40
REMARK    9  A    between atoms: C_38  and  C_47
REMARK   10  A    between atoms: C_50  and  C_51
REMARK                            x       y       z     vdW  Elec       q    Type
REMARK                         _______ _______ _______ _____ _____    ______ ____
ROOT
ATOM      1  O   UNL     1     110.123 130.092 142.700  0.00  0.00    +0.000 OA
ATOM      2  O   UNL     1     110.463 131.574 140.243  0.00  0.00    +0.000 OA
ATOM      3  O   UNL     1     111.550 131.428 141.181  0.00  0.00    +0.000 OA
ATOM      4  C   UNL     1     109.164 130.969 140.526  0.00  0.00    +0.000 A 
ATOM      5  C   UNL     1     108.670 130.505 141.054  0.00  0.00    +0.000 A 
ATOM      6  C   UNL     1     111.383 130.696 142.397  0.00  0.00    +0.000 A 
ATOM      7  C   UNL     1     110.290 130.825 141.485  0.00  0.00    +0.000 A 
ATOM      8  C   UNL     1     109.981 131.130 140.743  0.00  0.00    +0.000 A 
ATOM      9  C   UNL     1     109.815 130.380 141.991  0.00  0.00    +0.000 A 
ATOM     10  C   UNL     1     108.997 130.208 141.791  0.00  0.00    +0.000 A 
ATOM     11  C   UNL     1     111.074 130.983 141.688  0.00  0.00    +0.000 A 
ATOM     12  C   UNL     1     110.907 130.250 142.903  0.00  0.00    +0.000 A 
ENDROOT
BRANCH  12  14
ATOM     13  O   UNL     1     112.141 129.102 145.740  0.00  0.00    +0.000 OA
ATOM     14  C   UNL     1     111.216 129.963 143.612  0.00  0.00    +0.000 A 
ATOM     15  C   UNL     1     111.403 129.163 143.686  0.00  0.00    +0.000 A 
ATOM     16  C   UNL     1     111.337 130.476 144.247  0.00  0.00    +0.000 A 
ATOM     17  C   UNL     1     111.711 128.877 144.396  0.00  0.00    +0.000 A 
ATOM     18  C   UNL     1     111.645 130.188 144.956  0.00  0.00    +0.000 A 
ATOM     19  C   UNL     1     111.832 129.389 145.031  0.00  0.00    +0.000 A 
ENDBRANCH  12  14
BRANCH   4  20
ATOM     20  O   UNL     1     108.858 131.257 139.816  0.00  0.00    +0.000 OA
BRANCH  20  29
ATOM     21  O   UNL     1     109.314 130.090 139.130  0.00  0.00    +0.000 OA
ATOM     22  O   UNL     1     108.788 131.160 136.961  0.00  0.00    +0.000 OA
ATOM     23  O   UNL     1     109.420 129.636 136.998  0.00  0.00    +0.000 OA
ATOM     24  O   UNL     1     108.508 131.970 138.371  0.00  0.00    +0.000 OA
ATOM     25  C   UNL     1     108.964 130.803 137.684  0.00  0.00    +0.000 C 
ATOM     26  C   UNL     1     109.279 130.041 137.703  0.00  0.00    +0.000 C 
ATOM     27  C   UNL     1     108.823 131.209 138.389  0.00  0.00    +0.000 C 
ATOM     28  C   UNL     1     109.455 129.685 138.426  0.00  0.00    +0.000 C 
ATOM     29  C   UNL     1     108.999 130.852 139.112  0.00  0.00    +0.000 C 
BRANCH  28  31
ATOM     30  O   UNL     1     109.323 128.297 138.740  0.00  0.00    +0.000 OA
ATOM     31  C   UNL     1     109.770 128.922 138.443  0.00  0.00    +0.000 C 
ENDBRANCH  28  31
ENDBRANCH  20  29
ENDBRANCH   4  20
BRANCH   6  32
ATOM     32  O   UNL     1     112.166 130.854 142.599  0.00  0.00    +0.000 OA
BRANCH  32  41
ATOM     33  O   UNL     1     112.738 129.926 141.675  0.00  0.00    +0.000 OA
ATOM     34  O   UNL     1     114.685 131.423 141.375  0.00  0.00    +0.000 OA
ATOM     35  O   UNL     1     114.607 129.995 140.552  0.00  0.00    +0.000 OA
ATOM     36  O   UNL     1     113.465 131.853 142.399  0.00  0.00    +0.000 OA
ATOM     37  C   UNL     1     114.036 130.924 141.475  0.00  0.00    +0.000 C 
ATOM     38  C   UNL     1     113.997 130.210 141.063  0.00  0.00    +0.000 C 
ATOM     39  C   UNL     1     113.426 131.139 141.987  0.00  0.00    +0.000 C 
ATOM     40  C   UNL     1     113.348 129.711 141.163  0.00  0.00    +0.000 C 
ATOM     41  C   UNL     1     112.776 130.639 142.087  0.00  0.00    +0.000 C 
BRANCH  40  43
ATOM     42  O   UNL     1     113.274 128.283 141.165  0.00  0.00    +0.000 OA
ATOM     43  C   UNL     1     113.308 128.997 140.752  0.00  0.00    +0.000 C 
ENDBRANCH  40  43
ENDBRANCH  32  41
ENDBRANCH   6  32
BRANCH   5  44
ATOM     44  O   UNL     1     107.885 130.345 140.854  0.00  0.00    +0.000 OA
BRANCH  44  52
ATOM     45  O   UNL     1     107.218 131.162 141.818  0.00  0.00    +0.000 OA
ATOM     46  O   UNL     1     105.637 129.316 142.288  0.00  0.00    +0.000 OA
ATOM     47  O   UNL     1     106.832 129.114 141.167  0.00  0.00    +0.000 OA
ATOM     48  O   UNL     1     105.496 130.748 143.095  0.00  0.00    +0.000 OA
ATOM     49  C   UNL     1     106.164 129.931 142.131  0.00  0.00    +0.000 C 
ATOM     50  C   UNL     1     106.761 129.830 141.571  0.00  0.00    +0.000 C 
ATOM     51  C   UNL     1     106.094 130.647 142.535  0.00  0.00    +0.000 C 
ATOM     52  C   UNL     1     107.288 130.445 141.414  0.00  0.00    +0.000 C 
ATOM     53  C   UNL     1     106.621 131.262 142.378  0.00  0.00    +0.000 C 
BRANCH  53  56
ATOM     54  O   UNL     1     106.915 132.076 143.515  0.00  0.00    +0.000 OA
ATOM     55  O   UNL     1     106.114 132.596 142.452  0.00  0.00    +0.000 OA
ATOM     56  C   UNL     1     106.550 131.978 142.782  0.00  0.00    +0.000 C 
ENDBRANCH  53  56
ENDBRANCH  44  52
ENDBRANCH   5  44
TORSDOF 10
ENDMDL
MODEL 7
REMARK VINA RESULT:     -10.2      2.488      4.446
REMARK  Name = 131752149
REMARK  10 active torsions:
REMARK  status: ('A' for Active; 'I' for Inactive)
REMARK    1  A    between atoms: O_3  and  C_30
REMARK    2  A    between atoms: O_3  and  C_41
REMARK    3  A    between atoms: O_5  and  C_33
REMARK    4  A    between atoms: O_5  and  C_43
REMARK    5  A    between atoms: O_6  and  C_37
REMARK    6  A    between atoms: O_6  and  C_42
REMARK    7  A    between atoms: C_27  and  C_39
REMARK    8  A    between atoms: C_32  and  C_40
REMARK    9  A    between atoms: C_38  and  C_47
REMARK   10  A    between atoms: C_50  and  C_51
REMARK                            x       y       z     vdW  Elec       q    Type
REMARK                         _______ _______ _______ _____ _____    ______ ____
ROOT
ATOM      1  O   UNL     1     111.015 130.890 138.746  0.00  0.00    +0.000 OA
ATOM      2  O   UNL     1     110.846 128.015 138.973  0.00  0.00    +0.000 OA
ATOM      3  O   UNL     1     110.419 128.694 137.773  0.00  0.00    +0.000 OA
ATOM      4  C   UNL     1     111.375 128.780 140.099  0.00  0.00    +0.000 A 
ATOM      5  C   UNL     1     111.582 129.543 140.436  0.00  0.00    +0.000 A 
ATOM      6  C   UNL     1     110.502 130.116 137.660  0.00  0.00    +0.000 A 
ATOM      7  C   UNL     1     110.932 129.468 138.859  0.00  0.00    +0.000 A 
ATOM      8  C   UNL     1     111.048 128.743 139.305  0.00  0.00    +0.000 A 
ATOM      9  C   UNL     1     111.131 130.200 139.183  0.00  0.00    +0.000 A 
ATOM     10  C   UNL     1     111.459 130.257 139.975  0.00  0.00    +0.000 A 
ATOM     11  C   UNL     1     110.617 129.426 138.098  0.00  0.00    +0.000 A 
ATOM     12  C   UNL     1     110.701 130.848 137.984  0.00  0.00    +0.000 A 
ENDROOT
BRANCH  12  14
ATOM     13  O   UNL     1     110.239 133.607 136.235  0.00  0.00    +0.000 OA
ATOM     14  C   UNL     1     110.585 131.538 137.547  0.00  0.00    +0.000 A 
ATOM     15  C   UNL     1     109.821 131.823 137.421  0.00  0.00    +0.000 A 
ATOM     16  C   UNL     1     111.233 131.942 137.236  0.00  0.00    +0.000 A 
ATOM     17  C   UNL     1     109.706 132.513 136.984  0.00  0.00    +0.000 A 
ATOM     18  C   UNL     1     111.117 132.632 136.798  0.00  0.00    +0.000 A 
ATOM     19  C   UNL     1     110.354 132.918 136.672  0.00  0.00    +0.000 A 
ENDBRANCH  12  14
BRANCH   4  20
ATOM     20  O   UNL     1     111.490 128.088 140.534  0.00  0.00    +0.000 OA
BRANCH  20  29
ATOM     21  O   UNL     1     110.174 128.147 141.090  0.00  0.00    +0.000 OA
ATOM     22  O   UNL     1     110.259 125.715 141.545  0.00  0.00    +0.000 OA
ATOM     23  O   UNL     1     108.916 126.584 141.949  0.00  0.00    +0.000 OA
ATOM     24  O   UNL     1     111.546 126.468 140.837  0.00  0.00    +0.000 OA
ATOM     25  C   UNL     1     110.231 126.526 141.393  0.00  0.00    +0.000 C 
ATOM     26  C   UNL     1     109.560 126.961 141.595  0.00  0.00    +0.000 C 
ATOM     27  C   UNL     1     110.875 126.902 141.039  0.00  0.00    +0.000 C 
ATOM     28  C   UNL     1     109.531 127.771 141.444  0.00  0.00    +0.000 C 
ATOM     29  C   UNL     1     110.847 127.713 140.888  0.00  0.00    +0.000 C 
BRANCH  28  31
ATOM     30  O   UNL     1     108.898 128.771 142.244  0.00  0.00    +0.000 OA
ATOM     31  C   UNL     1     108.859 128.205 141.646  0.00  0.00    +0.000 C 
ENDBRANCH  28  31
ENDBRANCH  20  29
ENDBRANCH   4  20
BRANCH   6  32
ATOM     32  O   UNL     1     110.188 130.073 136.899  0.00  0.00    +0.000 OA
BRANCH  32  41
ATOM     33  O   UNL     1     111.376 129.560 136.293  0.00  0.00    +0.000 OA
ATOM     34  O   UNL     1     110.001 128.281 134.680  0.00  0.00    +0.000 OA
ATOM     35  O   UNL     1     111.647 128.195 134.612  0.00  0.00    +0.000 OA
ATOM     36  O   UNL     1     109.271 129.220 135.824  0.00  0.00    +0.000 OA
ATOM     37  C   UNL     1     110.459 128.707 135.218  0.00  0.00    +0.000 C 
ATOM     38  C   UNL     1     111.282 128.664 135.183  0.00  0.00    +0.000 C 
ATOM     39  C   UNL     1     110.094 129.177 135.790  0.00  0.00    +0.000 C 
ATOM     40  C   UNL     1     111.741 129.091 135.721  0.00  0.00    +0.000 C 
ATOM     41  C   UNL     1     110.552 129.603 136.327  0.00  0.00    +0.000 C 
BRANCH  40  43
ATOM     42  O   UNL     1     113.007 129.729 135.543  0.00  0.00    +0.000 OA
ATOM     43  C   UNL     1     112.564 129.048 135.687  0.00  0.00    +0.000 C 
ENDBRANCH  40  43
ENDBRANCH  32  41
ENDBRANCH   6  32
BRANCH   5  44
ATOM     44  O   UNL     1     111.896 129.588 141.197  0.00  0.00    +0.000 OA
BRANCH  44  52
ATOM     45  O   UNL     1     113.229 130.006 140.896  0.00  0.00    +0.000 OA
ATOM     46  O   UNL     1     113.110 131.693 142.703  0.00  0.00    +0.000 OA
ATOM     47  O   UNL     1     111.817 130.713 142.402  0.00  0.00    +0.000 OA
ATOM     48  O   UNL     1     114.483 131.548 141.799  0.00  0.00    +0.000 OA
ATOM     49  C   UNL     1     113.150 131.130 142.101  0.00  0.00    +0.000 C 
ATOM     50  C   UNL     1     112.503 130.641 141.950  0.00  0.00    +0.000 C 
ATOM     51  C   UNL     1     113.836 131.058 141.648  0.00  0.00    +0.000 C 
ATOM     52  C   UNL     1     112.543 130.078 141.348  0.00  0.00    +0.000 C 
ATOM     53  C   UNL     1     113.876 130.496 141.046  0.00  0.00    +0.000 C 
BRANCH  53  56
ATOM     54  O   UNL     1     114.748 130.997 140.031  0.00  0.00    +0.000 OA
ATOM     55  O   UNL     1     115.063 129.777 140.705  0.00  0.00    +0.000 OA
ATOM     56  C   UNL     1     114.562 130.423 140.594  0.00  0.00    +0.000 C 
ENDBRANCH  53  56
ENDBRANCH  44  52
ENDBRANCH   5  44
TORSDOF 10
ENDMDL
MODEL 8
REMARK VINA RESULT:     -10.1      2.488      3.606
REMARK  Name = 131752149
REMARK  10 active torsions:
REMARK  status: ('A' for Active; 'I' for Inactive)
REMARK    1  A    between atoms: O_3  and  C_30
REMARK    2  A    between atoms: O_3  and  C_41
REMARK    3  A    between atoms: O_5  and  C_33
REMARK    4  A    between atoms: O_5  and  C_43
REMARK    5  A    between atoms: O_6  and  C_37
REMARK    6  A    between atoms: O_6  and  C_42
REMARK    7  A    between atoms: C_27  and  C_39
REMARK    8  A    between atoms: C_32  and  C_40
REMARK    9  A    between atoms: C_38  and  C_47
REMARK   10  A    between atoms: C_50  and  C_51
REMARK                            x       y       z     vdW  Elec       q    Type
REMARK                         _______ _______ _______ _____ _____    ______ ____
ROOT
ATOM      1  O   UNL     1     111.896 129.399 138.465  0.00  0.00    +0.000 OA
ATOM      2  O   UNL     1     110.632 131.386 140.138  0.00  0.00    +0.000 OA
ATOM      3  O   UNL     1     110.957 131.670 138.761  0.00  0.00    +0.000 OA
ATOM      4  C   UNL     1     110.940 130.078 140.710  0.00  0.00    +0.000 A 
ATOM      5  C   UNL     1     111.266 129.290 140.606  0.00  0.00    +0.000 A 
ATOM      6  C   UNL     1     111.583 130.687 137.933  0.00  0.00    +0.000 A 
ATOM      7  C   UNL     1     111.270 130.381 139.294  0.00  0.00    +0.000 A 
ATOM      8  C   UNL     1     110.942 130.627 140.048  0.00  0.00    +0.000 A 
ATOM      9  C   UNL     1     111.583 129.624 139.195  0.00  0.00    +0.000 A 
ATOM     10  C   UNL     1     111.589 129.061 139.844  0.00  0.00    +0.000 A 
ATOM     11  C   UNL     1     111.270 130.913 138.663  0.00  0.00    +0.000 A 
ATOM     12  C   UNL     1     111.895 129.930 137.834  0.00  0.00    +0.000 A 
ENDROOT
BRANCH  12  14
ATOM     13  O   UNL     1     113.144 129.028 134.916  0.00  0.00    +0.000 OA
ATOM     14  C   UNL     1     112.208 129.705 137.105  0.00  0.00    +0.000 A 
ATOM     15  C   UNL     1     112.933 130.009 136.855  0.00  0.00    +0.000 A 
ATOM     16  C   UNL     1     111.795 129.176 136.625  0.00  0.00    +0.000 A 
ATOM     17  C   UNL     1     113.244 129.783 136.125  0.00  0.00    +0.000 A 
ATOM     18  C   UNL     1     112.107 128.950 135.895  0.00  0.00    +0.000 A 
ATOM     19  C   UNL     1     112.832 129.254 135.646  0.00  0.00    +0.000 A 
ENDBRANCH  12  14
BRANCH   4  20
ATOM     20  O   UNL     1     110.627 130.306 141.438  0.00  0.00    +0.000 OA
BRANCH  20  29
ATOM     21  O   UNL     1     111.912 130.728 141.899  0.00  0.00    +0.000 OA
ATOM     22  O   UNL     1     110.835 132.028 143.709  0.00  0.00    +0.000 OA
ATOM     23  O   UNL     1     112.479 132.017 143.567  0.00  0.00    +0.000 OA
ATOM     24  O   UNL     1     109.909 131.172 142.645  0.00  0.00    +0.000 OA
ATOM     25  C   UNL     1     111.194 131.594 143.106  0.00  0.00    +0.000 C 
ATOM     26  C   UNL     1     112.015 131.589 143.034  0.00  0.00    +0.000 C 
ATOM     27  C   UNL     1     110.730 131.166 142.573  0.00  0.00    +0.000 C 
ATOM     28  C   UNL     1     112.374 131.155 142.431  0.00  0.00    +0.000 C 
ATOM     29  C   UNL     1     111.089 130.733 141.970  0.00  0.00    +0.000 C 
BRANCH  28  31
ATOM     30  O   UNL     1     113.557 131.494 141.703  0.00  0.00    +0.000 OA
ATOM     31  C   UNL     1     113.197 131.150 142.360  0.00  0.00    +0.000 C 
ENDBRANCH  28  31
ENDBRANCH  20  29
ENDBRANCH   4  20
BRANCH   6  32
ATOM     32  O   UNL     1     111.582 131.219 137.303  0.00  0.00    +0.000 OA
BRANCH  32  41
ATOM     33  O   UNL     1     110.187 131.078 137.026  0.00  0.00    +0.000 OA
ATOM     34  O   UNL     1     110.106 133.422 136.236  0.00  0.00    +0.000 OA
ATOM     35  O   UNL     1     108.739 132.498 136.223  0.00  0.00    +0.000 OA
ATOM     36  O   UNL     1     111.528 132.782 136.776  0.00  0.00    +0.000 OA
ATOM     37  C   UNL     1     110.133 132.641 136.500  0.00  0.00    +0.000 C 
ATOM     38  C   UNL     1     109.449 132.179 136.493  0.00  0.00    +0.000 C 
ATOM     39  C   UNL     1     110.844 132.321 136.770  0.00  0.00    +0.000 C 
ATOM     40  C   UNL     1     109.476 131.398 136.756  0.00  0.00    +0.000 C 
ATOM     41  C   UNL     1     110.871 131.539 137.033  0.00  0.00    +0.000 C 
BRANCH  40  43
ATOM     42  O   UNL     1     108.757 130.257 136.282  0.00  0.00    +0.000 OA
ATOM     43  C   UNL     1     108.793 130.935 136.750  0.00  0.00    +0.000 C 
ENDBRANCH  40  43
ENDBRANCH  32  41
ENDBRANCH   6  32
BRANCH   5  44
ATOM     44  O   UNL     1     111.267 128.755 141.235  0.00  0.00    +0.000 OA
BRANCH  44  52
ATOM     45  O   UNL     1     110.204 127.895 140.820  0.00  0.00    +0.000 OA
ATOM     46  O   UNL     1     111.557 125.920 141.448  0.00  0.00    +0.000 OA
ATOM     47  O   UNL     1     112.169 127.439 141.654  0.00  0.00    +0.000 OA
ATOM     48  O   UNL     1     110.043 125.719 140.824  0.00  0.00    +0.000 OA
ATOM     49  C   UNL     1     111.106 126.579 141.239  0.00  0.00    +0.000 C 
ATOM     50  C   UNL     1     111.412 127.338 141.342  0.00  0.00    +0.000 C 
ATOM     51  C   UNL     1     110.349 126.478 140.927  0.00  0.00    +0.000 C 
ATOM     52  C   UNL     1     110.961 127.996 141.132  0.00  0.00    +0.000 C 
ATOM     53  C   UNL     1     109.898 127.136 140.717  0.00  0.00    +0.000 C 
BRANCH  53  56
ATOM     54  O   UNL     1     109.044 126.875 139.602  0.00  0.00    +0.000 OA
ATOM     55  O   UNL     1     108.481 127.096 140.897  0.00  0.00    +0.000 OA
ATOM     56  C   UNL     1     109.141 127.036 140.405  0.00  0.00    +0.000 C 
ENDBRANCH  53  56
ENDBRANCH  44  52
ENDBRANCH   5  44
TORSDOF 10
ENDMDL
MODEL 9
REMARK VINA RESULT:     -10.1      2.030      4.478
REMARK  Name = 131752149
REMARK  10 active torsions:
REMARK  status: ('A' for Active; 'I' for Inactive)
REMARK    1  A    between atoms: O_3  and  C_30
REMARK    2  A    between atoms: O_3  and  C_41
REMARK    3  A    between atoms: O_5  and  C_33
REMARK    4  A    between atoms: O_5  and  C_43
REMARK    5  A    between atoms: O_6  and  C_37
REMARK    6  A    between atoms: O_6  and  C_42
REMARK    7  A    between atoms: C_27  and  C_39
REMARK    8  A    between atoms: C_32  and  C_40
REMARK    9  A    between atoms: C_38  and  C_47
REMARK   10  A    between atoms: C_50  and  C_51
REMARK                            x       y       z     vdW  Elec       q    Type
REMARK                         _______ _______ _______ _____ _____    ______ ____
ROOT
ATOM      1  O   UNL     1     111.703 131.193 138.323  0.00  0.00    +0.000 OA
ATOM      2  O   UNL     1     110.824 128.503 138.902  0.00  0.00    +0.000 OA
ATOM      3  O   UNL     1     110.029 129.386 138.084  0.00  0.00    +0.000 OA
ATOM      4  C   UNL     1     112.096 128.961 139.454  0.00  0.00    +0.000 A 
ATOM      5  C   UNL     1     112.677 129.589 139.536  0.00  0.00    +0.000 A 
ATOM      6  C   UNL     1     110.463 130.717 137.797  0.00  0.00    +0.000 A 
ATOM      7  C   UNL     1     111.269 129.862 138.610  0.00  0.00    +0.000 A 
ATOM      8  C   UNL     1     111.387 129.099 138.987  0.00  0.00    +0.000 A 
ATOM      9  C   UNL     1     111.827 130.464 138.690  0.00  0.00    +0.000 A 
ATOM     10  C   UNL     1     112.542 130.345 139.152  0.00  0.00    +0.000 A 
ATOM     11  C   UNL     1     110.587 129.989 138.164  0.00  0.00    +0.000 A 
ATOM     12  C   UNL     1     111.021 131.319 137.877  0.00  0.00    +0.000 A 
ENDROOT
BRANCH  12  14
ATOM     13  O   UNL     1     110.525 134.233 136.410  0.00  0.00    +0.000 OA
ATOM     14  C   UNL     1     110.897 132.048 137.510  0.00  0.00    +0.000 A 
ATOM     15  C   UNL     1     110.331 132.569 137.809  0.00  0.00    +0.000 A 
ATOM     16  C   UNL     1     111.338 132.255 136.845  0.00  0.00    +0.000 A 
ATOM     17  C   UNL     1     110.208 133.297 137.442  0.00  0.00    +0.000 A 
ATOM     18  C   UNL     1     111.214 132.984 136.478  0.00  0.00    +0.000 A 
ATOM     19  C   UNL     1     110.649 133.505 136.776  0.00  0.00    +0.000 A 
ENDBRANCH  12  14
BRANCH   4  20
ATOM     20  O   UNL     1     112.217 128.232 139.819  0.00  0.00    +0.000 OA
BRANCH  20  29
ATOM     21  O   UNL     1     112.914 127.694 138.693  0.00  0.00    +0.000 OA
ATOM     22  O   UNL     1     112.273 125.407 139.390  0.00  0.00    +0.000 OA
ATOM     23  O   UNL     1     113.184 125.631 138.032  0.00  0.00    +0.000 OA
ATOM     24  O   UNL     1     111.790 126.707 140.283  0.00  0.00    +0.000 OA
ATOM     25  C   UNL     1     112.487 126.169 139.158  0.00  0.00    +0.000 C 
ATOM     26  C   UNL     1     112.942 126.282 138.479  0.00  0.00    +0.000 C 
ATOM     27  C   UNL     1     112.245 126.820 139.605  0.00  0.00    +0.000 C 
ATOM     28  C   UNL     1     113.155 127.044 138.247  0.00  0.00    +0.000 C 
ATOM     29  C   UNL     1     112.459 127.582 139.373  0.00  0.00    +0.000 C 
BRANCH  28  31
ATOM     30  O   UNL     1     113.274 127.495 136.896  0.00  0.00    +0.000 OA
ATOM     31  C   UNL     1     113.611 127.156 137.568  0.00  0.00    +0.000 C 
ENDBRANCH  28  31
ENDBRANCH  20  29
ENDBRANCH   4  20
BRANCH   6  32
ATOM     32  O   UNL     1     109.781 130.843 137.351  0.00  0.00    +0.000 OA
BRANCH  32  41
ATOM     33  O   UNL     1     110.200 130.038 136.247  0.00  0.00    +0.000 OA
ATOM     34  O   UNL     1     107.844 129.422 135.802  0.00  0.00    +0.000 OA
ATOM     35  O   UNL     1     109.049 128.824 134.847  0.00  0.00    +0.000 OA
ATOM     36  O   UNL     1     108.210 130.432 137.054  0.00  0.00    +0.000 OA
ATOM     37  C   UNL     1     108.629 129.628 135.950  0.00  0.00    +0.000 C 
ATOM     38  C   UNL     1     109.232 129.328 135.472  0.00  0.00    +0.000 C 
ATOM     39  C   UNL     1     108.812 130.132 136.576  0.00  0.00    +0.000 C 
ATOM     40  C   UNL     1     110.017 129.534 135.621  0.00  0.00    +0.000 C 
ATOM     41  C   UNL     1     109.598 130.338 136.725  0.00  0.00    +0.000 C 
BRANCH  40  43
ATOM     42  O   UNL     1     111.121 129.750 134.739  0.00  0.00    +0.000 OA
ATOM     43  C   UNL     1     110.620 129.235 135.143  0.00  0.00    +0.000 C 
ENDBRANCH  40  43
ENDBRANCH  32  41
ENDBRANCH   6  32
BRANCH   5  44
ATOM     44  O   UNL     1     113.360 129.466 139.982  0.00  0.00    +0.000 OA
BRANCH  44  52
ATOM     45  O   UNL     1     113.057 130.252 141.137  0.00  0.00    +0.000 OA
ATOM     46  O   UNL     1     115.334 131.220 141.075  0.00  0.00    +0.000 OA
ATOM     47  O   UNL     1     114.878 130.111 139.941  0.00  0.00    +0.000 OA
ATOM     48  O   UNL     1     114.272 131.683 142.250  0.00  0.00    +0.000 OA
ATOM     49  C   UNL     1     114.575 130.897 141.095  0.00  0.00    +0.000 C 
ATOM     50  C   UNL     1     114.347 130.343 140.529  0.00  0.00    +0.000 C 
ATOM     51  C   UNL     1     114.044 131.129 141.683  0.00  0.00    +0.000 C 
ATOM     52  C   UNL     1     113.588 130.020 140.549  0.00  0.00    +0.000 C 
ATOM     53  C   UNL     1     113.285 130.806 141.703  0.00  0.00    +0.000 C 
BRANCH  53  56
ATOM     54  O   UNL     1     112.410 131.786 142.264  0.00  0.00    +0.000 OA
ATOM     55  O   UNL     1     112.568 130.519 142.906  0.00  0.00    +0.000 OA
ATOM     56  C   UNL     1     112.754 131.037 142.291  0.00  0.00    +0.000 C 
ENDBRANCH  53  56
ENDBRANCH  44  52
ENDBRANCH   5  44
TORSDOF 10
ENDMDL
MODEL 10
REMARK VINA RESULT:     -10.1      6.731      9.369
REMARK  Name = 131752149
REMARK  10 active torsions:
REMARK  status: ('A' for Active; 'I' for Inactive)
REMARK    1  A    between atoms: O_3  and  C_30
REMARK    2  A    between atoms: O_3  and  C_41
REMARK    3  A    between atoms: O_5  and  C_33
REMARK    4  A    between atoms: O_5  and  C_43
REMARK    5  A    between atoms: O_6  and  C_37
REMARK    6  A    between atoms: O_6  and  C_42
REMARK    7  A    between atoms: C_27  and  C_39
REMARK    8  A    between atoms: C_32  and  C_40
REMARK    9  A    between atoms: C_38  and  C_47
REMARK   10  A    between atoms: C_50  and  C_51
REMARK                            x       y       z     vdW  Elec       q    Type
REMARK                         _______ _______ _______ _____ _____    ______ ____
ROOT
ATOM      1  O   UNL     1     104.960 128.053 143.089  0.00  0.00    +0.000 OA
ATOM      2  O   UNL     1     106.370 127.570 145.563  0.00  0.00    +0.000 OA
ATOM      3  O   UNL     1     105.790 128.860 145.276  0.00  0.00    +0.000 OA
ATOM      4  C   UNL     1     106.251 126.481 144.598  0.00  0.00    +0.000 A 
ATOM      5  C   UNL     1     105.962 126.202 143.838  0.00  0.00    +0.000 A 
ATOM      6  C   UNL     1     105.093 129.100 144.053  0.00  0.00    +0.000 A 
ATOM      7  C   UNL     1     105.658 127.813 144.313  0.00  0.00    +0.000 A 
ATOM      8  C   UNL     1     106.097 127.293 144.836  0.00  0.00    +0.000 A 
ATOM      9  C   UNL     1     105.381 127.544 143.584  0.00  0.00    +0.000 A 
ATOM     10  C   UNL     1     105.525 126.737 143.328  0.00  0.00    +0.000 A 
ATOM     11  C   UNL     1     105.514 128.591 144.547  0.00  0.00    +0.000 A 
ATOM     12  C   UNL     1     104.816 128.830 143.323  0.00  0.00    +0.000 A 
ENDROOT
BRANCH  12  14
ATOM     13  O   UNL     1     103.131 130.865 141.346  0.00  0.00    +0.000 OA
ATOM     14  C   UNL     1     104.395 129.339 142.829  0.00  0.00    +0.000 A 
ATOM     15  C   UNL     1     104.732 129.600 142.122  0.00  0.00    +0.000 A 
ATOM     16  C   UNL     1     103.637 129.587 143.041  0.00  0.00    +0.000 A 
ATOM     17  C   UNL     1     104.310 130.108 141.628  0.00  0.00    +0.000 A 
ATOM     18  C   UNL     1     103.216 130.096 142.546  0.00  0.00    +0.000 A 
ATOM     19  C   UNL     1     103.552 130.357 141.840  0.00  0.00    +0.000 A 
ENDBRANCH  12  14
BRANCH   4  20
ATOM     20  O   UNL     1     106.672 125.975 145.094  0.00  0.00    +0.000 OA
BRANCH  20  29
ATOM     21  O   UNL     1     105.468 125.536 145.727  0.00  0.00    +0.000 OA
ATOM     22  O   UNL     1     106.791 124.627 147.611  0.00  0.00    +0.000 OA
ATOM     23  O   UNL     1     105.146 124.491 147.616  0.00  0.00    +0.000 OA
ATOM     24  O   UNL     1     107.554 125.368 146.350  0.00  0.00    +0.000 OA
ATOM     25  C   UNL     1     106.350 124.930 146.983  0.00  0.00    +0.000 C 
ATOM     26  C   UNL     1     105.528 124.862 146.985  0.00  0.00    +0.000 C 
ATOM     27  C   UNL     1     106.732 125.301 146.352  0.00  0.00    +0.000 C 
ATOM     28  C   UNL     1     105.087 125.166 146.357  0.00  0.00    +0.000 C 
ATOM     29  C   UNL     1     106.291 125.604 145.724  0.00  0.00    +0.000 C 
BRANCH  28  31
ATOM     30  O   UNL     1     103.887 124.626 145.799  0.00  0.00    +0.000 OA
ATOM     31  C   UNL     1     104.265 125.098 146.360  0.00  0.00    +0.000 C 
ENDBRANCH  28  31
ENDBRANCH  20  29
ENDBRANCH   4  20
BRANCH   6  32
ATOM     32  O   UNL     1     104.949 129.877 144.288  0.00  0.00    +0.000 OA
BRANCH  32  41
ATOM     33  O   UNL     1     106.279 130.329 144.025  0.00  0.00    +0.000 OA
ATOM     34  O   UNL     1     106.074 131.990 145.849  0.00  0.00    +0.000 OA
ATOM     35  O   UNL     1     107.471 131.888 144.978  0.00  0.00    +0.000 OA
ATOM     36  O   UNL     1     104.812 130.984 145.503  0.00  0.00    +0.000 OA
ATOM     37  C   UNL     1     106.142 131.436 145.241  0.00  0.00    +0.000 C 
ATOM     38  C   UNL     1     106.841 131.385 144.806  0.00  0.00    +0.000 C 
ATOM     39  C   UNL     1     105.511 130.933 145.068  0.00  0.00    +0.000 C 
ATOM     40  C   UNL     1     106.909 130.832 144.198  0.00  0.00    +0.000 C 
ATOM     41  C   UNL     1     105.580 130.380 144.460  0.00  0.00    +0.000 C 
BRANCH  40  43
ATOM     42  O   UNL     1     107.605 130.950 142.955  0.00  0.00    +0.000 OA
ATOM     43  C   UNL     1     107.608 130.780 143.762  0.00  0.00    +0.000 C 
ENDBRANCH  40  43
ENDBRANCH  32  41
ENDBRANCH   6  32
BRANCH   5  44
ATOM     44  O   UNL     1     106.105 125.425 143.601  0.00  0.00    +0.000 OA
BRANCH  44  52
ATOM     45  O   UNL     1     106.951 125.660 142.473  0.00  0.00    +0.000 OA
ATOM     46  O   UNL     1     105.672 123.992 141.166  0.00  0.00    +0.000 OA
ATOM     47  O   UNL     1     105.252 124.312 142.729  0.00  0.00    +0.000 OA
ATOM     48  O   UNL     1     106.944 124.783 140.474  0.00  0.00    +0.000 OA
ATOM     49  C   UNL     1     106.098 124.548 141.602  0.00  0.00    +0.000 C 
ATOM     50  C   UNL     1     105.888 124.708 142.383  0.00  0.00    +0.000 C 
ATOM     51  C   UNL     1     106.734 124.943 141.256  0.00  0.00    +0.000 C 
ATOM     52  C   UNL     1     106.314 125.264 142.819  0.00  0.00    +0.000 C 
ATOM     53  C   UNL     1     107.160 125.499 141.691  0.00  0.00    +0.000 C 
BRANCH  53  56
ATOM     54  O   UNL     1     107.665 126.573 140.895  0.00  0.00    +0.000 OA
ATOM     55  O   UNL     1     108.564 125.611 141.449  0.00  0.00    +0.000 OA
ATOM     56  C   UNL     1     107.796 125.895 141.345  0.00  0.00    +0.000 C 
ENDBRANCH  53  56
ENDBRANCH  44  52
ENDBRANCH   5  44
TORSDOF 10
ENDMDL
