MODEL 1
REMARK VINA RESULT:     -10.4      0.000      0.000
REMARK  Name = 16760075
REMARK  7 active torsions:
REMARK  status: ('A' for Active; 'I' for Inactive)
REMARK    1  A    between atoms: O_2  and  C_20
REMARK    2  A    between atoms: O_2  and  C_24
REMARK    3  A    between atoms: O_5  and  C_23
REMARK    4  A    between atoms: O_5  and  C_27
REMARK    5  A    between atoms: O_14  and  C_41
REMARK    6  A    between atoms: C_15  and  C_24
REMARK    7  A    between atoms: C_32  and  C_36
REMARK                            x       y       z     vdW  Elec       q    Type
REMARK                         _______ _______ _______ _____ _____    ______ ____
ROOT
ATOM      1  O   UNL     1     108.956 128.379 136.646  0.00  0.00    +0.000 OA
ENDROOT
BRANCH   1   5
ATOM      2  O   UNL     1     111.084 126.390 136.606  0.00  0.00    +0.000 OA
ATOM      3  O   UNL     1     108.904 126.183 134.722  0.00  0.00    +0.000 OA
ATOM      4  O   UNL     1     109.975 125.216 134.731  0.00  0.00    +0.000 OA
ATOM      5  C   UNL     1     109.293 127.697 136.325  0.00  0.00    +0.000 A 
ATOM      6  C   UNL     1     110.031 127.390 136.640  0.00  0.00    +0.000 A 
ATOM      7  C   UNL     1     110.375 126.680 136.300  0.00  0.00    +0.000 A 
ATOM      8  C   UNL     1     108.908 127.290 135.675  0.00  0.00    +0.000 A 
ATOM      9  C   UNL     1     110.005 126.289 135.675  0.00  0.00    +0.000 A 
ATOM     10  C   UNL     1     111.423 125.709 136.287  0.00  0.00    +0.000 C 
ATOM     11  C   UNL     1     111.054 125.317 135.663  0.00  0.00    +0.000 C 
ATOM     12  C   UNL     1     109.266 126.581 135.346  0.00  0.00    +0.000 A 
ATOM     13  C   UNL     1     110.345 125.607 135.356  0.00  0.00    +0.000 C 
BRANCH  10  14
ATOM     14  C   UNL     1     112.132 125.419 136.594  0.00  0.00    +0.000 A 
ATOM     15  C   UNL     1     112.149 124.689 136.976  0.00  0.00    +0.000 A 
ATOM     16  C   UNL     1     112.825 125.860 136.518  0.00  0.00    +0.000 A 
ATOM     17  C   UNL     1     112.857 124.399 137.282  0.00  0.00    +0.000 A 
ATOM     18  C   UNL     1     113.534 125.570 136.824  0.00  0.00    +0.000 A 
ATOM     19  C   UNL     1     113.550 124.840 137.206  0.00  0.00    +0.000 A 
BRANCH  19  20
ATOM     20  O   UNL     1     114.259 124.550 137.513  0.00  0.00    +0.000 OA
ATOM     21  C   UNL     1     114.975 124.740 137.149  0.00  0.00    +0.000 C 
ENDBRANCH  19  20
ENDBRANCH  10  14
ENDBRANCH   1   5
BRANCH   1  30
ATOM     22  O   UNL     1     109.940 129.356 136.300  0.00  0.00    +0.000 OA
ATOM     23  O   UNL     1     109.731 131.341 135.414  0.00  0.00    +0.000 OA
ATOM     24  O   UNL     1     108.153 130.866 135.491  0.00  0.00    +0.000 OA
ATOM     25  O   UNL     1     107.765 129.385 136.107  0.00  0.00    +0.000 OA
ATOM     26  C   UNL     1     110.133 130.096 135.992  0.00  0.00    +0.000 C 
ATOM     27  C   UNL     1     109.537 130.600 135.722  0.00  0.00    +0.000 C 
ATOM     28  C   UNL     1     108.749 130.362 135.761  0.00  0.00    +0.000 C 
ATOM     29  C   UNL     1     108.555 129.622 136.069  0.00  0.00    +0.000 C 
ATOM     30  C   UNL     1     109.150 129.119 136.338  0.00  0.00    +0.000 C 
BRANCH  26  31
ATOM     31  C   UNL     1     110.922 130.334 135.953  0.00  0.00    +0.000 C 
BRANCH  31  32
ATOM     32  O   UNL     1     111.399 130.295 136.625  0.00  0.00    +0.000 OA
BRANCH  32  38
ATOM     33  O   UNL     1     112.568 129.813 135.960  0.00  0.00    +0.000 OA
ATOM     34  O   UNL     1     112.345 131.181 137.646  0.00  0.00    +0.000 OA
ATOM     35  O   UNL     1     113.987 131.143 137.491  0.00  0.00    +0.000 OA
ATOM     36  O   UNL     1     114.684 130.218 136.316  0.00  0.00    +0.000 OA
ATOM     37  C   UNL     1     112.693 130.718 137.058  0.00  0.00    +0.000 C 
ATOM     38  C   UNL     1     112.220 130.275 136.548  0.00  0.00    +0.000 C 
ATOM     39  C   UNL     1     113.514 130.700 136.981  0.00  0.00    +0.000 C 
ATOM     40  C   UNL     1     113.862 130.237 136.393  0.00  0.00    +0.000 C 
ATOM     41  C   UNL     1     113.389 129.794 135.883  0.00  0.00    +0.000 C 
ATOM     42  C   UNL     1     113.738 129.331 135.295  0.00  0.00    +0.000 C 
ENDBRANCH  32  38
ENDBRANCH  31  32
ENDBRANCH  26  31
ENDBRANCH   1  30
TORSDOF 7
ENDMDL
MODEL 2
REMARK VINA RESULT:     -10.1     10.600     12.848
REMARK  Name = 16760075
REMARK  7 active torsions:
REMARK  status: ('A' for Active; 'I' for Inactive)
REMARK    1  A    between atoms: O_2  and  C_20
REMARK    2  A    between atoms: O_2  and  C_24
REMARK    3  A    between atoms: O_5  and  C_23
REMARK    4  A    between atoms: O_5  and  C_27
REMARK    5  A    between atoms: O_14  and  C_41
REMARK    6  A    between atoms: C_15  and  C_24
REMARK    7  A    between atoms: C_32  and  C_36
REMARK                            x       y       z     vdW  Elec       q    Type
REMARK                         _______ _______ _______ _____ _____    ______ ____
ROOT
ATOM      1  O   UNL     1     107.138 125.879 146.037  0.00  0.00    +0.000 OA
ENDROOT
BRANCH   1   5
ATOM      2  O   UNL     1     105.730 127.497 144.066  0.00  0.00    +0.000 OA
ATOM      3  O   UNL     1     106.481 128.668 146.598  0.00  0.00    +0.000 OA
ATOM      4  O   UNL     1     105.783 129.439 145.598  0.00  0.00    +0.000 OA
ATOM      5  C   UNL     1     106.802 126.597 145.808  0.00  0.00    +0.000 A 
ATOM      6  C   UNL     1     106.432 126.675 145.037  0.00  0.00    +0.000 A 
ATOM      7  C   UNL     1     106.085 127.427 144.807  0.00  0.00    +0.000 A 
ATOM      8  C   UNL     1     106.820 127.271 146.340  0.00  0.00    +0.000 A 
ATOM      9  C   UNL     1     106.102 128.075 145.319  0.00  0.00    +0.000 A 
ATOM     10  C   UNL     1     105.394 128.214 143.835  0.00  0.00    +0.000 C 
ATOM     11  C   UNL     1     105.411 128.861 144.345  0.00  0.00    +0.000 C 
ATOM     12  C   UNL     1     106.468 128.016 146.094  0.00  0.00    +0.000 A 
ATOM     13  C   UNL     1     105.765 128.792 145.087  0.00  0.00    +0.000 C 
BRANCH  10  14
ATOM     14  C   UNL     1     105.040 128.283 143.093  0.00  0.00    +0.000 A 
ATOM     15  C   UNL     1     104.447 128.842 142.969  0.00  0.00    +0.000 A 
ATOM     16  C   UNL     1     105.279 127.793 142.474  0.00  0.00    +0.000 A 
ATOM     17  C   UNL     1     104.093 128.912 142.228  0.00  0.00    +0.000 A 
ATOM     18  C   UNL     1     104.926 127.862 141.732  0.00  0.00    +0.000 A 
ATOM     19  C   UNL     1     104.332 128.421 141.609  0.00  0.00    +0.000 A 
BRANCH  19  20
ATOM     20  O   UNL     1     103.978 128.491 140.867  0.00  0.00    +0.000 OA
ATOM     21  C   UNL     1     103.308 128.963 140.771  0.00  0.00    +0.000 C 
ENDBRANCH  19  20
ENDBRANCH  10  14
ENDBRANCH   1   5
BRANCH   1  30
ATOM     22  O   UNL     1     106.029 125.240 146.672  0.00  0.00    +0.000 OA
ATOM     23  O   UNL     1     105.883 124.208 148.591  0.00  0.00    +0.000 OA
ATOM     24  O   UNL     1     107.473 124.651 148.595  0.00  0.00    +0.000 OA
ATOM     25  O   UNL     1     108.100 125.486 147.318  0.00  0.00    +0.000 OA
ATOM     26  C   UNL     1     105.716 124.822 147.311  0.00  0.00    +0.000 C 
ATOM     27  C   UNL     1     106.197 124.626 147.953  0.00  0.00    +0.000 C 
ATOM     28  C   UNL     1     106.992 124.847 147.954  0.00  0.00    +0.000 C 
ATOM     29  C   UNL     1     107.305 125.265 147.315  0.00  0.00    +0.000 C 
ATOM     30  C   UNL     1     106.824 125.461 146.675  0.00  0.00    +0.000 C 
BRANCH  26  31
ATOM     31  C   UNL     1     104.921 124.601 147.310  0.00  0.00    +0.000 C 
BRANCH  31  32
ATOM     32  O   UNL     1     104.586 124.268 146.633  0.00  0.00    +0.000 OA
BRANCH  32  38
ATOM     33  O   UNL     1     103.255 124.569 147.056  0.00  0.00    +0.000 OA
ATOM     34  O   UNL     1     104.009 123.049 145.682  0.00  0.00    +0.000 OA
ATOM     35  O   UNL     1     102.388 122.741 145.630  0.00  0.00    +0.000 OA
ATOM     36  O   UNL     1     101.346 123.652 146.528  0.00  0.00    +0.000 OA
ATOM     37  C   UNL     1     103.487 123.505 146.132  0.00  0.00    +0.000 C 
ATOM     38  C   UNL     1     103.776 124.115 146.607  0.00  0.00    +0.000 C 
ATOM     39  C   UNL     1     102.677 123.351 146.105  0.00  0.00    +0.000 C 
ATOM     40  C   UNL     1     102.157 123.806 146.554  0.00  0.00    +0.000 C 
ATOM     41  C   UNL     1     102.445 124.416 147.030  0.00  0.00    +0.000 C 
ATOM     42  C   UNL     1     101.923 124.871 147.479  0.00  0.00    +0.000 C 
ENDBRANCH  32  38
ENDBRANCH  31  32
ENDBRANCH  26  31
ENDBRANCH   1  30
TORSDOF 7
ENDMDL
MODEL 3
REMARK VINA RESULT:     -10.1      1.545      4.711
REMARK  Name = 16760075
REMARK  7 active torsions:
REMARK  status: ('A' for Active; 'I' for Inactive)
REMARK    1  A    between atoms: O_2  and  C_20
REMARK    2  A    between atoms: O_2  and  C_24
REMARK    3  A    between atoms: O_5  and  C_23
REMARK    4  A    between atoms: O_5  and  C_27
REMARK    5  A    between atoms: O_14  and  C_41
REMARK    6  A    between atoms: C_15  and  C_24
REMARK    7  A    between atoms: C_32  and  C_36
REMARK                            x       y       z     vdW  Elec       q    Type
REMARK                         _______ _______ _______ _____ _____    ______ ____
ROOT
ATOM      1  O   UNL     1     110.530 129.609 135.303  0.00  0.00    +0.000 OA
ENDROOT
BRANCH   1   5
ATOM      2  O   UNL     1     112.628 129.833 137.311  0.00  0.00    +0.000 OA
ATOM      3  O   UNL     1     113.315 129.068 134.612  0.00  0.00    +0.000 OA
ATOM      4  O   UNL     1     114.328 129.189 135.632  0.00  0.00    +0.000 OA
ATOM      5  C   UNL     1     111.326 129.557 135.517  0.00  0.00    +0.000 A 
ATOM      6  C   UNL     1     111.570 129.726 136.323  0.00  0.00    +0.000 A 
ATOM      7  C   UNL     1     112.400 129.669 136.536  0.00  0.00    +0.000 A 
ATOM      8  C   UNL     1     111.916 129.333 134.934  0.00  0.00    +0.000 A 
ATOM      9  C   UNL     1     112.967 129.455 135.976  0.00  0.00    +0.000 A 
ATOM     10  C   UNL     1     113.423 129.782 137.527  0.00  0.00    +0.000 C 
ATOM     11  C   UNL     1     113.990 129.567 136.968  0.00  0.00    +0.000 C 
ATOM     12  C   UNL     1     112.742 129.281 135.165  0.00  0.00    +0.000 A 
ATOM     13  C   UNL     1     113.762 129.404 136.192  0.00  0.00    +0.000 C 
BRANCH  10  14
ATOM     14  C   UNL     1     113.651 129.946 138.303  0.00  0.00    +0.000 A 
ATOM     15  C   UNL     1     114.160 130.575 138.460  0.00  0.00    +0.000 A 
ATOM     16  C   UNL     1     113.369 129.480 138.923  0.00  0.00    +0.000 A 
ATOM     17  C   UNL     1     114.388 130.738 139.235  0.00  0.00    +0.000 A 
ATOM     18  C   UNL     1     113.597 129.643 139.699  0.00  0.00    +0.000 A 
ATOM     19  C   UNL     1     114.106 130.272 139.855  0.00  0.00    +0.000 A 
BRANCH  19  20
ATOM     20  O   UNL     1     114.334 130.436 140.631  0.00  0.00    +0.000 OA
ATOM     21  C   UNL     1     114.963 130.951 140.777  0.00  0.00    +0.000 C 
ENDBRANCH  19  20
ENDBRANCH  10  14
ENDBRANCH   1   5
BRANCH   1  30
ATOM     22  O   UNL     1     110.279 128.302 135.823  0.00  0.00    +0.000 OA
ATOM     23  O   UNL     1     108.403 127.285 136.286  0.00  0.00    +0.000 OA
ATOM     24  O   UNL     1     107.843 128.737 135.737  0.00  0.00    +0.000 OA
ATOM     25  O   UNL     1     108.907 129.899 135.246  0.00  0.00    +0.000 OA
ATOM     26  C   UNL     1     109.747 127.721 136.069  0.00  0.00    +0.000 C 
ATOM     27  C   UNL     1     108.935 127.866 136.040  0.00  0.00    +0.000 C 
ATOM     28  C   UNL     1     108.656 128.592 135.766  0.00  0.00    +0.000 C 
ATOM     29  C   UNL     1     109.188 129.173 135.520  0.00  0.00    +0.000 C 
ATOM     30  C   UNL     1     109.999 129.028 135.549  0.00  0.00    +0.000 C 
BRANCH  26  31
ATOM     31  C   UNL     1     110.026 126.995 136.343  0.00  0.00    +0.000 C 
BRANCH  31  32
ATOM     32  O   UNL     1     110.538 126.546 135.877  0.00  0.00    +0.000 OA
BRANCH  32  38
ATOM     33  O   UNL     1     111.537 126.246 136.854  0.00  0.00    +0.000 OA
ATOM     34  O   UNL     1     110.597 124.987 135.338  0.00  0.00    +0.000 OA
ATOM     35  O   UNL     1     111.625 123.908 136.046  0.00  0.00    +0.000 OA
ATOM     36  O   UNL     1     112.595 124.388 137.292  0.00  0.00    +0.000 OA
ATOM     37  C   UNL     1     111.082 125.227 135.962  0.00  0.00    +0.000 C 
ATOM     38  C   UNL     1     111.052 126.006 136.231  0.00  0.00    +0.000 C 
ATOM     39  C   UNL     1     111.596 124.687 136.315  0.00  0.00    +0.000 C 
ATOM     40  C   UNL     1     112.080 124.928 136.938  0.00  0.00    +0.000 C 
ATOM     41  C   UNL     1     112.051 125.707 137.207  0.00  0.00    +0.000 C 
ATOM     42  C   UNL     1     112.536 125.946 137.831  0.00  0.00    +0.000 C 
ENDBRANCH  32  38
ENDBRANCH  31  32
ENDBRANCH  26  31
ENDBRANCH   1  30
TORSDOF 7
ENDMDL
MODEL 4
REMARK VINA RESULT:     -10.0      2.587      5.782
REMARK  Name = 16760075
REMARK  7 active torsions:
REMARK  status: ('A' for Active; 'I' for Inactive)
REMARK    1  A    between atoms: O_2  and  C_20
REMARK    2  A    between atoms: O_2  and  C_24
REMARK    3  A    between atoms: O_5  and  C_23
REMARK    4  A    between atoms: O_5  and  C_27
REMARK    5  A    between atoms: O_14  and  C_41
REMARK    6  A    between atoms: C_15  and  C_24
REMARK    7  A    between atoms: C_32  and  C_36
REMARK                            x       y       z     vdW  Elec       q    Type
REMARK                         _______ _______ _______ _____ _____    ______ ____
ROOT
ATOM      1  O   UNL     1     112.339 127.950 140.384  0.00  0.00    +0.000 OA
ENDROOT
BRANCH   1   5
ATOM      2  O   UNL     1     113.279 129.350 138.009  0.00  0.00    +0.000 OA
ATOM      3  O   UNL     1     111.199 130.530 139.629  0.00  0.00    +0.000 OA
ATOM      4  O   UNL     1     111.689 131.195 138.445  0.00  0.00    +0.000 OA
ATOM      5  C   UNL     1     112.306 128.599 139.874  0.00  0.00    +0.000 A 
ATOM      6  C   UNL     1     112.823 128.638 139.190  0.00  0.00    +0.000 A 
ATOM      7  C   UNL     1     112.780 129.318 138.665  0.00  0.00    +0.000 A 
ATOM      8  C   UNL     1     111.754 129.239 140.027  0.00  0.00    +0.000 A 
ATOM      9  C   UNL     1     112.250 129.933 138.811  0.00  0.00    +0.000 A 
ATOM     10  C   UNL     1     113.248 129.997 137.498  0.00  0.00    +0.000 C 
ATOM     11  C   UNL     1     112.718 130.612 137.643  0.00  0.00    +0.000 C 
ATOM     12  C   UNL     1     111.725 129.911 139.491  0.00  0.00    +0.000 A 
ATOM     13  C   UNL     1     112.219 130.580 138.300  0.00  0.00    +0.000 C 
BRANCH  10  14
ATOM     14  C   UNL     1     113.747 130.030 136.842  0.00  0.00    +0.000 A 
ATOM     15  C   UNL     1     114.400 130.532 136.844  0.00  0.00    +0.000 A 
ATOM     16  C   UNL     1     113.592 129.558 136.183  0.00  0.00    +0.000 A 
ATOM     17  C   UNL     1     114.898 130.565 136.188  0.00  0.00    +0.000 A 
ATOM     18  C   UNL     1     114.090 129.590 135.526  0.00  0.00    +0.000 A 
ATOM     19  C   UNL     1     114.744 130.094 135.529  0.00  0.00    +0.000 A 
BRANCH  19  20
ATOM     20  O   UNL     1     115.242 130.126 134.873  0.00  0.00    +0.000 OA
ATOM     21  C   UNL     1     115.545 130.851 134.619  0.00  0.00    +0.000 C 
ENDBRANCH  19  20
ENDBRANCH  10  14
ENDBRANCH   1   5
BRANCH   1  30
ATOM     22  O   UNL     1     111.533 127.061 139.609  0.00  0.00    +0.000 OA
ATOM     23  O   UNL     1     110.028 125.600 140.218  0.00  0.00    +0.000 OA
ATOM     24  O   UNL     1     110.485 126.206 141.683  0.00  0.00    +0.000 OA
ATOM     25  O   UNL     1     111.641 127.381 141.766  0.00  0.00    +0.000 OA
ATOM     26  C   UNL     1     110.956 126.473 139.568  0.00  0.00    +0.000 C 
ATOM     27  C   UNL     1     110.606 126.188 140.259  0.00  0.00    +0.000 C 
ATOM     28  C   UNL     1     110.835 126.491 140.991  0.00  0.00    +0.000 C 
ATOM     29  C   UNL     1     111.413 127.079 141.033  0.00  0.00    +0.000 C 
ATOM     30  C   UNL     1     111.761 127.363 140.342  0.00  0.00    +0.000 C 
BRANCH  26  31
ATOM     31  C   UNL     1     110.727 126.170 138.835  0.00  0.00    +0.000 C 
BRANCH  31  32
ATOM     32  O   UNL     1     111.291 125.849 138.327  0.00  0.00    +0.000 OA
BRANCH  32  38
ATOM     33  O   UNL     1     110.549 126.146 137.142  0.00  0.00    +0.000 OA
ATOM     34  O   UNL     1     111.972 124.548 137.573  0.00  0.00    +0.000 OA
ATOM     35  O   UNL     1     111.570 124.195 136.012  0.00  0.00    +0.000 OA
ATOM     36  O   UNL     1     110.487 125.143 135.205  0.00  0.00    +0.000 OA
ATOM     37  C   UNL     1     111.430 125.022 137.169  0.00  0.00    +0.000 C 
ATOM     38  C   UNL     1     111.090 125.673 137.546  0.00  0.00    +0.000 C 
ATOM     39  C   UNL     1     111.229 124.845 136.389  0.00  0.00    +0.000 C 
ATOM     40  C   UNL     1     110.688 125.319 135.986  0.00  0.00    +0.000 C 
ATOM     41  C   UNL     1     110.348 125.970 136.363  0.00  0.00    +0.000 C 
ATOM     42  C   UNL     1     109.806 126.443 135.958  0.00  0.00    +0.000 C 
ENDBRANCH  32  38
ENDBRANCH  31  32
ENDBRANCH  26  31
ENDBRANCH   1  30
TORSDOF 7
ENDMDL
MODEL 5
REMARK VINA RESULT:     -10.0      1.740      3.550
REMARK  Name = 16760075
REMARK  7 active torsions:
REMARK  status: ('A' for Active; 'I' for Inactive)
REMARK    1  A    between atoms: O_2  and  C_20
REMARK    2  A    between atoms: O_2  and  C_24
REMARK    3  A    between atoms: O_5  and  C_23
REMARK    4  A    between atoms: O_5  and  C_27
REMARK    5  A    between atoms: O_14  and  C_41
REMARK    6  A    between atoms: C_15  and  C_24
REMARK    7  A    between atoms: C_32  and  C_36
REMARK                            x       y       z     vdW  Elec       q    Type
REMARK                         _______ _______ _______ _____ _____    ______ ____
ROOT
ATOM      1  O   UNL     1     112.776 129.529 134.932  0.00  0.00    +0.000 OA
ENDROOT
BRANCH   1   5
ATOM      2  O   UNL     1     111.778 126.942 135.824  0.00  0.00    +0.000 OA
ATOM      3  O   UNL     1     109.958 128.832 134.616  0.00  0.00    +0.000 OA
ATOM      4  O   UNL     1     109.499 127.542 135.069  0.00  0.00    +0.000 OA
ATOM      5  C   UNL     1     112.153 128.994 135.025  0.00  0.00    +0.000 A 
ATOM      6  C   UNL     1     112.293 128.227 135.385  0.00  0.00    +0.000 A 
ATOM      7  C   UNL     1     111.638 127.678 135.478  0.00  0.00    +0.000 A 
ATOM      8  C   UNL     1     111.363 129.203 134.763  0.00  0.00    +0.000 A 
ATOM      9  C   UNL     1     110.879 127.878 135.226  0.00  0.00    +0.000 A 
ATOM     10  C   UNL     1     111.157 126.406 135.918  0.00  0.00    +0.000 C 
ATOM     11  C   UNL     1     110.398 126.606 135.667  0.00  0.00    +0.000 C 
ATOM     12  C   UNL     1     110.720 128.641 134.864  0.00  0.00    +0.000 A 
ATOM     13  C   UNL     1     110.258 127.342 135.321  0.00  0.00    +0.000 C 
BRANCH  10  14
ATOM     14  C   UNL     1     111.297 125.671 136.264  0.00  0.00    +0.000 A 
ATOM     15  C   UNL     1     111.292 125.592 137.085  0.00  0.00    +0.000 A 
ATOM     16  C   UNL     1     111.441 125.012 135.789  0.00  0.00    +0.000 A 
ATOM     17  C   UNL     1     111.431 124.857 137.431  0.00  0.00    +0.000 A 
ATOM     18  C   UNL     1     111.580 124.275 136.134  0.00  0.00    +0.000 A 
ATOM     19  C   UNL     1     111.576 124.199 136.956  0.00  0.00    +0.000 A 
BRANCH  19  20
ATOM     20  O   UNL     1     111.715 123.463 137.302  0.00  0.00    +0.000 OA
ATOM     21  C   UNL     1     112.485 123.171 137.357  0.00  0.00    +0.000 C 
ENDBRANCH  19  20
ENDBRANCH  10  14
ENDBRANCH   1   5
BRANCH   1  30
ATOM     22  O   UNL     1     112.593 130.205 136.177  0.00  0.00    +0.000 OA
ATOM     23  O   UNL     1     114.045 131.060 137.565  0.00  0.00    +0.000 OA
ATOM     24  O   UNL     1     115.045 130.473 136.391  0.00  0.00    +0.000 OA
ATOM     25  O   UNL     1     114.410 129.707 135.074  0.00  0.00    +0.000 OA
ATOM     26  C   UNL     1     112.910 130.588 136.835  0.00  0.00    +0.000 C 
ATOM     27  C   UNL     1     113.728 130.677 136.907  0.00  0.00    +0.000 C 
ATOM     28  C   UNL     1     114.227 130.384 136.319  0.00  0.00    +0.000 C 
ATOM     29  C   UNL     1     113.910 130.001 135.661  0.00  0.00    +0.000 C 
ATOM     30  C   UNL     1     113.093 129.912 135.590  0.00  0.00    +0.000 C 
BRANCH  26  31
ATOM     31  C   UNL     1     112.411 130.882 137.423  0.00  0.00    +0.000 C 
BRANCH  31  32
ATOM     32  O   UNL     1     111.747 131.326 137.217  0.00  0.00    +0.000 OA
BRANCH  32  38
ATOM     33  O   UNL     1     110.958 130.848 138.308  0.00  0.00    +0.000 OA
ATOM     34  O   UNL     1     110.905 132.745 137.228  0.00  0.00    +0.000 OA
ATOM     35  O   UNL     1     109.695 132.976 138.325  0.00  0.00    +0.000 OA
ATOM     36  O   UNL     1     109.326 131.789 139.411  0.00  0.00    +0.000 OA
ATOM     37  C   UNL     1     110.721 132.150 137.771  0.00  0.00    +0.000 C 
ATOM     38  C   UNL     1     111.142 131.441 137.765  0.00  0.00    +0.000 C 
ATOM     39  C   UNL     1     110.116 132.267 138.319  0.00  0.00    +0.000 C 
ATOM     40  C   UNL     1     109.932 131.673 138.862  0.00  0.00    +0.000 C 
ATOM     41  C   UNL     1     110.353 130.964 138.856  0.00  0.00    +0.000 C 
ATOM     42  C   UNL     1     110.168 130.370 139.399  0.00  0.00    +0.000 C 
ENDBRANCH  32  38
ENDBRANCH  31  32
ENDBRANCH  26  31
ENDBRANCH   1  30
TORSDOF 7
ENDMDL
MODEL 6
REMARK VINA RESULT:     -10.0      2.738      4.067
REMARK  Name = 16760075
REMARK  7 active torsions:
REMARK  status: ('A' for Active; 'I' for Inactive)
REMARK    1  A    between atoms: O_2  and  C_20
REMARK    2  A    between atoms: O_2  and  C_24
REMARK    3  A    between atoms: O_5  and  C_23
REMARK    4  A    between atoms: O_5  and  C_27
REMARK    5  A    between atoms: O_14  and  C_41
REMARK    6  A    between atoms: C_15  and  C_24
REMARK    7  A    between atoms: C_32  and  C_36
REMARK                            x       y       z     vdW  Elec       q    Type
REMARK                         _______ _______ _______ _____ _____    ______ ____
ROOT
ATOM      1  O   UNL     1     110.433 130.848 136.808  0.00  0.00    +0.000 OA
ENDROOT
BRANCH   1   5
ATOM      2  O   UNL     1     110.293 127.988 136.273  0.00  0.00    +0.000 OA
ATOM      3  O   UNL     1     107.921 129.610 135.982  0.00  0.00    +0.000 OA
ATOM      4  O   UNL     1     107.888 128.190 135.726  0.00  0.00    +0.000 OA
ATOM      5  C   UNL     1     110.000 130.180 136.586  0.00  0.00    +0.000 A 
ATOM      6  C   UNL     1     110.381 129.412 136.544  0.00  0.00    +0.000 A 
ATOM      7  C   UNL     1     109.922 128.723 136.312  0.00  0.00    +0.000 A 
ATOM      8  C   UNL     1     109.166 130.251 136.396  0.00  0.00    +0.000 A 
ATOM      9  C   UNL     1     109.120 128.791 136.130  0.00  0.00    +0.000 A 
ATOM     10  C   UNL     1     109.863 127.320 136.052  0.00  0.00    +0.000 C 
ATOM     11  C   UNL     1     109.061 127.387 135.870  0.00  0.00    +0.000 C 
ATOM     12  C   UNL     1     108.722 129.552 136.166  0.00  0.00    +0.000 A 
ATOM     13  C   UNL     1     108.690 128.122 135.908  0.00  0.00    +0.000 C 
BRANCH  10  14
ATOM     14  C   UNL     1     110.234 126.584 136.013  0.00  0.00    +0.000 A 
ATOM     15  C   UNL     1     110.432 126.259 135.282  0.00  0.00    +0.000 A 
ATOM     16  C   UNL     1     110.407 126.172 136.707  0.00  0.00    +0.000 A 
ATOM     17  C   UNL     1     110.803 125.524 135.243  0.00  0.00    +0.000 A 
ATOM     18  C   UNL     1     110.778 125.436 136.669  0.00  0.00    +0.000 A 
ATOM     19  C   UNL     1     110.976 125.112 135.937  0.00  0.00    +0.000 A 
BRANCH  19  20
ATOM     20  O   UNL     1     111.347 124.377 135.898  0.00  0.00    +0.000 OA
ATOM     21  C   UNL     1     111.891 124.157 136.479  0.00  0.00    +0.000 C 
ENDBRANCH  19  20
ENDBRANCH  10  14
ENDBRANCH   1   5
BRANCH   1  30
ATOM     22  O   UNL     1     110.381 130.644 138.221  0.00  0.00    +0.000 OA
ATOM     23  O   UNL     1     110.140 132.066 139.861  0.00  0.00    +0.000 OA
ATOM     24  O   UNL     1     110.099 133.081 138.560  0.00  0.00    +0.000 OA
ATOM     25  O   UNL     1     110.246 132.471 137.033  0.00  0.00    +0.000 OA
ATOM     26  C   UNL     1     110.307 130.949 138.984  0.00  0.00    +0.000 C 
ATOM     27  C   UNL     1     110.214 131.761 139.097  0.00  0.00    +0.000 C 
ATOM     28  C   UNL     1     110.193 132.268 138.447  0.00  0.00    +0.000 C 
ATOM     29  C   UNL     1     110.266 131.963 137.684  0.00  0.00    +0.000 C 
ATOM     30  C   UNL     1     110.360 131.152 137.571  0.00  0.00    +0.000 C 
BRANCH  26  31
ATOM     31  C   UNL     1     110.328 130.442 139.635  0.00  0.00    +0.000 C 
BRANCH  31  32
ATOM     32  O   UNL     1     109.885 129.746 139.631  0.00  0.00    +0.000 OA
BRANCH  32  38
ATOM     33  O   UNL     1     110.527 129.327 140.836  0.00  0.00    +0.000 OA
ATOM     34  O   UNL     1     108.905 128.420 139.691  0.00  0.00    +0.000 OA
ATOM     35  O   UNL     1     109.057 127.338 140.927  0.00  0.00    +0.000 OA
ATOM     36  O   UNL     1     110.190 127.581 142.102  0.00  0.00    +0.000 OA
ATOM     37  C   UNL     1     109.471 128.542 140.279  0.00  0.00    +0.000 C 
ATOM     38  C   UNL     1     109.961 129.205 140.249  0.00  0.00    +0.000 C 
ATOM     39  C   UNL     1     109.547 128.001 140.897  0.00  0.00    +0.000 C 
ATOM     40  C   UNL     1     110.113 128.123 141.484  0.00  0.00    +0.000 C 
ATOM     41  C   UNL     1     110.603 128.786 141.454  0.00  0.00    +0.000 C 
ATOM     42  C   UNL     1     111.170 128.907 142.042  0.00  0.00    +0.000 C 
ENDBRANCH  32  38
ENDBRANCH  31  32
ENDBRANCH  26  31
ENDBRANCH   1  30
TORSDOF 7
ENDMDL
MODEL 7
REMARK VINA RESULT:     -10.0      1.823      2.698
REMARK  Name = 16760075
REMARK  7 active torsions:
REMARK  status: ('A' for Active; 'I' for Inactive)
REMARK    1  A    between atoms: O_2  and  C_20
REMARK    2  A    between atoms: O_2  and  C_24
REMARK    3  A    between atoms: O_5  and  C_23
REMARK    4  A    between atoms: O_5  and  C_27
REMARK    5  A    between atoms: O_14  and  C_41
REMARK    6  A    between atoms: C_15  and  C_24
REMARK    7  A    between atoms: C_32  and  C_36
REMARK                            x       y       z     vdW  Elec       q    Type
REMARK                         _______ _______ _______ _____ _____    ______ ____
ROOT
ATOM      1  O   UNL     1     110.577 130.251 135.742  0.00  0.00    +0.000 OA
ENDROOT
BRANCH   1   5
ATOM      2  O   UNL     1     110.660 127.363 136.107  0.00  0.00    +0.000 OA
ATOM      3  O   UNL     1     108.113 128.686 135.783  0.00  0.00    +0.000 OA
ATOM      4  O   UNL     1     108.192 127.257 135.966  0.00  0.00    +0.000 OA
ATOM      5  C   UNL     1     110.188 129.526 135.808  0.00  0.00    +0.000 A 
ATOM      6  C   UNL     1     110.637 128.803 135.926  0.00  0.00    +0.000 A 
ATOM      7  C   UNL     1     110.223 128.053 135.994  0.00  0.00    +0.000 A 
ATOM      8  C   UNL     1     109.332 129.490 135.759  0.00  0.00    +0.000 A 
ATOM      9  C   UNL     1     109.401 128.018 135.947  0.00  0.00    +0.000 A 
ATOM     10  C   UNL     1     110.274 126.637 136.173  0.00  0.00    +0.000 C 
ATOM     11  C   UNL     1     109.451 126.601 136.126  0.00  0.00    +0.000 C 
ATOM     12  C   UNL     1     108.934 128.730 135.829  0.00  0.00    +0.000 A 
ATOM     13  C   UNL     1     109.015 127.292 136.013  0.00  0.00    +0.000 C 
BRANCH  10  14
ATOM     14  C   UNL     1     110.710 125.946 136.287  0.00  0.00    +0.000 A 
ATOM     15  C   UNL     1     110.910 125.473 135.641  0.00  0.00    +0.000 A 
ATOM     16  C   UNL     1     110.947 125.728 137.046  0.00  0.00    +0.000 A 
ATOM     17  C   UNL     1     111.346 124.783 135.755  0.00  0.00    +0.000 A 
ATOM     18  C   UNL     1     111.384 125.037 137.160  0.00  0.00    +0.000 A 
ATOM     19  C   UNL     1     111.583 124.564 136.514  0.00  0.00    +0.000 A 
BRANCH  19  20
ATOM     20  O   UNL     1     112.020 123.874 136.627  0.00  0.00    +0.000 OA
ATOM     21  C   UNL     1     112.808 123.918 136.866  0.00  0.00    +0.000 C 
ENDBRANCH  19  20
ENDBRANCH  10  14
ENDBRANCH   1   5
BRANCH   1  30
ATOM     22  O   UNL     1     111.038 130.485 137.074  0.00  0.00    +0.000 OA
ATOM     23  O   UNL     1     110.835 132.231 138.369  0.00  0.00    +0.000 OA
ATOM     24  O   UNL     1     110.042 132.752 137.019  0.00  0.00    +0.000 OA
ATOM     25  O   UNL     1     109.914 131.761 135.705  0.00  0.00    +0.000 OA
ATOM     26  C   UNL     1     111.102 130.981 137.731  0.00  0.00    +0.000 C 
ATOM     27  C   UNL     1     110.770 131.736 137.713  0.00  0.00    +0.000 C 
ATOM     28  C   UNL     1     110.374 131.996 137.037  0.00  0.00    +0.000 C 
ATOM     29  C   UNL     1     110.310 131.501 136.380  0.00  0.00    +0.000 C 
ATOM     30  C   UNL     1     110.642 130.746 136.399  0.00  0.00    +0.000 C 
BRANCH  26  31
ATOM     31  C   UNL     1     111.498 130.721 138.406  0.00  0.00    +0.000 C 
BRANCH  31  32
ATOM     32  O   UNL     1     112.278 130.457 138.352  0.00  0.00    +0.000 OA
BRANCH  32  38
ATOM     33  O   UNL     1     112.209 129.664 139.539  0.00  0.00    +0.000 OA
ATOM     34  O   UNL     1     113.890 130.700 138.609  0.00  0.00    +0.000 OA
ATOM     35  O   UNL     1     114.627 130.028 139.924  0.00  0.00    +0.000 OA
ATOM     36  O   UNL     1     113.751 129.114 140.982  0.00  0.00    +0.000 OA
ATOM     37  C   UNL     1     113.452 130.242 139.138  0.00  0.00    +0.000 C 
ATOM     38  C   UNL     1     112.646 130.121 139.010  0.00  0.00    +0.000 C 
ATOM     39  C   UNL     1     113.821 129.907 139.795  0.00  0.00    +0.000 C 
ATOM     40  C   UNL     1     113.383 129.450 140.324  0.00  0.00    +0.000 C 
ATOM     41  C   UNL     1     112.577 129.329 140.196  0.00  0.00    +0.000 C 
ATOM     42  C   UNL     1     112.139 128.872 140.726  0.00  0.00    +0.000 C 
ENDBRANCH  32  38
ENDBRANCH  31  32
ENDBRANCH  26  31
ENDBRANCH   1  30
TORSDOF 7
ENDMDL
MODEL 8
REMARK VINA RESULT:      -9.9      1.808      4.215
REMARK  Name = 16760075
REMARK  7 active torsions:
REMARK  status: ('A' for Active; 'I' for Inactive)
REMARK    1  A    between atoms: O_2  and  C_20
REMARK    2  A    between atoms: O_2  and  C_24
REMARK    3  A    between atoms: O_5  and  C_23
REMARK    4  A    between atoms: O_5  and  C_27
REMARK    5  A    between atoms: O_14  and  C_41
REMARK    6  A    between atoms: C_15  and  C_24
REMARK    7  A    between atoms: C_32  and  C_36
REMARK                            x       y       z     vdW  Elec       q    Type
REMARK                         _______ _______ _______ _____ _____    ______ ____
ROOT
ATOM      1  O   UNL     1     112.996 130.111 138.806  0.00  0.00    +0.000 OA
ENDROOT
BRANCH   1   5
ATOM      2  O   UNL     1     113.213 127.586 137.371  0.00  0.00    +0.000 OA
ATOM      3  O   UNL     1     113.620 130.069 135.953  0.00  0.00    +0.000 OA
ATOM      4  O   UNL     1     113.719 128.800 135.275  0.00  0.00    +0.000 OA
ATOM      5  C   UNL     1     113.133 129.694 138.107  0.00  0.00    +0.000 A 
ATOM      6  C   UNL     1     113.101 128.835 138.102  0.00  0.00    +0.000 A 
ATOM      7  C   UNL     1     113.245 128.410 137.370  0.00  0.00    +0.000 A 
ATOM      8  C   UNL     1     113.309 130.116 137.380  0.00  0.00    +0.000 A 
ATOM      9  C   UNL     1     113.414 128.815 136.671  0.00  0.00    +0.000 A 
ATOM     10  C   UNL     1     113.350 127.166 136.674  0.00  0.00    +0.000 C 
ATOM     11  C   UNL     1     113.518 127.570 135.976  0.00  0.00    +0.000 C 
ATOM     12  C   UNL     1     113.450 129.673 136.656  0.00  0.00    +0.000 A 
ATOM     13  C   UNL     1     113.551 128.395 135.974  0.00  0.00    +0.000 C 
BRANCH  10  14
ATOM     14  C   UNL     1     113.317 126.342 136.676  0.00  0.00    +0.000 A 
ATOM     15  C   UNL     1     112.611 125.955 136.496  0.00  0.00    +0.000 A 
ATOM     16  C   UNL     1     113.992 125.903 136.857  0.00  0.00    +0.000 A 
ATOM     17  C   UNL     1     112.579 125.132 136.498  0.00  0.00    +0.000 A 
ATOM     18  C   UNL     1     113.961 125.078 136.859  0.00  0.00    +0.000 A 
ATOM     19  C   UNL     1     113.254 124.693 136.679  0.00  0.00    +0.000 A 
BRANCH  19  20
ATOM     20  O   UNL     1     113.222 123.869 136.681  0.00  0.00    +0.000 OA
ATOM     21  C   UNL     1     112.518 123.483 136.874  0.00  0.00    +0.000 C 
ENDBRANCH  19  20
ENDBRANCH  10  14
ENDBRANCH   1   5
BRANCH   1  30
ATOM     22  O   UNL     1     111.598 130.304 138.582  0.00  0.00    +0.000 OA
ATOM     23  O   UNL     1     109.926 130.396 139.983  0.00  0.00    +0.000 OA
ATOM     24  O   UNL     1     111.188 130.152 141.019  0.00  0.00    +0.000 OA
ATOM     25  O   UNL     1     112.723 130.010 140.430  0.00  0.00    +0.000 OA
ATOM     26  C   UNL     1     110.831 130.375 138.876  0.00  0.00    +0.000 C 
ATOM     27  C   UNL     1     110.694 130.325 139.689  0.00  0.00    +0.000 C 
ATOM     28  C   UNL     1     111.325 130.203 140.206  0.00  0.00    +0.000 C 
ATOM     29  C   UNL     1     112.092 130.132 139.912  0.00  0.00    +0.000 C 
ATOM     30  C   UNL     1     112.229 130.182 139.100  0.00  0.00    +0.000 C 
BRANCH  26  31
ATOM     31  C   UNL     1     110.200 130.497 138.359  0.00  0.00    +0.000 C 
BRANCH  31  32
ATOM     32  O   UNL     1     110.067 129.970 137.738  0.00  0.00    +0.000 OA
BRANCH  32  38
ATOM     33  O   UNL     1     109.446 130.946 136.900  0.00  0.00    +0.000 OA
ATOM     34  O   UNL     1     109.161 128.786 137.031  0.00  0.00    +0.000 OA
ATOM     35  O   UNL     1     108.087 129.170 135.839  0.00  0.00    +0.000 OA
ATOM     36  O   UNL     1     107.919 130.738 135.354  0.00  0.00    +0.000 OA
ATOM     37  C   UNL     1     109.077 129.570 136.788  0.00  0.00    +0.000 C 
ATOM     38  C   UNL     1     109.530 130.163 137.142  0.00  0.00    +0.000 C 
ATOM     39  C   UNL     1     108.540 129.762 136.192  0.00  0.00    +0.000 C 
ATOM     40  C   UNL     1     108.456 130.546 135.950  0.00  0.00    +0.000 C 
ATOM     41  C   UNL     1     108.909 131.138 136.304  0.00  0.00    +0.000 C 
ATOM     42  C   UNL     1     108.824 131.922 136.061  0.00  0.00    +0.000 C 
ENDBRANCH  32  38
ENDBRANCH  31  32
ENDBRANCH  26  31
ENDBRANCH   1  30
TORSDOF 7
ENDMDL
MODEL 9
REMARK VINA RESULT:      -9.9      6.689      9.699
REMARK  Name = 16760075
REMARK  7 active torsions:
REMARK  status: ('A' for Active; 'I' for Inactive)
REMARK    1  A    between atoms: O_2  and  C_20
REMARK    2  A    between atoms: O_2  and  C_24
REMARK    3  A    between atoms: O_5  and  C_23
REMARK    4  A    between atoms: O_5  and  C_27
REMARK    5  A    between atoms: O_14  and  C_41
REMARK    6  A    between atoms: C_15  and  C_24
REMARK    7  A    between atoms: C_32  and  C_36
REMARK                            x       y       z     vdW  Elec       q    Type
REMARK                         _______ _______ _______ _____ _____    ______ ____
ROOT
ATOM      1  O   UNL     1     108.038 127.602 141.585  0.00  0.00    +0.000 OA
ENDROOT
BRANCH   1   5
ATOM      2  O   UNL     1     105.356 128.687 141.921  0.00  0.00    +0.000 OA
ATOM      3  O   UNL     1     106.660 127.396 144.151  0.00  0.00    +0.000 OA
ATOM      4  O   UNL     1     105.332 127.945 144.281  0.00  0.00    +0.000 OA
ATOM      5  C   UNL     1     107.377 127.745 142.059  0.00  0.00    +0.000 A 
ATOM      6  C   UNL     1     106.693 128.152 141.736  0.00  0.00    +0.000 A 
ATOM      7  C   UNL     1     106.010 128.296 142.236  0.00  0.00    +0.000 A 
ATOM      8  C   UNL     1     107.369 127.487 142.878  0.00  0.00    +0.000 A 
ATOM      9  C   UNL     1     106.002 128.048 143.023  0.00  0.00    +0.000 A 
ATOM     10  C   UNL     1     104.694 128.831 142.392  0.00  0.00    +0.000 C 
ATOM     11  C   UNL     1     104.686 128.584 143.178  0.00  0.00    +0.000 C 
ATOM     12  C   UNL     1     106.677 127.640 143.364  0.00  0.00    +0.000 A 
ATOM     13  C   UNL     1     105.340 128.192 143.494  0.00  0.00    +0.000 C 
BRANCH  10  14
ATOM     14  C   UNL     1     104.040 129.222 142.076  0.00  0.00    +0.000 A 
ATOM     15  C   UNL     1     103.714 128.972 141.361  0.00  0.00    +0.000 A 
ATOM     16  C   UNL     1     103.711 129.865 142.476  0.00  0.00    +0.000 A 
ATOM     17  C   UNL     1     103.061 129.363 141.046  0.00  0.00    +0.000 A 
ATOM     18  C   UNL     1     103.057 130.257 142.161  0.00  0.00    +0.000 A 
ATOM     19  C   UNL     1     102.732 130.006 141.445  0.00  0.00    +0.000 A 
BRANCH  19  20
ATOM     20  O   UNL     1     102.078 130.397 141.130  0.00  0.00    +0.000 OA
ATOM     21  C   UNL     1     101.917 131.176 141.349  0.00  0.00    +0.000 C 
ENDBRANCH  19  20
ENDBRANCH  10  14
ENDBRANCH   1   5
BRANCH   1  30
ATOM     22  O   UNL     1     107.651 126.286 141.187  0.00  0.00    +0.000 OA
ATOM     23  O   UNL     1     108.850 124.509 140.772  0.00  0.00    +0.000 OA
ATOM     24  O   UNL     1     110.028 125.595 141.162  0.00  0.00    +0.000 OA
ATOM     25  O   UNL     1     109.623 127.142 141.569  0.00  0.00    +0.000 OA
ATOM     26  C   UNL     1     107.854 125.513 140.983  0.00  0.00    +0.000 C 
ATOM     27  C   UNL     1     108.647 125.282 140.975  0.00  0.00    +0.000 C 
ATOM     28  C   UNL     1     109.236 125.826 141.170  0.00  0.00    +0.000 C 
ATOM     29  C   UNL     1     109.033 126.599 141.374  0.00  0.00    +0.000 C 
ATOM     30  C   UNL     1     108.241 126.829 141.382  0.00  0.00    +0.000 C 
BRANCH  26  31
ATOM     31  C   UNL     1     107.265 124.969 140.788  0.00  0.00    +0.000 C 
BRANCH  31  32
ATOM     32  O   UNL     1     106.646 125.192 140.290  0.00  0.00    +0.000 OA
BRANCH  32  38
ATOM     33  O   UNL     1     105.784 124.155 140.762  0.00  0.00    +0.000 OA
ATOM     34  O   UNL     1     105.829 125.219 138.857  0.00  0.00    +0.000 OA
ATOM     35  O   UNL     1     104.558 124.195 138.613  0.00  0.00    +0.000 OA
ATOM     36  O   UNL     1     104.104 123.144 139.801  0.00  0.00    +0.000 OA
ATOM     37  C   UNL     1     105.602 124.693 139.452  0.00  0.00    +0.000 C 
ATOM     38  C   UNL     1     106.010 124.680 140.169  0.00  0.00    +0.000 C 
ATOM     39  C   UNL     1     104.967 124.182 139.329  0.00  0.00    +0.000 C 
ATOM     40  C   UNL     1     104.740 123.657 139.924  0.00  0.00    +0.000 C 
ATOM     41  C   UNL     1     105.149 123.643 140.640  0.00  0.00    +0.000 C 
ATOM     42  C   UNL     1     104.921 123.118 141.235  0.00  0.00    +0.000 C 
ENDBRANCH  32  38
ENDBRANCH  31  32
ENDBRANCH  26  31
ENDBRANCH   1  30
TORSDOF 7
ENDMDL
MODEL 10
REMARK VINA RESULT:      -9.8      2.906      4.567
REMARK  Name = 16760075
REMARK  7 active torsions:
REMARK  status: ('A' for Active; 'I' for Inactive)
REMARK    1  A    between atoms: O_2  and  C_20
REMARK    2  A    between atoms: O_2  and  C_24
REMARK    3  A    between atoms: O_5  and  C_23
REMARK    4  A    between atoms: O_5  and  C_27
REMARK    5  A    between atoms: O_14  and  C_41
REMARK    6  A    between atoms: C_15  and  C_24
REMARK    7  A    between atoms: C_32  and  C_36
REMARK                            x       y       z     vdW  Elec       q    Type
REMARK                         _______ _______ _______ _____ _____    ______ ____
ROOT
ATOM      1  O   UNL     1     112.140 127.614 141.156  0.00  0.00    +0.000 OA
ENDROOT
BRANCH   1   5
ATOM      2  O   UNL     1     111.994 126.405 138.510  0.00  0.00    +0.000 OA
ATOM      3  O   UNL     1     114.523 126.483 139.904  0.00  0.00    +0.000 OA
ATOM      4  O   UNL     1     114.414 125.892 138.593  0.00  0.00    +0.000 OA
ATOM      5  C   UNL     1     112.505 127.232 140.522  0.00  0.00    +0.000 A 
ATOM      6  C   UNL     1     112.048 127.011 139.829  0.00  0.00    +0.000 A 
ATOM      7  C   UNL     1     112.438 126.615 139.173  0.00  0.00    +0.000 A 
ATOM      8  C   UNL     1     113.345 127.055 140.551  0.00  0.00    +0.000 A 
ATOM      9  C   UNL     1     113.244 126.444 139.201  0.00  0.00    +0.000 A 
ATOM     10  C   UNL     1     112.357 126.024 137.875  0.00  0.00    +0.000 C 
ATOM     11  C   UNL     1     113.163 125.852 137.902  0.00  0.00    +0.000 C 
ATOM     12  C   UNL     1     113.718 126.657 139.885  0.00  0.00    +0.000 A 
ATOM     13  C   UNL     1     113.607 126.063 138.565  0.00  0.00    +0.000 C 
BRANCH  10  14
ATOM     14  C   UNL     1     111.913 125.814 137.212  0.00  0.00    +0.000 A 
ATOM     15  C   UNL     1     111.741 126.376 136.634  0.00  0.00    +0.000 A 
ATOM     16  C   UNL     1     111.641 125.039 137.126  0.00  0.00    +0.000 A 
ATOM     17  C   UNL     1     111.298 126.166 135.972  0.00  0.00    +0.000 A 
ATOM     18  C   UNL     1     111.197 124.828 136.464  0.00  0.00    +0.000 A 
ATOM     19  C   UNL     1     111.025 125.392 135.886  0.00  0.00    +0.000 A 
BRANCH  19  20
ATOM     20  O   UNL     1     110.582 125.182 135.223  0.00  0.00    +0.000 OA
ATOM     21  C   UNL     1     110.143 125.754 134.821  0.00  0.00    +0.000 C 
ENDBRANCH  19  20
ENDBRANCH  10  14
ENDBRANCH   1   5
BRANCH   1  30
ATOM     22  O   UNL     1     112.354 128.912 140.599  0.00  0.00    +0.000 OA
ATOM     23  O   UNL     1     112.496 130.870 141.553  0.00  0.00    +0.000 OA
ATOM     24  O   UNL     1     112.245 129.902 142.865  0.00  0.00    +0.000 OA
ATOM     25  O   UNL     1     112.067 128.274 142.667  0.00  0.00    +0.000 OA
ATOM     26  C   UNL     1     112.444 129.726 140.698  0.00  0.00    +0.000 C 
ATOM     27  C   UNL     1     112.407 130.056 141.453  0.00  0.00    +0.000 C 
ATOM     28  C   UNL     1     112.282 129.572 142.109  0.00  0.00    +0.000 C 
ATOM     29  C   UNL     1     112.193 128.758 142.010  0.00  0.00    +0.000 C 
ATOM     30  C   UNL     1     112.229 128.428 141.255  0.00  0.00    +0.000 C 
BRANCH  26  31
ATOM     31  C   UNL     1     112.569 130.210 140.042  0.00  0.00    +0.000 C 
BRANCH  31  32
ATOM     32  O   UNL     1     112.004 130.248 139.442  0.00  0.00    +0.000 OA
BRANCH  32  38
ATOM     33  O   UNL     1     112.851 129.984 138.321  0.00  0.00    +0.000 OA
ATOM     34  O   UNL     1     111.238 131.431 138.585  0.00  0.00    +0.000 OA
ATOM     35  O   UNL     1     111.701 131.759 137.035  0.00  0.00    +0.000 OA
ATOM     36  O   UNL     1     112.931 130.904 136.343  0.00  0.00    +0.000 OA
ATOM     37  C   UNL     1     111.853 131.003 138.239  0.00  0.00    +0.000 C 
ATOM     38  C   UNL     1     112.237 130.411 138.667  0.00  0.00    +0.000 C 
ATOM     39  C   UNL     1     112.085 131.168 137.464  0.00  0.00    +0.000 C 
ATOM     40  C   UNL     1     112.699 130.740 137.119  0.00  0.00    +0.000 C 
ATOM     41  C   UNL     1     113.083 130.148 137.547  0.00  0.00    +0.000 C 
ATOM     42  C   UNL     1     113.698 129.721 137.201  0.00  0.00    +0.000 C 
ENDBRANCH  32  38
ENDBRANCH  31  32
ENDBRANCH  26  31
ENDBRANCH   1  30
TORSDOF 7
ENDMDL
