MODEL 1
REMARK VINA RESULT:      -7.7      0.000      0.000
REMARK  Name = 44257514
REMARK  4 active torsions:
REMARK  status: ('A' for Active; 'I' for Inactive)
REMARK    1  A    between atoms: O_4  and  C_19
REMARK    2  A    between atoms: O_5  and  C_20
REMARK    3  A    between atoms: O_7  and  C_22
REMARK    4  A    between atoms: C_8  and  C_12
REMARK                            x       y       z     vdW  Elec       q    Type
REMARK                         _______ _______ _______ _____ _____    ______ ____
ROOT
ATOM      1  O   UNL     1     104.165 124.024 145.457  0.00  0.00    +0.000 OA
ATOM      2  O   UNL     1     102.892 122.978 145.284  0.00  0.00    +0.000 OA
ATOM      3  O   UNL     1     101.980 123.551 147.931  0.00  0.00    +0.000 OA
ATOM      4  C   UNL     1     104.911 124.992 146.302  0.00  0.00    +0.000 C 
ATOM      5  C   UNL     1     104.343 124.864 146.934  0.00  0.00    +0.000 C 
ATOM      6  C   UNL     1     104.821 124.570 145.558  0.00  0.00    +0.000 C 
ATOM      7  C   UNL     1     103.693 124.315 146.814  0.00  0.00    +0.000 A 
ATOM      8  C   UNL     1     103.607 123.909 146.101  0.00  0.00    +0.000 A 
ATOM      9  C   UNL     1     103.150 124.195 147.424  0.00  0.00    +0.000 A 
ATOM     10  C   UNL     1     102.978 123.384 145.998  0.00  0.00    +0.000 A 
ATOM     11  C   UNL     1     102.523 123.670 147.321  0.00  0.00    +0.000 A 
ATOM     12  C   UNL     1     102.437 123.265 146.608  0.00  0.00    +0.000 A 
ENDROOT
BRANCH   4  14
ATOM     13  O   UNL     1     106.414 124.420 146.670  0.00  0.00    +0.000 OA
ATOM     14  C   UNL     1     105.538 125.518 146.407  0.00  0.00    +0.000 A 
ATOM     15  C   UNL     1     106.290 125.231 146.591  0.00  0.00    +0.000 A 
ATOM     16  C   UNL     1     105.414 126.330 146.329  0.00  0.00    +0.000 A 
ATOM     17  C   UNL     1     106.917 125.757 146.697  0.00  0.00    +0.000 A 
ATOM     18  C   UNL     1     106.040 126.855 146.434  0.00  0.00    +0.000 A 
ATOM     19  C   UNL     1     106.792 126.570 146.619  0.00  0.00    +0.000 A 
BRANCH  17  20
ATOM     20  O   UNL     1     107.668 125.471 146.881  0.00  0.00    +0.000 OA
ATOM     21  C   UNL     1     107.833 125.203 147.644  0.00  0.00    +0.000 C 
ENDBRANCH  17  20
BRANCH  19  22
ATOM     22  O   UNL     1     107.419 127.095 146.724  0.00  0.00    +0.000 OA
ATOM     23  C   UNL     1     107.336 127.885 146.503  0.00  0.00    +0.000 C 
ENDBRANCH  19  22
ENDBRANCH   4  14
BRANCH  12  24
ATOM     24  O   UNL     1     101.808 122.739 146.505  0.00  0.00    +0.000 OA
ATOM     25  C   UNL     1     101.084 123.015 146.222  0.00  0.00    +0.000 C 
ENDBRANCH  12  24
TORSDOF 4
ENDMDL
MODEL 2
REMARK VINA RESULT:      -7.7      6.515      7.458
REMARK  Name = 44257514
REMARK  4 active torsions:
REMARK  status: ('A' for Active; 'I' for Inactive)
REMARK    1  A    between atoms: O_4  and  C_19
REMARK    2  A    between atoms: O_5  and  C_20
REMARK    3  A    between atoms: O_7  and  C_22
REMARK    4  A    between atoms: C_8  and  C_12
REMARK                            x       y       z     vdW  Elec       q    Type
REMARK                         _______ _______ _______ _____ _____    ______ ____
ROOT
ATOM      1  O   UNL     1     104.949 123.267 138.388  0.00  0.00    +0.000 OA
ATOM      2  O   UNL     1     104.189 122.770 137.003  0.00  0.00    +0.000 OA
ATOM      3  O   UNL     1     101.721 123.920 137.868  0.00  0.00    +0.000 OA
ATOM      4  C   UNL     1     104.879 123.964 139.699  0.00  0.00    +0.000 C 
ATOM      5  C   UNL     1     104.047 124.127 139.556  0.00  0.00    +0.000 C 
ATOM      6  C   UNL     1     105.333 123.531 139.111  0.00  0.00    +0.000 C 
ATOM      7  C   UNL     1     103.681 123.856 138.828  0.00  0.00    +0.000 A 
ATOM      8  C   UNL     1     104.117 123.441 138.263  0.00  0.00    +0.000 A 
ATOM      9  C   UNL     1     102.882 124.016 138.695  0.00  0.00    +0.000 A 
ATOM     10  C   UNL     1     103.754 123.185 137.567  0.00  0.00    +0.000 A 
ATOM     11  C   UNL     1     102.519 123.761 138.000  0.00  0.00    +0.000 A 
ATOM     12  C   UNL     1     102.955 123.345 137.436  0.00  0.00    +0.000 A 
ENDROOT
BRANCH   4  14
ATOM     13  O   UNL     1     105.860 125.291 139.680  0.00  0.00    +0.000 OA
ATOM     14  C   UNL     1     105.239 124.220 140.395  0.00  0.00    +0.000 A 
ATOM     15  C   UNL     1     105.730 124.884 140.386  0.00  0.00    +0.000 A 
ATOM     16  C   UNL     1     105.109 123.814 141.101  0.00  0.00    +0.000 A 
ATOM     17  C   UNL     1     106.090 125.140 141.082  0.00  0.00    +0.000 A 
ATOM     18  C   UNL     1     105.468 124.069 141.797  0.00  0.00    +0.000 A 
ATOM     19  C   UNL     1     105.959 124.733 141.789  0.00  0.00    +0.000 A 
BRANCH  17  20
ATOM     20  O   UNL     1     106.580 125.803 141.073  0.00  0.00    +0.000 OA
ATOM     21  C   UNL     1     107.386 125.719 140.919  0.00  0.00    +0.000 C 
ENDBRANCH  17  20
BRANCH  19  22
ATOM     22  O   UNL     1     106.319 124.989 142.485  0.00  0.00    +0.000 OA
ATOM     23  C   UNL     1     105.972 124.822 143.214  0.00  0.00    +0.000 C 
ENDBRANCH  19  22
ENDBRANCH   4  14
BRANCH  12  24
ATOM     24  O   UNL     1     102.592 123.090 136.740  0.00  0.00    +0.000 OA
ATOM     25  C   UNL     1     102.766 123.461 136.025  0.00  0.00    +0.000 C 
ENDBRANCH  12  24
TORSDOF 4
ENDMDL
MODEL 3
REMARK VINA RESULT:      -7.6     12.253     13.479
REMARK  Name = 44257514
REMARK  4 active torsions:
REMARK  status: ('A' for Active; 'I' for Inactive)
REMARK    1  A    between atoms: O_4  and  C_19
REMARK    2  A    between atoms: O_5  and  C_20
REMARK    3  A    between atoms: O_7  and  C_22
REMARK    4  A    between atoms: C_8  and  C_12
REMARK                            x       y       z     vdW  Elec       q    Type
REMARK                         _______ _______ _______ _____ _____    ______ ____
ROOT
ATOM      1  O   UNL     1     111.997 126.628 136.007  0.00  0.00    +0.000 OA
ATOM      2  O   UNL     1     111.398 125.084 135.999  0.00  0.00    +0.000 OA
ATOM      3  O   UNL     1     113.833 124.066 137.094  0.00  0.00    +0.000 OA
ATOM      4  C   UNL     1     113.117 127.557 136.307  0.00  0.00    +0.000 C 
ATOM      5  C   UNL     1     113.583 126.890 136.585  0.00  0.00    +0.000 C 
ATOM      6  C   UNL     1     112.319 127.425 136.016  0.00  0.00    +0.000 C 
ATOM      7  C   UNL     1     113.245 126.101 136.569  0.00  0.00    +0.000 A 
ATOM      8  C   UNL     1     112.479 125.974 136.289  0.00  0.00    +0.000 A 
ATOM      9  C   UNL     1     113.696 125.465 136.837  0.00  0.00    +0.000 A 
ATOM     10  C   UNL     1     112.164 125.211 136.278  0.00  0.00    +0.000 A 
ATOM     11  C   UNL     1     113.382 124.702 136.826  0.00  0.00    +0.000 A 
ATOM     12  C   UNL     1     112.616 124.576 136.547  0.00  0.00    +0.000 A 
ENDROOT
BRANCH   4  14
ATOM     13  O   UNL     1     112.702 128.605 137.512  0.00  0.00    +0.000 OA
ATOM     14  C   UNL     1     113.434 128.319 136.319  0.00  0.00    +0.000 A 
ATOM     15  C   UNL     1     113.226 128.843 136.922  0.00  0.00    +0.000 A 
ATOM     16  C   UNL     1     113.958 128.557 135.728  0.00  0.00    +0.000 A 
ATOM     17  C   UNL     1     113.543 129.605 136.934  0.00  0.00    +0.000 A 
ATOM     18  C   UNL     1     114.275 129.318 135.740  0.00  0.00    +0.000 A 
ATOM     19  C   UNL     1     114.068 129.843 136.342  0.00  0.00    +0.000 A 
BRANCH  17  20
ATOM     20  O   UNL     1     113.336 130.129 137.536  0.00  0.00    +0.000 OA
ATOM     21  C   UNL     1     113.694 130.069 138.277  0.00  0.00    +0.000 C 
ENDBRANCH  17  20
BRANCH  19  22
ATOM     22  O   UNL     1     114.384 130.604 136.354  0.00  0.00    +0.000 OA
ATOM     23  C   UNL     1     114.844 130.869 135.723  0.00  0.00    +0.000 C 
ENDBRANCH  19  22
ENDBRANCH   4  14
BRANCH  12  24
ATOM     24  O   UNL     1     112.302 123.812 136.536  0.00  0.00    +0.000 OA
ATOM     25  C   UNL     1     111.937 123.508 137.210  0.00  0.00    +0.000 C 
ENDBRANCH  12  24
TORSDOF 4
ENDMDL
MODEL 4
REMARK VINA RESULT:      -7.5      1.310      4.869
REMARK  Name = 44257514
REMARK  4 active torsions:
REMARK  status: ('A' for Active; 'I' for Inactive)
REMARK    1  A    between atoms: O_4  and  C_19
REMARK    2  A    between atoms: O_5  and  C_20
REMARK    3  A    between atoms: O_7  and  C_22
REMARK    4  A    between atoms: C_8  and  C_12
REMARK                            x       y       z     vdW  Elec       q    Type
REMARK                         _______ _______ _______ _____ _____    ______ ____
ROOT
ATOM      1  O   UNL     1     104.806 123.870 145.806  0.00  0.00    +0.000 OA
ATOM      2  O   UNL     1     106.196 124.381 145.065  0.00  0.00    +0.000 OA
ATOM      3  O   UNL     1     105.702 127.082 145.857  0.00  0.00    +0.000 OA
ATOM      4  C   UNL     1     103.591 124.197 146.596  0.00  0.00    +0.000 C 
ATOM      5  C   UNL     1     103.830 125.023 146.604  0.00  0.00    +0.000 C 
ATOM      6  C   UNL     1     104.082 123.617 146.195  0.00  0.00    +0.000 C 
ATOM      7  C   UNL     1     104.557 125.257 146.210  0.00  0.00    +0.000 A 
ATOM      8  C   UNL     1     105.028 124.700 145.825  0.00  0.00    +0.000 A 
ATOM      9  C   UNL     1     104.782 126.051 146.221  0.00  0.00    +0.000 A 
ATOM     10  C   UNL     1     105.725 124.938 145.451  0.00  0.00    +0.000 A 
ATOM     11  C   UNL     1     105.477 126.288 145.847  0.00  0.00    +0.000 A 
ATOM     12  C   UNL     1     105.948 125.732 145.462  0.00  0.00    +0.000 A 
ENDROOT
BRANCH   4  14
ATOM     13  O   UNL     1     102.229 123.916 145.707  0.00  0.00    +0.000 OA
ATOM     14  C   UNL     1     102.894 123.963 146.971  0.00  0.00    +0.000 A 
ATOM     15  C   UNL     1     102.213 123.822 146.527  0.00  0.00    +0.000 A 
ATOM     16  C   UNL     1     102.879 123.869 147.791  0.00  0.00    +0.000 A 
ATOM     17  C   UNL     1     101.517 123.588 146.902  0.00  0.00    +0.000 A 
ATOM     18  C   UNL     1     102.183 123.635 148.166  0.00  0.00    +0.000 A 
ATOM     19  C   UNL     1     101.501 123.494 147.723  0.00  0.00    +0.000 A 
BRANCH  17  20
ATOM     20  O   UNL     1     100.836 123.447 146.459  0.00  0.00    +0.000 OA
ATOM     21  C   UNL     1     100.752 122.739 146.044  0.00  0.00    +0.000 C 
ENDBRANCH  17  20
BRANCH  19  22
ATOM     22  O   UNL     1     100.806 123.260 148.098  0.00  0.00    +0.000 OA
ATOM     23  C   UNL     1     100.757 123.271 148.921  0.00  0.00    +0.000 C 
ENDBRANCH  19  22
ENDBRANCH   4  14
BRANCH  12  24
ATOM     24  O   UNL     1     106.645 125.969 145.087  0.00  0.00    +0.000 OA
ATOM     25  C   UNL     1     106.611 126.334 144.348  0.00  0.00    +0.000 C 
ENDBRANCH  12  24
TORSDOF 4
ENDMDL
MODEL 5
REMARK VINA RESULT:      -7.5     11.152     12.447
REMARK  Name = 44257514
REMARK  4 active torsions:
REMARK  status: ('A' for Active; 'I' for Inactive)
REMARK    1  A    between atoms: O_4  and  C_19
REMARK    2  A    between atoms: O_5  and  C_20
REMARK    3  A    between atoms: O_7  and  C_22
REMARK    4  A    between atoms: C_8  and  C_12
REMARK                            x       y       z     vdW  Elec       q    Type
REMARK                         _______ _______ _______ _____ _____    ______ ____
ROOT
ATOM      1  O   UNL     1     108.761 127.597 136.291  0.00  0.00    +0.000 OA
ATOM      2  O   UNL     1     107.907 128.960 135.899  0.00  0.00    +0.000 OA
ATOM      3  O   UNL     1     110.225 130.154 134.730  0.00  0.00    +0.000 OA
ATOM      4  C   UNL     1     110.048 126.854 136.282  0.00  0.00    +0.000 C 
ATOM      5  C   UNL     1     110.417 127.519 135.880  0.00  0.00    +0.000 C 
ATOM      6  C   UNL     1     109.214 126.894 136.489  0.00  0.00    +0.000 C 
ATOM      7  C   UNL     1     109.947 128.213 135.690  0.00  0.00    +0.000 A 
ATOM      8  C   UNL     1     109.147 128.250 135.888  0.00  0.00    +0.000 A 
ATOM      9  C   UNL     1     110.306 128.847 135.303  0.00  0.00    +0.000 A 
ATOM     10  C   UNL     1     108.706 128.922 135.701  0.00  0.00    +0.000 A 
ATOM     11  C   UNL     1     109.866 129.519 135.116  0.00  0.00    +0.000 A 
ATOM     12  C   UNL     1     109.066 129.556 135.315  0.00  0.00    +0.000 A 
ENDROOT
BRANCH   4  14
ATOM     13  O   UNL     1     110.600 126.632 137.821  0.00  0.00    +0.000 OA
ATOM     14  C   UNL     1     110.491 126.184 136.468  0.00  0.00    +0.000 A 
ATOM     15  C   UNL     1     110.767 126.072 137.238  0.00  0.00    +0.000 A 
ATOM     16  C   UNL     1     110.658 125.625 135.885  0.00  0.00    +0.000 A 
ATOM     17  C   UNL     1     111.210 125.402 137.424  0.00  0.00    +0.000 A 
ATOM     18  C   UNL     1     111.100 124.954 136.071  0.00  0.00    +0.000 A 
ATOM     19  C   UNL     1     111.377 124.842 136.841  0.00  0.00    +0.000 A 
BRANCH  17  20
ATOM     20  O   UNL     1     111.486 125.290 138.193  0.00  0.00    +0.000 OA
ATOM     21  C   UNL     1     112.124 125.733 138.472  0.00  0.00    +0.000 C 
ENDBRANCH  17  20
BRANCH  19  22
ATOM     22  O   UNL     1     111.819 124.172 137.026  0.00  0.00    +0.000 OA
ATOM     23  C   UNL     1     111.913 123.571 136.468  0.00  0.00    +0.000 C 
ENDBRANCH  19  22
ENDBRANCH   4  14
BRANCH  12  24
ATOM     24  O   UNL     1     108.625 130.229 135.127  0.00  0.00    +0.000 OA
ATOM     25  C   UNL     1     108.606 130.867 135.649  0.00  0.00    +0.000 C 
ENDBRANCH  12  24
TORSDOF 4
ENDMDL
MODEL 6
REMARK VINA RESULT:      -7.5      7.168      8.335
REMARK  Name = 44257514
REMARK  4 active torsions:
REMARK  status: ('A' for Active; 'I' for Inactive)
REMARK    1  A    between atoms: O_4  and  C_19
REMARK    2  A    between atoms: O_5  and  C_20
REMARK    3  A    between atoms: O_7  and  C_22
REMARK    4  A    between atoms: C_8  and  C_12
REMARK                            x       y       z     vdW  Elec       q    Type
REMARK                         _______ _______ _______ _____ _____    ______ ____
ROOT
ATOM      1  O   UNL     1     103.300 129.444 140.692  0.00  0.00    +0.000 OA
ATOM      2  O   UNL     1     104.042 127.968 140.573  0.00  0.00    +0.000 OA
ATOM      3  O   UNL     1     104.943 128.133 143.280  0.00  0.00    +0.000 OA
ATOM      4  C   UNL     1     102.964 130.637 141.510  0.00  0.00    +0.000 C 
ATOM      5  C   UNL     1     103.390 130.291 142.172  0.00  0.00    +0.000 C 
ATOM      6  C   UNL     1     102.918 130.211 140.765  0.00  0.00    +0.000 C 
ATOM      7  C   UNL     1     103.764 129.524 142.079  0.00  0.00    +0.000 A 
ATOM      8  C   UNL     1     103.721 129.114 141.365  0.00  0.00    +0.000 A 
ATOM      9  C   UNL     1     104.172 129.196 142.718  0.00  0.00    +0.000 A 
ATOM     10  C   UNL     1     104.085 128.377 141.288  0.00  0.00    +0.000 A 
ATOM     11  C   UNL     1     104.536 128.461 142.642  0.00  0.00    +0.000 A 
ATOM     12  C   UNL     1     104.492 128.051 141.927  0.00  0.00    +0.000 A 
ENDROOT
BRANCH   4  14
ATOM     13  O   UNL     1     103.664 131.978 140.849  0.00  0.00    +0.000 OA
ATOM     14  C   UNL     1     102.601 131.374 141.589  0.00  0.00    +0.000 A 
ATOM     15  C   UNL     1     102.951 132.044 141.258  0.00  0.00    +0.000 A 
ATOM     16  C   UNL     1     101.888 131.441 141.998  0.00  0.00    +0.000 A 
ATOM     17  C   UNL     1     102.588 132.781 141.337  0.00  0.00    +0.000 A 
ATOM     18  C   UNL     1     101.525 132.176 142.077  0.00  0.00    +0.000 A 
ATOM     19  C   UNL     1     101.874 132.847 141.747  0.00  0.00    +0.000 A 
BRANCH  17  20
ATOM     20  O   UNL     1     102.937 133.451 141.007  0.00  0.00    +0.000 OA
ATOM     21  C   UNL     1     103.561 133.826 141.396  0.00  0.00    +0.000 C 
ENDBRANCH  17  20
BRANCH  19  22
ATOM     22  O   UNL     1     101.511 133.583 141.827  0.00  0.00    +0.000 OA
ATOM     23  C   UNL     1     100.710 133.630 142.020  0.00  0.00    +0.000 C 
ENDBRANCH  19  22
ENDBRANCH   4  14
BRANCH  12  24
ATOM     24  O   UNL     1     104.856 127.314 141.850  0.00  0.00    +0.000 OA
ATOM     25  C   UNL     1     105.679 127.263 141.815  0.00  0.00    +0.000 C 
ENDBRANCH  12  24
TORSDOF 4
ENDMDL
MODEL 7
REMARK VINA RESULT:      -7.2     12.332     14.003
REMARK  Name = 44257514
REMARK  4 active torsions:
REMARK  status: ('A' for Active; 'I' for Inactive)
REMARK    1  A    between atoms: O_4  and  C_19
REMARK    2  A    between atoms: O_5  and  C_20
REMARK    3  A    between atoms: O_7  and  C_22
REMARK    4  A    between atoms: C_8  and  C_12
REMARK                            x       y       z     vdW  Elec       q    Type
REMARK                         _______ _______ _______ _____ _____    ______ ____
ROOT
ATOM      1  O   UNL     1     112.805 128.420 137.638  0.00  0.00    +0.000 OA
ATOM      2  O   UNL     1     113.353 129.968 137.854  0.00  0.00    +0.000 OA
ATOM      3  O   UNL     1     114.689 129.915 135.328  0.00  0.00    +0.000 OA
ATOM      4  C   UNL     1     112.737 127.200 136.792  0.00  0.00    +0.000 C 
ATOM      5  C   UNL     1     113.223 127.594 136.203  0.00  0.00    +0.000 C 
ATOM      6  C   UNL     1     112.527 127.616 137.515  0.00  0.00    +0.000 C 
ATOM      7  C   UNL     1     113.492 128.397 136.343  0.00  0.00    +0.000 A 
ATOM      8  C   UNL     1     113.290 128.796 137.037  0.00  0.00    +0.000 A 
ATOM      9  C   UNL     1     113.958 128.771 135.774  0.00  0.00    +0.000 A 
ATOM     10  C   UNL     1     113.555 129.569 137.161  0.00  0.00    +0.000 A 
ATOM     11  C   UNL     1     114.223 129.542 135.898  0.00  0.00    +0.000 A 
ATOM     12  C   UNL     1     114.021 129.941 136.591  0.00  0.00    +0.000 A 
ENDROOT
BRANCH   4  14
ATOM     13  O   UNL     1     111.201 126.929 136.254  0.00  0.00    +0.000 OA
ATOM     14  C   UNL     1     112.475 126.428 136.666  0.00  0.00    +0.000 A 
ATOM     15  C   UNL     1     111.706 126.293 136.397  0.00  0.00    +0.000 A 
ATOM     16  C   UNL     1     112.980 125.792 136.809  0.00  0.00    +0.000 A 
ATOM     17  C   UNL     1     111.444 125.521 136.271  0.00  0.00    +0.000 A 
ATOM     18  C   UNL     1     112.718 125.021 136.683  0.00  0.00    +0.000 A 
ATOM     19  C   UNL     1     111.950 124.884 136.414  0.00  0.00    +0.000 A 
BRANCH  17  20
ATOM     20  O   UNL     1     110.676 125.385 136.002  0.00  0.00    +0.000 OA
ATOM     21  C   UNL     1     110.480 125.538 135.215  0.00  0.00    +0.000 C 
ENDBRANCH  17  20
BRANCH  19  22
ATOM     22  O   UNL     1     111.687 124.113 136.288  0.00  0.00    +0.000 OA
ATOM     23  C   UNL     1     112.092 123.479 136.627  0.00  0.00    +0.000 C 
ENDBRANCH  19  22
ENDBRANCH   4  14
BRANCH  12  24
ATOM     24  O   UNL     1     114.285 130.713 136.715  0.00  0.00    +0.000 OA
ATOM     25  C   UNL     1     113.819 131.351 136.478  0.00  0.00    +0.000 C 
ENDBRANCH  12  24
TORSDOF 4
ENDMDL
MODEL 8
REMARK VINA RESULT:      -7.2     10.172     11.706
REMARK  Name = 44257514
REMARK  4 active torsions:
REMARK  status: ('A' for Active; 'I' for Inactive)
REMARK    1  A    between atoms: O_4  and  C_19
REMARK    2  A    between atoms: O_5  and  C_20
REMARK    3  A    between atoms: O_7  and  C_22
REMARK    4  A    between atoms: C_8  and  C_12
REMARK                            x       y       z     vdW  Elec       q    Type
REMARK                         _______ _______ _______ _____ _____    ______ ____
ROOT
ATOM      1  O   UNL     1     111.704 125.052 137.253  0.00  0.00    +0.000 OA
ATOM      2  O   UNL     1     110.957 124.646 135.832  0.00  0.00    +0.000 OA
ATOM      3  O   UNL     1     110.901 127.381 135.006  0.00  0.00    +0.000 OA
ATOM      4  C   UNL     1     112.271 126.102 138.139  0.00  0.00    +0.000 C 
ATOM      5  C   UNL     1     112.060 126.695 137.554  0.00  0.00    +0.000 C 
ATOM      6  C   UNL     1     112.091 125.274 137.988  0.00  0.00    +0.000 C 
ATOM      7  C   UNL     1     111.673 126.454 136.826  0.00  0.00    +0.000 A 
ATOM      8  C   UNL     1     111.501 125.660 136.681  0.00  0.00    +0.000 A 
ATOM      9  C   UNL     1     111.473 127.027 136.267  0.00  0.00    +0.000 A 
ATOM     10  C   UNL     1     111.129 125.440 135.977  0.00  0.00    +0.000 A 
ATOM     11  C   UNL     1     111.101 126.808 135.565  0.00  0.00    +0.000 A 
ATOM     12  C   UNL     1     110.929 126.014 135.420  0.00  0.00    +0.000 A 
ENDROOT
BRANCH   4  14
ATOM     13  O   UNL     1     111.433 126.078 139.560  0.00  0.00    +0.000 OA
ATOM     14  C   UNL     1     112.642 126.324 138.841  0.00  0.00    +0.000 A 
ATOM     15  C   UNL     1     112.223 126.312 139.552  0.00  0.00    +0.000 A 
ATOM     16  C   UNL     1     113.433 126.559 138.832  0.00  0.00    +0.000 A 
ATOM     17  C   UNL     1     112.595 126.535 140.254  0.00  0.00    +0.000 A 
ATOM     18  C   UNL     1     113.805 126.782 139.533  0.00  0.00    +0.000 A 
ATOM     19  C   UNL     1     113.387 126.770 140.245  0.00  0.00    +0.000 A 
BRANCH  17  20
ATOM     20  O   UNL     1     112.177 126.523 140.964  0.00  0.00    +0.000 OA
ATOM     21  C   UNL     1     111.614 127.105 141.122  0.00  0.00    +0.000 C 
ENDBRANCH  17  20
BRANCH  19  22
ATOM     22  O   UNL     1     113.759 126.992 140.946  0.00  0.00    +0.000 OA
ATOM     23  C   UNL     1     114.559 127.194 140.943  0.00  0.00    +0.000 C 
ENDBRANCH  19  22
ENDBRANCH   4  14
BRANCH  12  24
ATOM     24  O   UNL     1     110.557 125.794 134.717  0.00  0.00    +0.000 OA
ATOM     25  C   UNL     1     109.753 125.944 134.612  0.00  0.00    +0.000 C 
ENDBRANCH  12  24
TORSDOF 4
ENDMDL
MODEL 9
REMARK VINA RESULT:      -7.2      2.614      3.983
REMARK  Name = 44257514
REMARK  4 active torsions:
REMARK  status: ('A' for Active; 'I' for Inactive)
REMARK    1  A    between atoms: O_4  and  C_19
REMARK    2  A    between atoms: O_5  and  C_20
REMARK    3  A    between atoms: O_7  and  C_22
REMARK    4  A    between atoms: C_8  and  C_12
REMARK                            x       y       z     vdW  Elec       q    Type
REMARK                         _______ _______ _______ _____ _____    ______ ____
ROOT
ATOM      1  O   UNL     1     106.125 125.099 144.855  0.00  0.00    +0.000 OA
ATOM      2  O   UNL     1     105.713 125.606 143.333  0.00  0.00    +0.000 OA
ATOM      3  O   UNL     1     105.376 128.292 144.248  0.00  0.00    +0.000 OA
ATOM      4  C   UNL     1     106.355 125.425 146.286  0.00  0.00    +0.000 C 
ATOM      5  C   UNL     1     106.160 126.246 146.120  0.00  0.00    +0.000 C 
ATOM      6  C   UNL     1     106.337 124.848 145.649  0.00  0.00    +0.000 C 
ATOM      7  C   UNL     1     105.950 126.478 145.320  0.00  0.00    +0.000 A 
ATOM      8  C   UNL     1     105.933 125.924 144.709  0.00  0.00    +0.000 A 
ATOM      9  C   UNL     1     105.765 127.267 145.166  0.00  0.00    +0.000 A 
ATOM     10  C   UNL     1     105.730 126.160 143.944  0.00  0.00    +0.000 A 
ATOM     11  C   UNL     1     105.562 127.503 144.402  0.00  0.00    +0.000 A 
ATOM     12  C   UNL     1     105.545 126.949 143.791  0.00  0.00    +0.000 A 
ENDROOT
BRANCH   4  14
ATOM     13  O   UNL     1     105.209 124.780 147.283  0.00  0.00    +0.000 OA
ATOM     14  C   UNL     1     106.557 125.193 147.051  0.00  0.00    +0.000 A 
ATOM     15  C   UNL     1     105.984 124.870 147.550  0.00  0.00    +0.000 A 
ATOM     16  C   UNL     1     107.333 125.283 147.318  0.00  0.00    +0.000 A 
ATOM     17  C   UNL     1     106.187 124.638 148.315  0.00  0.00    +0.000 A 
ATOM     18  C   UNL     1     107.536 125.051 148.082  0.00  0.00    +0.000 A 
ATOM     19  C   UNL     1     106.963 124.728 148.582  0.00  0.00    +0.000 A 
BRANCH  17  20
ATOM     20  O   UNL     1     105.615 124.315 148.814  0.00  0.00    +0.000 OA
ATOM     21  C   UNL     1     105.089 124.809 149.213  0.00  0.00    +0.000 C 
ENDBRANCH  17  20
BRANCH  19  22
ATOM     22  O   UNL     1     107.166 124.496 149.346  0.00  0.00    +0.000 OA
ATOM     23  C   UNL     1     107.960 124.405 149.553  0.00  0.00    +0.000 C 
ENDBRANCH  19  22
ENDBRANCH   4  14
BRANCH  12  24
ATOM     24  O   UNL     1     105.342 127.184 143.026  0.00  0.00    +0.000 OA
ATOM     25  C   UNL     1     105.920 127.484 142.521  0.00  0.00    +0.000 C 
ENDBRANCH  12  24
TORSDOF 4
ENDMDL
MODEL 10
REMARK VINA RESULT:      -7.1      9.406     10.652
REMARK  Name = 44257514
REMARK  4 active torsions:
REMARK  status: ('A' for Active; 'I' for Inactive)
REMARK    1  A    between atoms: O_4  and  C_19
REMARK    2  A    between atoms: O_5  and  C_20
REMARK    3  A    between atoms: O_7  and  C_22
REMARK    4  A    between atoms: C_8  and  C_12
REMARK                            x       y       z     vdW  Elec       q    Type
REMARK                         _______ _______ _______ _____ _____    ______ ____
ROOT
ATOM      1  O   UNL     1     112.282 132.445 143.844  0.00  0.00    +0.000 OA
ATOM      2  O   UNL     1     112.489 131.809 142.329  0.00  0.00    +0.000 OA
ATOM      3  O   UNL     1     111.551 129.255 143.202  0.00  0.00    +0.000 OA
ATOM      4  C   UNL     1     111.868 132.254 145.258  0.00  0.00    +0.000 C 
ATOM      5  C   UNL     1     111.683 131.433 145.083  0.00  0.00    +0.000 C 
ATOM      6  C   UNL     1     112.170 132.764 144.634  0.00  0.00    +0.000 C 
ATOM      7  C   UNL     1     111.801 131.133 144.287  0.00  0.00    +0.000 A 
ATOM      8  C   UNL     1     112.091 131.621 143.689  0.00  0.00    +0.000 A 
ATOM      9  C   UNL     1     111.621 130.344 144.125  0.00  0.00    +0.000 A 
ATOM     10  C   UNL     1     112.200 131.321 142.927  0.00  0.00    +0.000 A 
ATOM     11  C   UNL     1     111.731 130.044 143.365  0.00  0.00    +0.000 A 
ATOM     12  C   UNL     1     112.020 130.532 142.766  0.00  0.00    +0.000 A 
ENDROOT
BRANCH   4  14
ATOM     13  O   UNL     1     110.534 133.161 145.605  0.00  0.00    +0.000 OA
ATOM     14  C   UNL     1     111.758 132.552 146.020  0.00  0.00    +0.000 A 
ATOM     15  C   UNL     1     111.091 133.005 146.193  0.00  0.00    +0.000 A 
ATOM     16  C   UNL     1     112.315 132.397 146.608  0.00  0.00    +0.000 A 
ATOM     17  C   UNL     1     110.980 133.303 146.954  0.00  0.00    +0.000 A 
ATOM     18  C   UNL     1     112.205 132.694 147.369  0.00  0.00    +0.000 A 
ATOM     19  C   UNL     1     111.538 133.147 147.543  0.00  0.00    +0.000 A 
BRANCH  17  20
ATOM     20  O   UNL     1     110.314 133.756 147.128  0.00  0.00    +0.000 OA
ATOM     21  C   UNL     1     109.580 133.391 147.223  0.00  0.00    +0.000 C 
ENDBRANCH  17  20
BRANCH  19  22
ATOM     22  O   UNL     1     111.428 133.444 148.304  0.00  0.00    +0.000 OA
ATOM     23  C   UNL     1     111.981 133.282 148.895  0.00  0.00    +0.000 C 
ENDBRANCH  19  22
ENDBRANCH   4  14
BRANCH  12  24
ATOM     24  O   UNL     1     112.130 130.232 142.005  0.00  0.00    +0.000 OA
ATOM     25  C   UNL     1     112.842 129.869 141.804  0.00  0.00    +0.000 C 
ENDBRANCH  12  24
TORSDOF 4
ENDMDL
