MODEL 1
REMARK VINA RESULT:     -10.0      0.000      0.000
REMARK  Name = 44259758
REMARK  10 active torsions:
REMARK  status: ('A' for Active; 'I' for Inactive)
REMARK    1  A    between atoms: O_3  and  C_18
REMARK    2  A    between atoms: O_3  and  C_35
REMARK    3  A    between atoms: O_4  and  C_19
REMARK    4  A    between atoms: O_4  and  C_37
REMARK    5  A    between atoms: O_5  and  C_26
REMARK    6  A    between atoms: O_5  and  C_30
REMARK    7  A    between atoms: O_6  and  C_27
REMARK    8  A    between atoms: O_6  and  C_31
REMARK    9  A    between atoms: O_12  and  C_39
REMARK   10  A    between atoms: C_36  and  C_41
REMARK                            x       y       z     vdW  Elec       q    Type
REMARK                         _______ _______ _______ _____ _____    ______ ____
ROOT
ATOM      1  O   UNL     1     110.804 128.720 135.976  0.00  0.00    +0.000 OA
ATOM      2  O   UNL     1     113.113 128.498 136.837  0.00  0.00    +0.000 OA
ATOM      3  O   UNL     1     113.153 129.901 137.172  0.00  0.00    +0.000 OA
ATOM      4  C   UNL     1     111.951 127.913 136.246  0.00  0.00    +0.000 A 
ATOM      5  C   UNL     1     111.194 130.827 136.609  0.00  0.00    +0.000 A 
ATOM      6  C   UNL     1     111.965 129.305 136.568  0.00  0.00    +0.000 A 
ATOM      7  C   UNL     1     112.343 128.572 136.550  0.00  0.00    +0.000 A 
ATOM      8  C   UNL     1     111.195 129.379 136.280  0.00  0.00    +0.000 A 
ATOM      9  C   UNL     1     111.182 127.987 135.959  0.00  0.00    +0.000 A 
ATOM     10  C   UNL     1     110.791 130.137 136.293  0.00  0.00    +0.000 A 
ATOM     11  C   UNL     1     111.995 130.751 136.908  0.00  0.00    +0.000 A 
ATOM     12  C   UNL     1     112.384 129.983 136.887  0.00  0.00    +0.000 A 
ENDROOT
BRANCH   9  14
ATOM     13  O   UNL     1     109.610 125.352 134.742  0.00  0.00    +0.000 OA
ATOM     14  C   UNL     1     110.789 127.328 135.654  0.00  0.00    +0.000 A 
ATOM     15  C   UNL     1     110.182 126.974 136.086  0.00  0.00    +0.000 A 
ATOM     16  C   UNL     1     111.003 127.023 134.919  0.00  0.00    +0.000 A 
ATOM     17  C   UNL     1     109.789 126.316 135.783  0.00  0.00    +0.000 A 
ATOM     18  C   UNL     1     110.611 126.365 134.614  0.00  0.00    +0.000 A 
ATOM     19  C   UNL     1     110.003 126.011 135.046  0.00  0.00    +0.000 A 
ENDBRANCH   9  14
BRANCH  11  20
ATOM     20  O   UNL     1     112.390 131.407 137.213  0.00  0.00    +0.000 OA
ATOM     21  C   UNL     1     113.083 131.674 136.854  0.00  0.00    +0.000 C 
ENDBRANCH  11  20
BRANCH   4  22
ATOM     22  O   UNL     1     112.329 127.180 136.228  0.00  0.00    +0.000 OA
BRANCH  22  30
ATOM     23  O   UNL     1     112.186 126.919 137.626  0.00  0.00    +0.000 OA
ATOM     24  O   UNL     1     113.484 125.852 139.020  0.00  0.00    +0.000 OA
ATOM     25  O   UNL     1     113.769 126.375 136.225  0.00  0.00    +0.000 OA
ATOM     26  C   UNL     1     113.626 126.113 137.623  0.00  0.00    +0.000 C 
ATOM     27  C   UNL     1     113.195 126.184 138.322  0.00  0.00    +0.000 C 
ATOM     28  C   UNL     1     113.338 126.445 136.925  0.00  0.00    +0.000 C 
ATOM     29  C   UNL     1     112.475 126.587 138.324  0.00  0.00    +0.000 C 
ATOM     30  C   UNL     1     112.618 126.848 136.927  0.00  0.00    +0.000 C 
ATOM     31  C   UNL     1     112.043 126.657 139.024  0.00  0.00    +0.000 C 
BRANCH  26  32
ATOM     32  O   UNL     1     114.346 125.711 137.621  0.00  0.00    +0.000 OA
BRANCH  32  34
ATOM     33  O   UNL     1     113.937 124.343 137.569  0.00  0.00    +0.000 OA
ATOM     34  C   UNL     1     114.400 124.962 137.280  0.00  0.00    +0.000 C 
ATOM     35  C   UNL     1     114.916 124.831 136.649  0.00  0.00    +0.000 C 
ENDBRANCH  32  34
ENDBRANCH  26  32
ENDBRANCH  22  30
ENDBRANCH   4  22
BRANCH   5  36
ATOM     36  O   UNL     1     110.814 131.559 136.625  0.00  0.00    +0.000 OA
BRANCH  36  44
ATOM     37  O   UNL     1     109.918 131.387 137.725  0.00  0.00    +0.000 OA
ATOM     38  O   UNL     1     107.786 131.817 137.915  0.00  0.00    +0.000 OA
ATOM     39  O   UNL     1     109.577 132.161 135.714  0.00  0.00    +0.000 OA
ATOM     40  C   UNL     1     108.681 131.989 136.814  0.00  0.00    +0.000 C 
ATOM     41  C   UNL     1     108.543 131.753 137.593  0.00  0.00    +0.000 C 
ATOM     42  C   UNL     1     109.438 131.925 136.492  0.00  0.00    +0.000 C 
ATOM     43  C   UNL     1     109.161 131.452 138.048  0.00  0.00    +0.000 C 
ATOM     44  C   UNL     1     110.057 131.624 136.947  0.00  0.00    +0.000 C 
ATOM     45  C   UNL     1     109.023 131.215 138.826  0.00  0.00    +0.000 C 
BRANCH  40  46
ATOM     46  O   UNL     1     108.063 132.291 136.359  0.00  0.00    +0.000 OA
BRANCH  46  48
ATOM     47  O   UNL     1     107.371 131.102 135.972  0.00  0.00    +0.000 OA
ATOM     48  C   UNL     1     107.717 131.824 135.773  0.00  0.00    +0.000 C 
ATOM     49  C   UNL     1     107.717 132.080 134.988  0.00  0.00    +0.000 C 
ENDBRANCH  46  48
ENDBRANCH  40  46
ENDBRANCH  36  44
ENDBRANCH   5  36
TORSDOF 10
ENDMDL
MODEL 2
REMARK VINA RESULT:      -9.7      1.266      2.759
REMARK  Name = 44259758
REMARK  10 active torsions:
REMARK  status: ('A' for Active; 'I' for Inactive)
REMARK    1  A    between atoms: O_3  and  C_18
REMARK    2  A    between atoms: O_3  and  C_35
REMARK    3  A    between atoms: O_4  and  C_19
REMARK    4  A    between atoms: O_4  and  C_37
REMARK    5  A    between atoms: O_5  and  C_26
REMARK    6  A    between atoms: O_5  and  C_30
REMARK    7  A    between atoms: O_6  and  C_27
REMARK    8  A    between atoms: O_6  and  C_31
REMARK    9  A    between atoms: O_12  and  C_39
REMARK   10  A    between atoms: C_36  and  C_41
REMARK                            x       y       z     vdW  Elec       q    Type
REMARK                         _______ _______ _______ _____ _____    ______ ____
ROOT
ATOM      1  O   UNL     1     111.777 129.190 135.923  0.00  0.00    +0.000 OA
ATOM      2  O   UNL     1     111.779 126.780 136.486  0.00  0.00    +0.000 OA
ATOM      3  O   UNL     1     110.337 126.754 136.502  0.00  0.00    +0.000 OA
ATOM      4  C   UNL     1     112.493 127.985 136.199  0.00  0.00    +0.000 A 
ATOM      5  C   UNL     1     109.579 128.807 136.028  0.00  0.00    +0.000 A 
ATOM      6  C   UNL     1     111.064 127.985 136.209  0.00  0.00    +0.000 A 
ATOM      7  C   UNL     1     111.779 127.583 136.298  0.00  0.00    +0.000 A 
ATOM      8  C   UNL     1     111.063 128.790 136.021  0.00  0.00    +0.000 A 
ATOM      9  C   UNL     1     112.492 128.788 136.011  0.00  0.00    +0.000 A 
ATOM     10  C   UNL     1     110.325 129.219 135.927  0.00  0.00    +0.000 A 
ATOM     11  C   UNL     1     109.579 127.971 136.224  0.00  0.00    +0.000 A 
ATOM     12  C   UNL     1     110.327 127.557 136.315  0.00  0.00    +0.000 A 
ENDROOT
BRANCH   9  14
ATOM     13  O   UNL     1     115.348 130.393 135.612  0.00  0.00    +0.000 OA
ATOM     14  C   UNL     1     113.206 129.189 135.912  0.00  0.00    +0.000 A 
ATOM     15  C   UNL     1     113.652 129.074 135.228  0.00  0.00    +0.000 A 
ATOM     16  C   UNL     1     113.474 129.706 136.496  0.00  0.00    +0.000 A 
ATOM     17  C   UNL     1     114.366 129.475 135.127  0.00  0.00    +0.000 A 
ATOM     18  C   UNL     1     114.188 130.107 136.397  0.00  0.00    +0.000 A 
ATOM     19  C   UNL     1     114.634 129.992 135.713  0.00  0.00    +0.000 A 
ENDBRANCH   9  14
BRANCH  11  20
ATOM     20  O   UNL     1     108.867 127.567 136.323  0.00  0.00    +0.000 OA
ATOM     21  C   UNL     1     108.628 127.009 135.764  0.00  0.00    +0.000 C 
ENDBRANCH  11  20
BRANCH   4  22
ATOM     22  O   UNL     1     113.207 127.582 136.288  0.00  0.00    +0.000 OA
BRANCH  22  30
ATOM     23  O   UNL     1     113.079 127.497 137.708  0.00  0.00    +0.000 OA
ATOM     24  O   UNL     1     113.906 126.067 139.135  0.00  0.00    +0.000 OA
ATOM     25  O   UNL     1     114.163 126.238 136.294  0.00  0.00    +0.000 OA
ATOM     26  C   UNL     1     114.035 126.152 137.714  0.00  0.00    +0.000 C 
ATOM     27  C   UNL     1     113.731 126.446 138.422  0.00  0.00    +0.000 C 
ATOM     28  C   UNL     1     113.860 126.531 137.003  0.00  0.00    +0.000 C 
ATOM     29  C   UNL     1     113.253 127.118 138.419  0.00  0.00    +0.000 C 
ATOM     30  C   UNL     1     113.382 127.203 137.000  0.00  0.00    +0.000 C 
ATOM     31  C   UNL     1     112.950 127.412 139.129  0.00  0.00    +0.000 C 
BRANCH  26  32
ATOM     32  O   UNL     1     114.513 125.480 137.717  0.00  0.00    +0.000 OA
BRANCH  32  34
ATOM     33  O   UNL     1     113.581 124.397 137.756  0.00  0.00    +0.000 OA
ATOM     34  C   UNL     1     114.229 124.770 137.406  0.00  0.00    +0.000 C 
ATOM     35  C   UNL     1     114.593 124.434 136.746  0.00  0.00    +0.000 C 
ENDBRANCH  32  34
ENDBRANCH  26  32
ENDBRANCH  22  30
ENDBRANCH   4  22
BRANCH   5  36
ATOM     36  O   UNL     1     108.865 129.212 135.939  0.00  0.00    +0.000 OA
BRANCH  36  44
ATOM     37  O   UNL     1     108.900 130.011 137.124  0.00  0.00    +0.000 OA
ATOM     38  O   UNL     1     108.416 132.115 137.444  0.00  0.00    +0.000 OA
ATOM     39  O   UNL     1     108.346 130.518 135.075  0.00  0.00    +0.000 OA
ATOM     40  C   UNL     1     108.381 131.317 136.260  0.00  0.00    +0.000 C 
ATOM     41  C   UNL     1     108.528 131.390 137.068  0.00  0.00    +0.000 C 
ATOM     42  C   UNL     1     108.493 130.591 135.884  0.00  0.00    +0.000 C 
ATOM     43  C   UNL     1     108.788 130.736 137.500  0.00  0.00    +0.000 C 
ATOM     44  C   UNL     1     108.753 129.938 136.315  0.00  0.00    +0.000 C 
ATOM     45  C   UNL     1     108.936 130.809 138.308  0.00  0.00    +0.000 C 
BRANCH  40  46
ATOM     46  O   UNL     1     108.121 131.970 135.827  0.00  0.00    +0.000 OA
BRANCH  46  48
ATOM     47  O   UNL     1     106.723 131.692 135.919  0.00  0.00    +0.000 OA
ATOM     48  C   UNL     1     107.370 131.967 135.487  0.00  0.00    +0.000 C 
ATOM     49  C   UNL     1     107.266 132.238 134.714  0.00  0.00    +0.000 C 
ENDBRANCH  46  48
ENDBRANCH  40  46
ENDBRANCH  36  44
ENDBRANCH   5  36
TORSDOF 10
ENDMDL
MODEL 3
REMARK VINA RESULT:      -9.4      1.548      6.373
REMARK  Name = 44259758
REMARK  10 active torsions:
REMARK  status: ('A' for Active; 'I' for Inactive)
REMARK    1  A    between atoms: O_3  and  C_18
REMARK    2  A    between atoms: O_3  and  C_35
REMARK    3  A    between atoms: O_4  and  C_19
REMARK    4  A    between atoms: O_4  and  C_37
REMARK    5  A    between atoms: O_5  and  C_26
REMARK    6  A    between atoms: O_5  and  C_30
REMARK    7  A    between atoms: O_6  and  C_27
REMARK    8  A    between atoms: O_6  and  C_31
REMARK    9  A    between atoms: O_12  and  C_39
REMARK   10  A    between atoms: C_36  and  C_41
REMARK                            x       y       z     vdW  Elec       q    Type
REMARK                         _______ _______ _______ _____ _____    ______ ____
ROOT
ATOM      1  O   UNL     1     112.731 128.445 137.154  0.00  0.00    +0.000 OA
ATOM      2  O   UNL     1     110.849 129.789 138.034  0.00  0.00    +0.000 OA
ATOM      3  O   UNL     1     110.260 128.620 138.640  0.00  0.00    +0.000 OA
ATOM      4  C   UNL     1     112.071 129.704 137.298  0.00  0.00    +0.000 A 
ATOM      5  C   UNL     1     111.566 126.854 138.204  0.00  0.00    +0.000 A 
ATOM      6  C   UNL     1     111.509 128.531 137.889  0.00  0.00    +0.000 A 
ATOM      7  C   UNL     1     111.476 129.342 137.741  0.00  0.00    +0.000 A 
ATOM      8  C   UNL     1     112.137 128.082 137.596  0.00  0.00    +0.000 A 
ATOM      9  C   UNL     1     112.698 129.256 137.005  0.00  0.00    +0.000 A 
ATOM     10  C   UNL     1     112.182 127.237 137.744  0.00  0.00    +0.000 A 
ATOM     11  C   UNL     1     110.912 127.320 138.509  0.00  0.00    +0.000 A 
ATOM     12  C   UNL     1     110.884 128.165 138.351  0.00  0.00    +0.000 A 
ENDROOT
BRANCH   9  14
ATOM     13  O   UNL     1     115.079 130.706 135.239  0.00  0.00    +0.000 OA
ATOM     14  C   UNL     1     113.293 129.618 136.563  0.00  0.00    +0.000 A 
ATOM     15  C   UNL     1     113.846 130.105 136.936  0.00  0.00    +0.000 A 
ATOM     16  C   UNL     1     113.337 129.495 135.749  0.00  0.00    +0.000 A 
ATOM     17  C   UNL     1     114.441 130.467 136.495  0.00  0.00    +0.000 A 
ATOM     18  C   UNL     1     113.932 129.857 135.307  0.00  0.00    +0.000 A 
ATOM     19  C   UNL     1     114.484 130.343 135.680  0.00  0.00    +0.000 A 
ENDBRANCH   9  14
BRANCH  11  20
ATOM     20  O   UNL     1     110.316 126.961 138.952  0.00  0.00    +0.000 OA
ATOM     21  C   UNL     1     110.278 127.081 139.767  0.00  0.00    +0.000 C 
ENDBRANCH  11  20
BRANCH   4  22
ATOM     22  O   UNL     1     112.038 130.515 137.150  0.00  0.00    +0.000 OA
BRANCH  22  30
ATOM     23  O   UNL     1     111.003 130.396 136.171  0.00  0.00    +0.000 OA
ATOM     24  O   UNL     1     109.444 131.798 135.564  0.00  0.00    +0.000 OA
ATOM     25  O   UNL     1     111.514 132.034 137.520  0.00  0.00    +0.000 OA
ATOM     26  C   UNL     1     110.479 131.916 136.542  0.00  0.00    +0.000 C 
ATOM     27  C   UNL     1     110.093 131.477 135.961  0.00  0.00    +0.000 C 
ATOM     28  C   UNL     1     111.127 131.596 136.938  0.00  0.00    +0.000 C 
ATOM     29  C   UNL     1     110.355 130.717 135.775  0.00  0.00    +0.000 C 
ATOM     30  C   UNL     1     111.389 130.836 136.753  0.00  0.00    +0.000 C 
ATOM     31  C   UNL     1     109.969 130.278 135.193  0.00  0.00    +0.000 C 
BRANCH  26  32
ATOM     32  O   UNL     1     110.217 132.676 136.727  0.00  0.00    +0.000 OA
BRANCH  32  34
ATOM     33  O   UNL     1     109.040 132.474 137.513  0.00  0.00    +0.000 OA
ATOM     34  C   UNL     1     109.790 132.808 137.421  0.00  0.00    +0.000 C 
ATOM     35  C   UNL     1     110.111 133.273 138.022  0.00  0.00    +0.000 C 
ENDBRANCH  32  34
ENDBRANCH  26  32
ENDBRANCH  22  30
ENDBRANCH   4  22
BRANCH   5  36
ATOM     36  O   UNL     1     111.601 126.043 138.351  0.00  0.00    +0.000 OA
BRANCH  36  44
ATOM     37  O   UNL     1     111.216 125.474 137.098  0.00  0.00    +0.000 OA
ATOM     38  O   UNL     1     112.166 123.939 135.871  0.00  0.00    +0.000 OA
ATOM     39  O   UNL     1     112.937 125.076 138.378  0.00  0.00    +0.000 OA
ATOM     40  C   UNL     1     112.552 124.507 137.124  0.00  0.00    +0.000 C 
ATOM     41  C   UNL     1     112.025 124.464 136.491  0.00  0.00    +0.000 C 
ATOM     42  C   UNL     1     112.411 125.033 137.744  0.00  0.00    +0.000 C 
ATOM     43  C   UNL     1     111.357 124.948 136.478  0.00  0.00    +0.000 C 
ATOM     44  C   UNL     1     111.742 125.517 137.731  0.00  0.00    +0.000 C 
ATOM     45  C   UNL     1     110.829 124.906 135.845  0.00  0.00    +0.000 C 
BRANCH  40  46
ATOM     46  O   UNL     1     113.220 124.024 137.138  0.00  0.00    +0.000 OA
BRANCH  46  48
ATOM     47  O   UNL     1     114.062 124.550 136.110  0.00  0.00    +0.000 OA
ATOM     48  C   UNL     1     113.951 124.322 136.896  0.00  0.00    +0.000 C 
ATOM     49  C   UNL     1     114.568 124.392 137.439  0.00  0.00    +0.000 C 
ENDBRANCH  46  48
ENDBRANCH  40  46
ENDBRANCH  36  44
ENDBRANCH   5  36
TORSDOF 10
ENDMDL
MODEL 4
REMARK VINA RESULT:      -9.3      1.622      2.914
REMARK  Name = 44259758
REMARK  10 active torsions:
REMARK  status: ('A' for Active; 'I' for Inactive)
REMARK    1  A    between atoms: O_3  and  C_18
REMARK    2  A    between atoms: O_3  and  C_35
REMARK    3  A    between atoms: O_4  and  C_19
REMARK    4  A    between atoms: O_4  and  C_37
REMARK    5  A    between atoms: O_5  and  C_26
REMARK    6  A    between atoms: O_5  and  C_30
REMARK    7  A    between atoms: O_6  and  C_27
REMARK    8  A    between atoms: O_6  and  C_31
REMARK    9  A    between atoms: O_12  and  C_39
REMARK   10  A    between atoms: C_36  and  C_41
REMARK                            x       y       z     vdW  Elec       q    Type
REMARK                         _______ _______ _______ _____ _____    ______ ____
ROOT
ATOM      1  O   UNL     1     111.583 129.176 137.198  0.00  0.00    +0.000 OA
ATOM      2  O   UNL     1     111.409 126.971 138.307  0.00  0.00    +0.000 OA
ATOM      3  O   UNL     1     110.267 127.412 139.070  0.00  0.00    +0.000 OA
ATOM      4  C   UNL     1     112.061 127.842 137.381  0.00  0.00    +0.000 A 
ATOM      5  C   UNL     1     109.817 129.536 138.519  0.00  0.00    +0.000 A 
ATOM      6  C   UNL     1     110.932 128.304 138.124  0.00  0.00    +0.000 A 
ATOM      7  C   UNL     1     111.467 127.705 137.938  0.00  0.00    +0.000 A 
ATOM      8  C   UNL     1     110.989 129.040 137.754  0.00  0.00    +0.000 A 
ATOM      9  C   UNL     1     112.119 128.577 137.012  0.00  0.00    +0.000 A 
ATOM     10  C   UNL     1     110.438 129.672 137.940  0.00  0.00    +0.000 A 
ATOM     11  C   UNL     1     109.756 128.770 138.904  0.00  0.00    +0.000 A 
ATOM     12  C   UNL     1     110.318 128.150 138.705  0.00  0.00    +0.000 A 
ENDROOT
BRANCH   9  14
ATOM     13  O   UNL     1     114.491 129.125 134.784  0.00  0.00    +0.000 OA
ATOM     14  C   UNL     1     112.713 128.714 136.455  0.00  0.00    +0.000 A 
ATOM     15  C   UNL     1     112.524 128.755 135.653  0.00  0.00    +0.000 A 
ATOM     16  C   UNL     1     113.494 128.810 136.700  0.00  0.00    +0.000 A 
ATOM     17  C   UNL     1     113.116 128.891 135.096  0.00  0.00    +0.000 A 
ATOM     18  C   UNL     1     114.088 128.947 136.143  0.00  0.00    +0.000 A 
ATOM     19  C   UNL     1     113.899 128.988 135.341  0.00  0.00    +0.000 A 
ENDBRANCH   9  14
BRANCH  11  20
ATOM     20  O   UNL     1     109.164 128.631 139.460  0.00  0.00    +0.000 OA
ATOM     21  C   UNL     1     109.357 128.566 140.260  0.00  0.00    +0.000 C 
ENDBRANCH  11  20
BRANCH   4  22
ATOM     22  O   UNL     1     112.597 127.243 137.194  0.00  0.00    +0.000 OA
BRANCH  22  30
ATOM     23  O   UNL     1     111.678 126.494 136.397  0.00  0.00    +0.000 OA
ATOM     24  O   UNL     1     111.502 124.345 136.059  0.00  0.00    +0.000 OA
ATOM     25  O   UNL     1     113.341 125.844 137.653  0.00  0.00    +0.000 OA
ATOM     26  C   UNL     1     112.421 125.094 136.856  0.00  0.00    +0.000 C 
ATOM     27  C   UNL     1     111.776 125.069 136.343  0.00  0.00    +0.000 C 
ATOM     28  C   UNL     1     112.695 125.818 137.140  0.00  0.00    +0.000 C 
ATOM     29  C   UNL     1     111.404 125.769 136.114  0.00  0.00    +0.000 C 
ATOM     30  C   UNL     1     112.323 126.518 136.910  0.00  0.00    +0.000 C 
ATOM     31  C   UNL     1     110.758 125.745 135.600  0.00  0.00    +0.000 C 
BRANCH  26  32
ATOM     32  O   UNL     1     112.793 124.394 137.085  0.00  0.00    +0.000 OA
BRANCH  32  34
ATOM     33  O   UNL     1     113.641 124.069 135.982  0.00  0.00    +0.000 OA
ATOM     34  C   UNL     1     113.540 124.208 136.790  0.00  0.00    +0.000 C 
ATOM     35  C   UNL     1     114.186 124.160 137.301  0.00  0.00    +0.000 C 
ENDBRANCH  32  34
ENDBRANCH  26  32
ENDBRANCH  22  30
ENDBRANCH   4  22
BRANCH   5  36
ATOM     36  O   UNL     1     109.283 130.136 138.703  0.00  0.00    +0.000 OA
BRANCH  36  44
ATOM     37  O   UNL     1     108.721 130.454 137.428  0.00  0.00    +0.000 OA
ATOM     38  O   UNL     1     108.458 132.371 136.419  0.00  0.00    +0.000 OA
ATOM     39  O   UNL     1     109.581 131.737 138.969  0.00  0.00    +0.000 OA
ATOM     40  C   UNL     1     109.020 132.055 137.694  0.00  0.00    +0.000 C 
ATOM     41  C   UNL     1     108.664 131.813 136.990  0.00  0.00    +0.000 C 
ATOM     42  C   UNL     1     109.226 131.496 138.265  0.00  0.00    +0.000 C 
ATOM     43  C   UNL     1     108.515 131.013 136.857  0.00  0.00    +0.000 C 
ATOM     44  C   UNL     1     109.077 130.695 138.133  0.00  0.00    +0.000 C 
ATOM     45  C   UNL     1     108.160 130.770 136.153  0.00  0.00    +0.000 C 
BRANCH  40  46
ATOM     46  O   UNL     1     109.169 132.855 137.827  0.00  0.00    +0.000 OA
BRANCH  46  48
ATOM     47  O   UNL     1     110.352 133.274 138.512  0.00  0.00    +0.000 OA
ATOM     48  C   UNL     1     109.943 133.139 137.807  0.00  0.00    +0.000 C 
ATOM     49  C   UNL     1     110.309 133.288 137.083  0.00  0.00    +0.000 C 
ENDBRANCH  46  48
ENDBRANCH  40  46
ENDBRANCH  36  44
ENDBRANCH   5  36
TORSDOF 10
ENDMDL
MODEL 5
REMARK VINA RESULT:      -9.2      4.172      5.926
REMARK  Name = 44259758
REMARK  10 active torsions:
REMARK  status: ('A' for Active; 'I' for Inactive)
REMARK    1  A    between atoms: O_3  and  C_18
REMARK    2  A    between atoms: O_3  and  C_35
REMARK    3  A    between atoms: O_4  and  C_19
REMARK    4  A    between atoms: O_4  and  C_37
REMARK    5  A    between atoms: O_5  and  C_26
REMARK    6  A    between atoms: O_5  and  C_30
REMARK    7  A    between atoms: O_6  and  C_27
REMARK    8  A    between atoms: O_6  and  C_31
REMARK    9  A    between atoms: O_12  and  C_39
REMARK   10  A    between atoms: C_36  and  C_41
REMARK                            x       y       z     vdW  Elec       q    Type
REMARK                         _______ _______ _______ _____ _____    ______ ____
ROOT
ATOM      1  O   UNL     1     109.547 125.857 139.179  0.00  0.00    +0.000 OA
ATOM      2  O   UNL     1     111.123 126.825 140.823  0.00  0.00    +0.000 OA
ATOM      3  O   UNL     1     110.067 126.966 141.796  0.00  0.00    +0.000 OA
ATOM      4  C   UNL     1     110.867 126.276 139.529  0.00  0.00    +0.000 A 
ATOM      5  C   UNL     1     108.161 126.209 140.896  0.00  0.00    +0.000 A 
ATOM      6  C   UNL     1     109.803 126.405 140.474  0.00  0.00    +0.000 A 
ATOM      7  C   UNL     1     110.598 126.502 140.275  0.00  0.00    +0.000 A 
ATOM      8  C   UNL     1     109.277 126.082 139.925  0.00  0.00    +0.000 A 
ATOM      9  C   UNL     1     110.342 125.954 138.981  0.00  0.00    +0.000 A 
ATOM     10  C   UNL     1     108.447 125.976 140.120  0.00  0.00    +0.000 A 
ATOM     11  C   UNL     1     108.707 126.545 141.467  0.00  0.00    +0.000 A 
ATOM     12  C   UNL     1     109.535 126.644 141.254  0.00  0.00    +0.000 A 
ENDROOT
BRANCH   9  14
ATOM     13  O   UNL     1     111.416 125.052 135.993  0.00  0.00    +0.000 OA
ATOM     14  C   UNL     1     110.611 125.728 138.234  0.00  0.00    +0.000 A 
ATOM     15  C   UNL     1     110.398 126.168 137.569  0.00  0.00    +0.000 A 
ATOM     16  C   UNL     1     111.092 125.063 138.152  0.00  0.00    +0.000 A 
ATOM     17  C   UNL     1     110.666 125.943 136.822  0.00  0.00    +0.000 A 
ATOM     18  C   UNL     1     111.360 124.838 137.405  0.00  0.00    +0.000 A 
ATOM     19  C   UNL     1     111.147 125.277 136.740  0.00  0.00    +0.000 A 
ENDBRANCH   9  14
BRANCH  11  20
ATOM     20  O   UNL     1     108.442 126.772 142.214  0.00  0.00    +0.000 OA
ATOM     21  C   UNL     1     108.335 127.571 142.388  0.00  0.00    +0.000 C 
ENDBRANCH  11  20
BRANCH   4  22
ATOM     22  O   UNL     1     111.662 126.373 139.330  0.00  0.00    +0.000 OA
BRANCH  22  30
ATOM     23  O   UNL     1     111.555 127.787 139.151  0.00  0.00    +0.000 OA
ATOM     24  O   UNL     1     113.028 129.376 139.412  0.00  0.00    +0.000 OA
ATOM     25  O   UNL     1     113.242 126.549 139.771  0.00  0.00    +0.000 OA
ATOM     26  C   UNL     1     113.135 127.962 139.592  0.00  0.00    +0.000 C 
ATOM     27  C   UNL     1     112.687 128.625 139.392  0.00  0.00    +0.000 C 
ATOM     28  C   UNL     1     112.794 127.212 139.571  0.00  0.00    +0.000 C 
ATOM     29  C   UNL     1     111.897 128.537 139.172  0.00  0.00    +0.000 C 
ATOM     30  C   UNL     1     112.004 127.125 139.351  0.00  0.00    +0.000 C 
ATOM     31  C   UNL     1     111.448 129.201 138.972  0.00  0.00    +0.000 C 
BRANCH  26  32
ATOM     32  O   UNL     1     113.925 128.050 139.812  0.00  0.00    +0.000 OA
BRANCH  32  34
ATOM     33  O   UNL     1     113.881 128.639 141.113  0.00  0.00    +0.000 OA
ATOM     34  C   UNL     1     114.135 128.037 140.609  0.00  0.00    +0.000 C 
ATOM     35  C   UNL     1     114.600 127.422 140.904  0.00  0.00    +0.000 C 
ENDBRANCH  32  34
ENDBRANCH  26  32
ENDBRANCH  22  30
ENDBRANCH   4  22
BRANCH   5  36
ATOM     36  O   UNL     1     107.365 126.111 141.092  0.00  0.00    +0.000 OA
BRANCH  36  44
ATOM     37  O   UNL     1     107.392 124.682 141.109  0.00  0.00    +0.000 OA
ATOM     38  O   UNL     1     105.876 123.217 140.543  0.00  0.00    +0.000 OA
ATOM     39  O   UNL     1     105.822 126.074 140.509  0.00  0.00    +0.000 OA
ATOM     40  C   UNL     1     105.849 124.645 140.526  0.00  0.00    +0.000 C 
ATOM     41  C   UNL     1     106.248 123.940 140.680  0.00  0.00    +0.000 C 
ATOM     42  C   UNL     1     106.221 125.369 140.663  0.00  0.00    +0.000 C 
ATOM     43  C   UNL     1     107.020 123.959 140.971  0.00  0.00    +0.000 C 
ATOM     44  C   UNL     1     106.993 125.388 140.954  0.00  0.00    +0.000 C 
ATOM     45  C   UNL     1     107.420 123.254 141.126  0.00  0.00    +0.000 C 
BRANCH  40  46
ATOM     46  O   UNL     1     105.077 124.627 140.234  0.00  0.00    +0.000 OA
BRANCH  46  48
ATOM     47  O   UNL     1     105.315 125.049 138.890  0.00  0.00    +0.000 OA
ATOM     48  C   UNL     1     104.944 124.542 139.424  0.00  0.00    +0.000 C 
ATOM     49  C   UNL     1     104.440 123.949 139.150  0.00  0.00    +0.000 C 
ENDBRANCH  46  48
ENDBRANCH  40  46
ENDBRANCH  36  44
ENDBRANCH   5  36
TORSDOF 10
ENDMDL
MODEL 6
REMARK VINA RESULT:      -9.2      2.873      6.248
REMARK  Name = 44259758
REMARK  10 active torsions:
REMARK  status: ('A' for Active; 'I' for Inactive)
REMARK    1  A    between atoms: O_3  and  C_18
REMARK    2  A    between atoms: O_3  and  C_35
REMARK    3  A    between atoms: O_4  and  C_19
REMARK    4  A    between atoms: O_4  and  C_37
REMARK    5  A    between atoms: O_5  and  C_26
REMARK    6  A    between atoms: O_5  and  C_30
REMARK    7  A    between atoms: O_6  and  C_27
REMARK    8  A    between atoms: O_6  and  C_31
REMARK    9  A    between atoms: O_12  and  C_39
REMARK   10  A    between atoms: C_36  and  C_41
REMARK                            x       y       z     vdW  Elec       q    Type
REMARK                         _______ _______ _______ _____ _____    ______ ____
ROOT
ATOM      1  O   UNL     1     112.020 128.337 138.609  0.00  0.00    +0.000 OA
ATOM      2  O   UNL     1     111.823 128.304 141.076  0.00  0.00    +0.000 OA
ATOM      3  O   UNL     1     111.098 127.057 141.030  0.00  0.00    +0.000 OA
ATOM      4  C   UNL     1     112.279 128.938 139.879  0.00  0.00    +0.000 A 
ATOM      5  C   UNL     1     110.888 126.431 138.890  0.00  0.00    +0.000 A 
ATOM      6  C   UNL     1     111.564 127.703 139.806  0.00  0.00    +0.000 A 
ATOM      7  C   UNL     1     111.889 128.315 140.254  0.00  0.00    +0.000 A 
ATOM      8  C   UNL     1     111.630 127.714 138.983  0.00  0.00    +0.000 A 
ATOM      9  C   UNL     1     112.345 128.949 139.057  0.00  0.00    +0.000 A 
ATOM     10  C   UNL     1     111.296 127.082 138.506  0.00  0.00    +0.000 A 
ATOM     11  C   UNL     1     110.819 126.419 139.746  0.00  0.00    +0.000 A 
ATOM     12  C   UNL     1     111.160 127.060 140.207  0.00  0.00    +0.000 A 
ENDROOT
BRANCH   9  14
ATOM     13  O   UNL     1     113.905 131.440 137.556  0.00  0.00    +0.000 OA
ATOM     14  C   UNL     1     112.736 129.571 138.682  0.00  0.00    +0.000 A 
ATOM     15  C   UNL     1     112.304 130.133 138.259  0.00  0.00    +0.000 A 
ATOM     16  C   UNL     1     113.556 129.632 138.729  0.00  0.00    +0.000 A 
ATOM     17  C   UNL     1     112.693 130.756 137.884  0.00  0.00    +0.000 A 
ATOM     18  C   UNL     1     113.947 130.255 138.354  0.00  0.00    +0.000 A 
ATOM     19  C   UNL     1     113.515 130.817 137.932  0.00  0.00    +0.000 A 
ENDBRANCH   9  14
BRANCH  11  20
ATOM     20  O   UNL     1     110.429 125.798 140.124  0.00  0.00    +0.000 OA
ATOM     21  C   UNL     1     109.685 125.922 140.457  0.00  0.00    +0.000 C 
ENDBRANCH  11  20
BRANCH   4  22
ATOM     22  O   UNL     1     112.604 129.550 140.327  0.00  0.00    +0.000 OA
BRANCH  22  30
ATOM     23  O   UNL     1     111.362 130.208 140.582  0.00  0.00    +0.000 OA
ATOM     24  O   UNL     1     110.675 131.342 142.316  0.00  0.00    +0.000 OA
ATOM     25  O   UNL     1     113.160 130.025 141.806  0.00  0.00    +0.000 OA
ATOM     26  C   UNL     1     111.918 130.683 142.061  0.00  0.00    +0.000 C 
ATOM     27  C   UNL     1     111.158 130.894 141.819  0.00  0.00    +0.000 C 
ATOM     28  C   UNL     1     112.400 130.236 141.564  0.00  0.00    +0.000 C 
ATOM     29  C   UNL     1     110.880 130.656 141.080  0.00  0.00    +0.000 C 
ATOM     30  C   UNL     1     112.122 129.998 140.825  0.00  0.00    +0.000 C 
ATOM     31  C   UNL     1     110.119 130.866 140.837  0.00  0.00    +0.000 C 
BRANCH  26  32
ATOM     32  O   UNL     1     112.196 130.921 142.800  0.00  0.00    +0.000 OA
BRANCH  32  34
ATOM     33  O   UNL     1     113.157 131.901 142.404  0.00  0.00    +0.000 OA
ATOM     34  C   UNL     1     112.535 131.667 142.894  0.00  0.00    +0.000 C 
ATOM     35  C   UNL     1     112.253 132.180 143.476  0.00  0.00    +0.000 C 
ENDBRANCH  32  34
ENDBRANCH  26  32
ENDBRANCH  22  30
ENDBRANCH   4  22
BRANCH   5  36
ATOM     36  O   UNL     1     110.564 125.820 138.440  0.00  0.00    +0.000 OA
BRANCH  36  44
ATOM     37  O   UNL     1     111.763 125.214 137.953  0.00  0.00    +0.000 OA
ATOM     38  O   UNL     1     112.298 124.500 135.961  0.00  0.00    +0.000 OA
ATOM     39  O   UNL     1     109.899 125.711 136.933  0.00  0.00    +0.000 OA
ATOM     40  C   UNL     1     111.099 125.105 136.447  0.00  0.00    +0.000 C 
ATOM     41  C   UNL     1     111.865 124.830 136.580  0.00  0.00    +0.000 C 
ATOM     42  C   UNL     1     110.665 125.436 137.067  0.00  0.00    +0.000 C 
ATOM     43  C   UNL     1     112.197 124.884 137.333  0.00  0.00    +0.000 C 
ATOM     44  C   UNL     1     110.997 125.490 137.820  0.00  0.00    +0.000 C 
ATOM     45  C   UNL     1     112.963 124.609 137.468  0.00  0.00    +0.000 C 
BRANCH  40  46
ATOM     46  O   UNL     1     110.766 125.051 135.694  0.00  0.00    +0.000 OA
BRANCH  46  48
ATOM     47  O   UNL     1     111.339 126.238 135.140  0.00  0.00    +0.000 OA
ATOM     48  C   UNL     1     110.696 125.726 135.224  0.00  0.00    +0.000 C 
ATOM     49  C   UNL     1     109.986 125.888 134.838  0.00  0.00    +0.000 C 
ENDBRANCH  46  48
ENDBRANCH  40  46
ENDBRANCH  36  44
ENDBRANCH   5  36
TORSDOF 10
ENDMDL
MODEL 7
REMARK VINA RESULT:      -9.2      8.625     10.701
REMARK  Name = 44259758
REMARK  10 active torsions:
REMARK  status: ('A' for Active; 'I' for Inactive)
REMARK    1  A    between atoms: O_3  and  C_18
REMARK    2  A    between atoms: O_3  and  C_35
REMARK    3  A    between atoms: O_4  and  C_19
REMARK    4  A    between atoms: O_4  and  C_37
REMARK    5  A    between atoms: O_5  and  C_26
REMARK    6  A    between atoms: O_5  and  C_30
REMARK    7  A    between atoms: O_6  and  C_27
REMARK    8  A    between atoms: O_6  and  C_31
REMARK    9  A    between atoms: O_12  and  C_39
REMARK   10  A    between atoms: C_36  and  C_41
REMARK                            x       y       z     vdW  Elec       q    Type
REMARK                         _______ _______ _______ _____ _____    ______ ____
ROOT
ATOM      1  O   UNL     1     105.393 127.956 145.118  0.00  0.00    +0.000 OA
ATOM      2  O   UNL     1     106.805 125.931 145.297  0.00  0.00    +0.000 OA
ATOM      3  O   UNL     1     106.785 125.756 143.865  0.00  0.00    +0.000 OA
ATOM      4  C   UNL     1     106.117 127.019 145.918  0.00  0.00    +0.000 A 
ATOM      5  C   UNL     1     105.564 127.401 142.961  0.00  0.00    +0.000 A 
ATOM      6  C   UNL     1     106.081 126.868 144.498  0.00  0.00    +0.000 A 
ATOM      7  C   UNL     1     106.335 126.606 145.238  0.00  0.00    +0.000 A 
ATOM      8  C   UNL     1     105.611 127.544 144.438  0.00  0.00    +0.000 A 
ATOM      9  C   UNL     1     105.647 127.694 145.858  0.00  0.00    +0.000 A 
ATOM     10  C   UNL     1     105.341 127.827 143.673  0.00  0.00    +0.000 A 
ATOM     11  C   UNL     1     106.054 126.698 143.022  0.00  0.00    +0.000 A 
ATOM     12  C   UNL     1     106.314 126.430 143.797  0.00  0.00    +0.000 A 
ENDROOT
BRANCH   9  14
ATOM     13  O   UNL     1     104.778 129.348 148.579  0.00  0.00    +0.000 OA
ATOM     14  C   UNL     1     105.429 128.107 146.539  0.00  0.00    +0.000 A 
ATOM     15  C   UNL     1     105.979 128.586 146.923  0.00  0.00    +0.000 A 
ATOM     16  C   UNL     1     104.662 128.041 146.834  0.00  0.00    +0.000 A 
ATOM     17  C   UNL     1     105.763 129.000 147.603  0.00  0.00    +0.000 A 
ATOM     18  C   UNL     1     104.444 128.455 147.514  0.00  0.00    +0.000 A 
ATOM     19  C   UNL     1     104.994 128.934 147.899  0.00  0.00    +0.000 A 
ENDBRANCH   9  14
BRANCH  11  20
ATOM     20  O   UNL     1     106.273 126.283 142.344  0.00  0.00    +0.000 OA
ATOM     21  C   UNL     1     105.946 125.541 142.192  0.00  0.00    +0.000 C 
ENDBRANCH  11  20
BRANCH   4  22
ATOM     22  O   UNL     1     106.370 126.757 146.658  0.00  0.00    +0.000 OA
BRANCH  22  30
ATOM     23  O   UNL     1     105.420 125.691 146.733  0.00  0.00    +0.000 OA
ATOM     24  O   UNL     1     105.530 123.746 147.718  0.00  0.00    +0.000 OA
ATOM     25  O   UNL     1     107.429 125.877 147.568  0.00  0.00    +0.000 OA
ATOM     26  C   UNL     1     106.479 124.812 147.643  0.00  0.00    +0.000 C 
ATOM     27  C   UNL     1     105.741 124.499 147.453  0.00  0.00    +0.000 C 
ATOM     28  C   UNL     1     106.689 125.564 147.378  0.00  0.00    +0.000 C 
ATOM     29  C   UNL     1     105.211 124.939 146.998  0.00  0.00    +0.000 C 
ATOM     30  C   UNL     1     106.160 126.003 146.923  0.00  0.00    +0.000 C 
ATOM     31  C   UNL     1     104.471 124.626 146.808  0.00  0.00    +0.000 C 
BRANCH  26  32
ATOM     32  O   UNL     1     107.009 124.372 148.098  0.00  0.00    +0.000 OA
BRANCH  32  34
ATOM     33  O   UNL     1     106.433 124.678 149.369  0.00  0.00    +0.000 OA
ATOM     34  C   UNL     1     107.098 124.535 148.901  0.00  0.00    +0.000 C 
ATOM     35  C   UNL     1     107.851 124.556 149.237  0.00  0.00    +0.000 C 
ENDBRANCH  32  34
ENDBRANCH  26  32
ENDBRANCH  22  30
ENDBRANCH   4  22
BRANCH   5  36
ATOM     36  O   UNL     1     105.310 127.665 142.222  0.00  0.00    +0.000 OA
BRANCH  36  44
ATOM     37  O   UNL     1     106.086 128.861 142.132  0.00  0.00    +0.000 OA
ATOM     38  O   UNL     1     105.557 130.862 141.439  0.00  0.00    +0.000 OA
ATOM     39  O   UNL     1     104.002 128.471 141.618  0.00  0.00    +0.000 OA
ATOM     40  C   UNL     1     104.779 129.667 141.528  0.00  0.00    +0.000 C 
ATOM     41  C   UNL     1     105.494 130.064 141.635  0.00  0.00    +0.000 C 
ATOM     42  C   UNL     1     104.718 128.868 141.724  0.00  0.00    +0.000 C 
ATOM     43  C   UNL     1     106.148 129.661 141.937  0.00  0.00    +0.000 C 
ATOM     44  C   UNL     1     105.371 128.464 142.026  0.00  0.00    +0.000 C 
ATOM     45  C   UNL     1     106.864 130.057 142.043  0.00  0.00    +0.000 C 
BRANCH  40  46
ATOM     46  O   UNL     1     104.125 130.069 141.226  0.00  0.00    +0.000 OA
BRANCH  46  48
ATOM     47  O   UNL     1     103.700 130.727 142.421  0.00  0.00    +0.000 OA
ATOM     48  C   UNL     1     103.519 130.310 141.732  0.00  0.00    +0.000 C 
ATOM     49  C   UNL     1     102.734 130.134 141.549  0.00  0.00    +0.000 C 
ENDBRANCH  46  48
ENDBRANCH  40  46
ENDBRANCH  36  44
ENDBRANCH   5  36
TORSDOF 10
ENDMDL
MODEL 8
REMARK VINA RESULT:      -9.2      7.290     10.114
REMARK  Name = 44259758
REMARK  10 active torsions:
REMARK  status: ('A' for Active; 'I' for Inactive)
REMARK    1  A    between atoms: O_3  and  C_18
REMARK    2  A    between atoms: O_3  and  C_35
REMARK    3  A    between atoms: O_4  and  C_19
REMARK    4  A    between atoms: O_4  and  C_37
REMARK    5  A    between atoms: O_5  and  C_26
REMARK    6  A    between atoms: O_5  and  C_30
REMARK    7  A    between atoms: O_6  and  C_27
REMARK    8  A    between atoms: O_6  and  C_31
REMARK    9  A    between atoms: O_12  and  C_39
REMARK   10  A    between atoms: C_36  and  C_41
REMARK                            x       y       z     vdW  Elec       q    Type
REMARK                         _______ _______ _______ _____ _____    ______ ____
ROOT
ATOM      1  O   UNL     1     105.125 127.665 143.408  0.00  0.00    +0.000 OA
ATOM      2  O   UNL     1     106.891 128.019 141.712  0.00  0.00    +0.000 OA
ATOM      3  O   UNL     1     107.301 126.639 141.808  0.00  0.00    +0.000 OA
ATOM      4  C   UNL     1     105.815 128.527 142.503  0.00  0.00    +0.000 A 
ATOM      5  C   UNL     1     106.000 125.611 143.314  0.00  0.00    +0.000 A 
ATOM      6  C   UNL     1     106.201 127.156 142.617  0.00  0.00    +0.000 A 
ATOM      7  C   UNL     1     106.303 127.901 142.277  0.00  0.00    +0.000 A 
ATOM      8  C   UNL     1     105.612 127.038 143.183  0.00  0.00    +0.000 A 
ATOM      9  C   UNL     1     105.226 128.409 143.068  0.00  0.00    +0.000 A 
ATOM     10  C   UNL     1     105.496 126.267 143.545  0.00  0.00    +0.000 A 
ATOM     11  C   UNL     1     106.613 125.734 142.725  0.00  0.00    +0.000 A 
ATOM     12  C   UNL     1     106.714 126.512 142.374  0.00  0.00    +0.000 A 
ENDROOT
BRANCH   9  14
ATOM     13  O   UNL     1     103.275 130.913 143.969  0.00  0.00    +0.000 OA
ATOM     14  C   UNL     1     104.739 129.036 143.294  0.00  0.00    +0.000 A 
ATOM     15  C   UNL     1     104.155 129.309 142.780  0.00  0.00    +0.000 A 
ATOM     16  C   UNL     1     104.835 129.388 144.033  0.00  0.00    +0.000 A 
ATOM     17  C   UNL     1     103.667 129.935 143.004  0.00  0.00    +0.000 A 
ATOM     18  C   UNL     1     104.347 130.014 144.259  0.00  0.00    +0.000 A 
ATOM     19  C   UNL     1     103.763 130.288 143.744  0.00  0.00    +0.000 A 
ENDBRANCH   9  14
BRANCH  11  20
ATOM     20  O   UNL     1     107.102 125.110 142.497  0.00  0.00    +0.000 OA
ATOM     21  C   UNL     1     107.014 124.768 141.752  0.00  0.00    +0.000 C 
ENDBRANCH  11  20
BRANCH   4  22
ATOM     22  O   UNL     1     105.917 129.272 142.163  0.00  0.00    +0.000 OA
BRANCH  22  30
ATOM     23  O   UNL     1     107.081 129.587 142.930  0.00  0.00    +0.000 OA
ATOM     24  O   UNL     1     108.805 130.841 142.461  0.00  0.00    +0.000 OA
ATOM     25  O   UNL     1     106.477 130.211 140.927  0.00  0.00    +0.000 OA
ATOM     26  C   UNL     1     107.641 130.526 141.694  0.00  0.00    +0.000 C 
ATOM     27  C   UNL     1     108.082 130.449 142.386  0.00  0.00    +0.000 C 
ATOM     28  C   UNL     1     106.919 130.134 141.619  0.00  0.00    +0.000 C 
ATOM     29  C   UNL     1     107.802 129.980 143.004  0.00  0.00    +0.000 C 
ATOM     30  C   UNL     1     106.639 129.665 142.237  0.00  0.00    +0.000 C 
ATOM     31  C   UNL     1     108.245 129.902 143.697  0.00  0.00    +0.000 C 
BRANCH  26  32
ATOM     32  O   UNL     1     107.921 130.996 141.076  0.00  0.00    +0.000 OA
BRANCH  32  34
ATOM     33  O   UNL     1     108.167 130.089 139.999  0.00  0.00    +0.000 OA
ATOM     34  C   UNL     1     108.434 130.677 140.515  0.00  0.00    +0.000 C 
ATOM     35  C   UNL     1     109.213 130.944 140.468  0.00  0.00    +0.000 C 
ENDBRANCH  32  34
ENDBRANCH  26  32
ENDBRANCH  22  30
ENDBRANCH   4  22
BRANCH   5  36
ATOM     36  O   UNL     1     105.896 124.867 143.655  0.00  0.00    +0.000 OA
BRANCH  36  44
ATOM     37  O   UNL     1     106.342 125.225 144.965  0.00  0.00    +0.000 OA
ATOM     38  O   UNL     1     105.659 124.577 146.935  0.00  0.00    +0.000 OA
ATOM     39  O   UNL     1     104.767 123.861 144.316  0.00  0.00    +0.000 OA
ATOM     40  C   UNL     1     105.213 124.219 145.625  0.00  0.00    +0.000 C 
ATOM     41  C   UNL     1     105.718 124.649 146.115  0.00  0.00    +0.000 C 
ATOM     42  C   UNL     1     105.272 124.292 144.806  0.00  0.00    +0.000 C 
ATOM     43  C   UNL     1     106.283 125.152 145.785  0.00  0.00    +0.000 C 
ATOM     44  C   UNL     1     105.837 124.794 144.475  0.00  0.00    +0.000 C 
ATOM     45  C   UNL     1     106.788 125.583 146.275  0.00  0.00    +0.000 C 
BRANCH  40  46
ATOM     46  O   UNL     1     104.648 123.716 145.955  0.00  0.00    +0.000 OA
BRANCH  46  48
ATOM     47  O   UNL     1     103.666 124.729 146.180  0.00  0.00    +0.000 OA
ATOM     48  C   UNL     1     103.858 123.949 145.990  0.00  0.00    +0.000 C 
ATOM     49  C   UNL     1     103.259 123.403 145.834  0.00  0.00    +0.000 C 
ENDBRANCH  46  48
ENDBRANCH  40  46
ENDBRANCH  36  44
ENDBRANCH   5  36
TORSDOF 10
ENDMDL
MODEL 9
REMARK VINA RESULT:      -9.1      8.849     11.671
REMARK  Name = 44259758
REMARK  10 active torsions:
REMARK  status: ('A' for Active; 'I' for Inactive)
REMARK    1  A    between atoms: O_3  and  C_18
REMARK    2  A    between atoms: O_3  and  C_35
REMARK    3  A    between atoms: O_4  and  C_19
REMARK    4  A    between atoms: O_4  and  C_37
REMARK    5  A    between atoms: O_5  and  C_26
REMARK    6  A    between atoms: O_5  and  C_30
REMARK    7  A    between atoms: O_6  and  C_27
REMARK    8  A    between atoms: O_6  and  C_31
REMARK    9  A    between atoms: O_12  and  C_39
REMARK   10  A    between atoms: C_36  and  C_41
REMARK                            x       y       z     vdW  Elec       q    Type
REMARK                         _______ _______ _______ _____ _____    ______ ____
ROOT
ATOM      1  O   UNL     1     106.124 127.501 145.937  0.00  0.00    +0.000 OA
ATOM      2  O   UNL     1     106.842 126.946 143.635  0.00  0.00    +0.000 OA
ATOM      3  O   UNL     1     106.569 125.546 143.856  0.00  0.00    +0.000 OA
ATOM      4  C   UNL     1     106.622 127.913 144.664  0.00  0.00    +0.000 A 
ATOM      5  C   UNL     1     105.809 125.288 145.947  0.00  0.00    +0.000 A 
ATOM      6  C   UNL     1     106.344 126.533 144.908  0.00  0.00    +0.000 A 
ATOM      7  C   UNL     1     106.603 127.131 144.402  0.00  0.00    +0.000 A 
ATOM      8  C   UNL     1     106.104 126.718 145.676  0.00  0.00    +0.000 A 
ATOM      9  C   UNL     1     106.383 128.098 145.430  0.00  0.00    +0.000 A 
ATOM     10  C   UNL     1     105.832 126.105 146.213  0.00  0.00    +0.000 A 
ATOM     11  C   UNL     1     106.058 125.095 145.148  0.00  0.00    +0.000 A 
ATOM     12  C   UNL     1     106.328 125.723 144.625  0.00  0.00    +0.000 A 
ENDROOT
BRANCH   9  14
ATOM     13  O   UNL     1     106.463 131.227 146.477  0.00  0.00    +0.000 OA
ATOM     14  C   UNL     1     106.402 128.880 145.692  0.00  0.00    +0.000 A 
ATOM     15  C   UNL     1     107.126 129.245 145.848  0.00  0.00    +0.000 A 
ATOM     16  C   UNL     1     105.699 129.298 145.798  0.00  0.00    +0.000 A 
ATOM     17  C   UNL     1     107.147 130.027 146.109  0.00  0.00    +0.000 A 
ATOM     18  C   UNL     1     105.719 130.080 146.060  0.00  0.00    +0.000 A 
ATOM     19  C   UNL     1     106.443 130.445 146.215  0.00  0.00    +0.000 A 
ENDBRANCH   9  14
BRANCH  11  20
ATOM     20  O   UNL     1     106.040 124.314 144.884  0.00  0.00    +0.000 OA
ATOM     21  C   UNL     1     105.465 124.076 144.343  0.00  0.00    +0.000 C 
ENDBRANCH  11  20
BRANCH   4  22
ATOM     22  O   UNL     1     106.882 128.510 144.157  0.00  0.00    +0.000 OA
BRANCH  22  30
ATOM     23  O   UNL     1     105.677 128.538 143.388  0.00  0.00    +0.000 OA
ATOM     24  O   UNL     1     105.332 129.032 141.291  0.00  0.00    +0.000 OA
ATOM     25  O   UNL     1     107.741 128.977 142.828  0.00  0.00    +0.000 OA
ATOM     26  C   UNL     1     106.536 129.004 142.059  0.00  0.00    +0.000 C 
ATOM     27  C   UNL     1     105.720 128.901 142.007  0.00  0.00    +0.000 C 
ATOM     28  C   UNL     1     106.924 128.874 142.775  0.00  0.00    +0.000 C 
ATOM     29  C   UNL     1     105.290 128.668 142.672  0.00  0.00    +0.000 C 
ATOM     30  C   UNL     1     106.494 128.641 143.440  0.00  0.00    +0.000 C 
ATOM     31  C   UNL     1     104.473 128.565 142.620  0.00  0.00    +0.000 C 
BRANCH  26  32
ATOM     32  O   UNL     1     106.966 129.237 141.394  0.00  0.00    +0.000 OA
BRANCH  32  34
ATOM     33  O   UNL     1     106.644 130.622 141.250  0.00  0.00    +0.000 OA
ATOM     34  C   UNL     1     107.207 130.022 141.313  0.00  0.00    +0.000 C 
ATOM     35  C   UNL     1     108.011 130.206 141.294  0.00  0.00    +0.000 C 
ENDBRANCH  32  34
ENDBRANCH  26  32
ENDBRANCH  22  30
ENDBRANCH   4  22
BRANCH   5  36
ATOM     36  O   UNL     1     105.549 124.693 146.455  0.00  0.00    +0.000 OA
BRANCH  36  44
ATOM     37  O   UNL     1     106.618 124.704 147.404  0.00  0.00    +0.000 OA
ATOM     38  O   UNL     1     106.595 124.624 149.585  0.00  0.00    +0.000 OA
ATOM     39  O   UNL     1     104.457 124.601 147.689  0.00  0.00    +0.000 OA
ATOM     40  C   UNL     1     105.526 124.613 148.637  0.00  0.00    +0.000 C 
ATOM     41  C   UNL     1     106.333 124.641 148.804  0.00  0.00    +0.000 C 
ATOM     42  C   UNL     1     105.265 124.630 147.855  0.00  0.00    +0.000 C 
ATOM     43  C   UNL     1     106.879 124.687 148.186  0.00  0.00    +0.000 C 
ATOM     44  C   UNL     1     105.810 124.676 147.238  0.00  0.00    +0.000 C 
ATOM     45  C   UNL     1     107.687 124.716 148.352  0.00  0.00    +0.000 C 
BRANCH  40  46
ATOM     46  O   UNL     1     104.979 124.567 149.254  0.00  0.00    +0.000 OA
BRANCH  46  48
ATOM     47  O   UNL     1     104.926 125.950 149.610  0.00  0.00    +0.000 OA
ATOM     48  C   UNL     1     104.542 125.233 149.468  0.00  0.00    +0.000 C 
ATOM     49  C   UNL     1     103.722 125.183 149.540  0.00  0.00    +0.000 C 
ENDBRANCH  46  48
ENDBRANCH  40  46
ENDBRANCH  36  44
ENDBRANCH   5  36
TORSDOF 10
ENDMDL
MODEL 10
REMARK VINA RESULT:      -9.0      9.558     11.784
REMARK  Name = 44259758
REMARK  10 active torsions:
REMARK  status: ('A' for Active; 'I' for Inactive)
REMARK    1  A    between atoms: O_3  and  C_18
REMARK    2  A    between atoms: O_3  and  C_35
REMARK    3  A    between atoms: O_4  and  C_19
REMARK    4  A    between atoms: O_4  and  C_37
REMARK    5  A    between atoms: O_5  and  C_26
REMARK    6  A    between atoms: O_5  and  C_30
REMARK    7  A    between atoms: O_6  and  C_27
REMARK    8  A    between atoms: O_6  and  C_31
REMARK    9  A    between atoms: O_12  and  C_39
REMARK   10  A    between atoms: C_36  and  C_41
REMARK                            x       y       z     vdW  Elec       q    Type
REMARK                         _______ _______ _______ _____ _____    ______ ____
ROOT
ATOM      1  O   UNL     1     105.728 126.022 144.763  0.00  0.00    +0.000 OA
ATOM      2  O   UNL     1     107.292 127.135 146.324  0.00  0.00    +0.000 OA
ATOM      3  O   UNL     1     106.979 126.185 147.362  0.00  0.00    +0.000 OA
ATOM      4  C   UNL     1     106.674 127.056 145.038  0.00  0.00    +0.000 A 
ATOM      5  C   UNL     1     105.472 124.730 146.569  0.00  0.00    +0.000 A 
ATOM      6  C   UNL     1     106.346 126.101 146.049  0.00  0.00    +0.000 A 
ATOM      7  C   UNL     1     106.771 126.764 145.804  0.00  0.00    +0.000 A 
ATOM      8  C   UNL     1     105.824 125.730 145.529  0.00  0.00    +0.000 A 
ATOM      9  C   UNL     1     106.153 126.685 144.518  0.00  0.00    +0.000 A 
ATOM     10  C   UNL     1     105.376 125.038 145.773  0.00  0.00    +0.000 A 
ATOM     11  C   UNL     1     106.015 125.117 147.111  0.00  0.00    +0.000 A 
ATOM     12  C   UNL     1     106.455 125.807 146.848  0.00  0.00    +0.000 A 
ENDROOT
BRANCH   9  14
ATOM     13  O   UNL     1     105.763 127.850 141.455  0.00  0.00    +0.000 OA
ATOM     14  C   UNL     1     106.056 126.976 143.752  0.00  0.00    +0.000 A 
ATOM     15  C   UNL     1     105.380 127.407 143.557  0.00  0.00    +0.000 A 
ATOM     16  C   UNL     1     106.634 126.836 143.181  0.00  0.00    +0.000 A 
ATOM     17  C   UNL     1     105.282 127.698 142.792  0.00  0.00    +0.000 A 
ATOM     18  C   UNL     1     106.537 127.127 142.415  0.00  0.00    +0.000 A 
ATOM     19  C   UNL     1     105.861 127.558 142.220  0.00  0.00    +0.000 A 
ENDBRANCH   9  14
BRANCH  11  20
ATOM     20  O   UNL     1     106.114 124.828 147.877  0.00  0.00    +0.000 OA
ATOM     21  C   UNL     1     106.847 124.533 148.114  0.00  0.00    +0.000 C 
ENDBRANCH  11  20
BRANCH   4  22
ATOM     22  O   UNL     1     107.100 127.718 144.792  0.00  0.00    +0.000 OA
BRANCH  22  30
ATOM     23  O   UNL     1     106.291 128.643 145.523  0.00  0.00    +0.000 OA
ATOM     24  O   UNL     1     106.778 130.577 146.410  0.00  0.00    +0.000 OA
ATOM     25  O   UNL     1     108.395 128.728 144.949  0.00  0.00    +0.000 OA
ATOM     26  C   UNL     1     107.587 129.652 145.679  0.00  0.00    +0.000 C 
ATOM     27  C   UNL     1     106.859 129.862 146.005  0.00  0.00    +0.000 C 
ATOM     28  C   UNL     1     107.667 128.938 145.275  0.00  0.00    +0.000 C 
ATOM     29  C   UNL     1     106.211 129.358 145.927  0.00  0.00    +0.000 C 
ATOM     30  C   UNL     1     107.019 128.434 145.197  0.00  0.00    +0.000 C 
ATOM     31  C   UNL     1     105.483 129.567 146.253  0.00  0.00    +0.000 C 
BRANCH  26  32
ATOM     32  O   UNL     1     108.235 130.157 145.758  0.00  0.00    +0.000 OA
BRANCH  32  34
ATOM     33  O   UNL     1     107.941 131.090 144.715  0.00  0.00    +0.000 OA
ATOM     34  C   UNL     1     108.483 130.613 145.117  0.00  0.00    +0.000 C 
ATOM     35  C   UNL     1     109.272 130.593 144.876  0.00  0.00    +0.000 C 
ENDBRANCH  32  34
ENDBRANCH  26  32
ENDBRANCH  22  30
ENDBRANCH   4  22
BRANCH   5  36
ATOM     36  O   UNL     1     105.045 124.067 146.812  0.00  0.00    +0.000 OA
BRANCH  36  44
ATOM     37  O   UNL     1     103.803 124.703 147.117  0.00  0.00    +0.000 OA
ATOM     38  O   UNL     1     101.747 124.097 146.705  0.00  0.00    +0.000 OA
ATOM     39  O   UNL     1     104.231 122.824 146.095  0.00  0.00    +0.000 OA
ATOM     40  C   UNL     1     102.989 123.460 146.400  0.00  0.00    +0.000 C 
ATOM     41  C   UNL     1     102.571 124.089 146.732  0.00  0.00    +0.000 C 
ATOM     42  C   UNL     1     103.813 123.453 146.426  0.00  0.00    +0.000 C 
ATOM     43  C   UNL     1     102.978 124.711 147.090  0.00  0.00    +0.000 C 
ATOM     44  C   UNL     1     104.221 124.074 146.785  0.00  0.00    +0.000 C 
ATOM     45  C   UNL     1     102.561 125.340 147.422  0.00  0.00    +0.000 C 
BRANCH  40  46
ATOM     46  O   UNL     1     102.582 122.838 146.041  0.00  0.00    +0.000 OA
BRANCH  46  48
ATOM     47  O   UNL     1     102.835 123.092 144.658  0.00  0.00    +0.000 OA
ATOM     48  C   UNL     1     102.307 122.918 145.267  0.00  0.00    +0.000 C 
ATOM     49  C   UNL     1     101.504 122.822 145.104  0.00  0.00    +0.000 C 
ENDBRANCH  46  48
ENDBRANCH  40  46
ENDBRANCH  36  44
ENDBRANCH   5  36
TORSDOF 10
ENDMDL
