MODEL 1
REMARK VINA RESULT:      -9.0      0.000      0.000
REMARK  Name = 14162695
REMARK  5 active torsions:
REMARK  status: ('A' for Active; 'I' for Inactive)
REMARK    1  A    between atoms: O_2  and  C_17
REMARK    2  A    between atoms: O_2  and  C_19
REMARK    3  A    between atoms: O_6  and  C_18
REMARK    4  A    between atoms: C_16  and  C_18
REMARK    5  A    between atoms: C_27  and  C_29
REMARK                            x       y       z     vdW  Elec       q    Type
REMARK                         _______ _______ _______ _____ _____    ______ ____
ROOT
ATOM      1  O   UNL     1     112.438 128.194 135.489  0.00  0.00    +0.000 OA
ATOM      2  O   UNL     1     109.463 126.779 134.981  0.00  0.00    +0.000 OA
ATOM      3  O   UNL     1     109.673 128.384 134.659  0.00  0.00    +0.000 OA
ATOM      4  O   UNL     1     110.499 129.566 134.612  0.00  0.00    +0.000 OA
ATOM      5  C   UNL     1     110.828 126.683 135.392  0.00  0.00    +0.000 A 
ATOM      6  C   UNL     1     111.563 127.036 135.516  0.00  0.00    +0.000 A 
ATOM      7  C   UNL     1     110.197 127.132 135.105  0.00  0.00    +0.000 A 
ATOM      8  C   UNL     1     111.668 127.838 135.355  0.00  0.00    +0.000 A 
ATOM      9  C   UNL     1     111.038 128.287 135.070  0.00  0.00    +0.000 A 
ATOM     10  C   UNL     1     110.302 127.935 134.944  0.00  0.00    +0.000 A 
ATOM     11  C   UNL     1     111.134 129.123 134.898  0.00  0.00    +0.000 A 
ATOM     12  C   UNL     1     112.555 129.029 135.324  0.00  0.00    +0.000 A 
ATOM     13  C   UNL     1     111.898 129.497 135.026  0.00  0.00    +0.000 A 
ENDROOT
BRANCH  12  15
ATOM     14  O   UNL     1     115.499 130.431 135.828  0.00  0.00    +0.000 OA
ATOM     15  C   UNL     1     113.291 129.379 135.450  0.00  0.00    +0.000 A 
ATOM     16  C   UNL     1     113.863 129.362 134.855  0.00  0.00    +0.000 A 
ATOM     17  C   UNL     1     113.455 129.747 136.169  0.00  0.00    +0.000 A 
ATOM     18  C   UNL     1     114.599 129.712 134.981  0.00  0.00    +0.000 A 
ATOM     19  C   UNL     1     114.191 130.098 136.296  0.00  0.00    +0.000 A 
ATOM     20  C   UNL     1     114.763 130.080 135.702  0.00  0.00    +0.000 A 
ENDBRANCH  12  15
BRANCH   5  21
ATOM     21  O   UNL     1     110.723 125.880 135.553  0.00  0.00    +0.000 OA
BRANCH  21  30
ATOM     22  O   UNL     1     110.631 125.986 136.975  0.00  0.00    +0.000 OA
ATOM     23  O   UNL     1     111.934 123.895 137.214  0.00  0.00    +0.000 OA
ATOM     24  O   UNL     1     111.408 124.698 138.556  0.00  0.00    +0.000 OA
ATOM     25  O   UNL     1     111.591 124.486 135.712  0.00  0.00    +0.000 OA
ATOM     26  C   UNL     1     111.500 124.592 137.134  0.00  0.00    +0.000 C 
ATOM     27  C   UNL     1     111.236 124.994 137.806  0.00  0.00    +0.000 C 
ATOM     28  C   UNL     1     111.328 124.888 136.384  0.00  0.00    +0.000 C 
ATOM     29  C   UNL     1     110.802 125.691 137.726  0.00  0.00    +0.000 C 
ATOM     30  C   UNL     1     110.894 125.585 136.304  0.00  0.00    +0.000 C 
BRANCH  29  32
ATOM     31  O   UNL     1     111.077 126.503 138.869  0.00  0.00    +0.000 OA
ATOM     32  C   UNL     1     110.539 126.091 138.397  0.00  0.00    +0.000 C 
BRANCH  32  33
ATOM     33  O   UNL     1     109.739 126.082 138.597  0.00  0.00    +0.000 OA
ATOM     34  C   UNL     1     109.457 126.574 139.196  0.00  0.00    +0.000 C 
ENDBRANCH  32  33
ENDBRANCH  29  32
ENDBRANCH  21  30
ENDBRANCH   5  21
TORSDOF 5
ENDMDL
MODEL 2
REMARK VINA RESULT:      -9.0      9.234     12.807
REMARK  Name = 14162695
REMARK  5 active torsions:
REMARK  status: ('A' for Active; 'I' for Inactive)
REMARK    1  A    between atoms: O_2  and  C_17
REMARK    2  A    between atoms: O_2  and  C_19
REMARK    3  A    between atoms: O_6  and  C_18
REMARK    4  A    between atoms: C_16  and  C_18
REMARK    5  A    between atoms: C_27  and  C_29
REMARK                            x       y       z     vdW  Elec       q    Type
REMARK                         _______ _______ _______ _____ _____    ______ ____
ROOT
ATOM      1  O   UNL     1     104.255 124.549 146.045  0.00  0.00    +0.000 OA
ATOM      2  O   UNL     1     107.391 125.637 146.365  0.00  0.00    +0.000 OA
ATOM      3  O   UNL     1     106.554 125.143 147.699  0.00  0.00    +0.000 OA
ATOM      4  O   UNL     1     105.361 124.622 148.322  0.00  0.00    +0.000 OA
ATOM      5  C   UNL     1     106.257 125.345 145.546  0.00  0.00    +0.000 A 
ATOM      6  C   UNL     1     105.481 125.075 145.471  0.00  0.00    +0.000 A 
ATOM      7  C   UNL     1     106.615 125.367 146.290  0.00  0.00    +0.000 A 
ATOM      8  C   UNL     1     105.063 124.828 146.137  0.00  0.00    +0.000 A 
ATOM      9  C   UNL     1     105.420 124.851 146.880  0.00  0.00    +0.000 A 
ATOM     10  C   UNL     1     106.196 125.120 146.957  0.00  0.00    +0.000 A 
ATOM     11  C   UNL     1     104.996 124.596 147.582  0.00  0.00    +0.000 A 
ATOM     12  C   UNL     1     103.814 124.290 146.735  0.00  0.00    +0.000 A 
ATOM     13  C   UNL     1     104.187 124.314 147.510  0.00  0.00    +0.000 A 
ENDROOT
BRANCH  12  15
ATOM     14  O   UNL     1     100.711 123.213 146.418  0.00  0.00    +0.000 OA
ATOM     15  C   UNL     1     103.038 124.021 146.656  0.00  0.00    +0.000 A 
ATOM     16  C   UNL     1     102.411 124.483 146.929  0.00  0.00    +0.000 A 
ATOM     17  C   UNL     1     102.889 123.290 146.303  0.00  0.00    +0.000 A 
ATOM     18  C   UNL     1     101.635 124.214 146.850  0.00  0.00    +0.000 A 
ATOM     19  C   UNL     1     102.114 123.021 146.224  0.00  0.00    +0.000 A 
ATOM     20  C   UNL     1     101.487 123.482 146.497  0.00  0.00    +0.000 A 
ENDBRANCH  12  15
BRANCH   5  21
ATOM     21  O   UNL     1     106.675 125.592 144.879  0.00  0.00    +0.000 OA
BRANCH  21  30
ATOM     22  O   UNL     1     106.151 126.911 144.716  0.00  0.00    +0.000 OA
ATOM     23  O   UNL     1     105.864 126.497 142.293  0.00  0.00    +0.000 OA
ATOM     24  O   UNL     1     105.436 127.955 142.937  0.00  0.00    +0.000 OA
ATOM     25  O   UNL     1     106.484 125.316 143.264  0.00  0.00    +0.000 OA
ATOM     26  C   UNL     1     105.960 126.635 143.100  0.00  0.00    +0.000 C 
ATOM     27  C   UNL     1     105.746 127.364 143.423  0.00  0.00    +0.000 C 
ATOM     28  C   UNL     1     106.270 126.045 143.586  0.00  0.00    +0.000 C 
ATOM     29  C   UNL     1     105.841 127.502 144.231  0.00  0.00    +0.000 C 
ATOM     30  C   UNL     1     106.365 126.183 144.394  0.00  0.00    +0.000 C 
BRANCH  29  32
ATOM     31  O   UNL     1     104.831 128.414 144.664  0.00  0.00    +0.000 OA
ATOM     32  C   UNL     1     105.627 128.230 144.553  0.00  0.00    +0.000 C 
BRANCH  32  33
ATOM     33  O   UNL     1     106.209 128.776 144.763  0.00  0.00    +0.000 OA
ATOM     34  C   UNL     1     106.026 129.401 145.268  0.00  0.00    +0.000 C 
ENDBRANCH  32  33
ENDBRANCH  29  32
ENDBRANCH  21  30
ENDBRANCH   5  21
TORSDOF 5
ENDMDL
MODEL 3
REMARK VINA RESULT:      -8.9      9.090     11.770
REMARK  Name = 14162695
REMARK  5 active torsions:
REMARK  status: ('A' for Active; 'I' for Inactive)
REMARK    1  A    between atoms: O_2  and  C_17
REMARK    2  A    between atoms: O_2  and  C_19
REMARK    3  A    between atoms: O_6  and  C_18
REMARK    4  A    between atoms: C_16  and  C_18
REMARK    5  A    between atoms: C_27  and  C_29
REMARK                            x       y       z     vdW  Elec       q    Type
REMARK                         _______ _______ _______ _____ _____    ______ ____
ROOT
ATOM      1  O   UNL     1     105.393 126.346 144.146  0.00  0.00    +0.000 OA
ATOM      2  O   UNL     1     106.619 124.810 146.839  0.00  0.00    +0.000 OA
ATOM      3  O   UNL     1     107.263 126.249 146.352  0.00  0.00    +0.000 OA
ATOM      4  O   UNL     1     107.307 127.373 145.449  0.00  0.00    +0.000 OA
ATOM      5  C   UNL     1     105.694 124.856 145.751  0.00  0.00    +0.000 A 
ATOM      6  C   UNL     1     105.394 125.239 145.085  0.00  0.00    +0.000 A 
ATOM      7  C   UNL     1     106.318 125.193 146.174  0.00  0.00    +0.000 A 
ATOM      8  C   UNL     1     105.716 125.958 144.841  0.00  0.00    +0.000 A 
ATOM      9  C   UNL     1     106.339 126.294 145.264  0.00  0.00    +0.000 A 
ATOM     10  C   UNL     1     106.641 125.912 145.930  0.00  0.00    +0.000 A 
ATOM     11  C   UNL     1     106.683 127.043 145.021  0.00  0.00    +0.000 A 
ATOM     12  C   UNL     1     105.724 127.096 143.887  0.00  0.00    +0.000 A 
ATOM     13  C   UNL     1     106.374 127.447 144.327  0.00  0.00    +0.000 A 
ENDROOT
BRANCH  12  15
ATOM     14  O   UNL     1     104.512 128.616 141.221  0.00  0.00    +0.000 OA
ATOM     15  C   UNL     1     105.421 127.476 143.221  0.00  0.00    +0.000 A 
ATOM     16  C   UNL     1     104.992 128.175 143.304  0.00  0.00    +0.000 A 
ATOM     17  C   UNL     1     105.547 127.157 142.470  0.00  0.00    +0.000 A 
ATOM     18  C   UNL     1     104.688 128.556 142.638  0.00  0.00    +0.000 A 
ATOM     19  C   UNL     1     105.244 127.536 141.804  0.00  0.00    +0.000 A 
ATOM     20  C   UNL     1     104.815 128.236 141.887  0.00  0.00    +0.000 A 
ENDBRANCH  12  15
BRANCH   5  21
ATOM     21  O   UNL     1     105.372 124.136 145.995  0.00  0.00    +0.000 OA
BRANCH  21  30
ATOM     22  O   UNL     1     104.291 124.617 146.796  0.00  0.00    +0.000 OA
ATOM     23  O   UNL     1     102.789 122.934 145.779  0.00  0.00    +0.000 OA
ATOM     24  O   UNL     1     102.208 123.975 146.919  0.00  0.00    +0.000 OA
ATOM     25  O   UNL     1     104.371 123.014 145.316  0.00  0.00    +0.000 OA
ATOM     26  C   UNL     1     103.290 123.495 146.118  0.00  0.00    +0.000 C 
ATOM     27  C   UNL     1     102.999 124.016 146.689  0.00  0.00    +0.000 C 
ATOM     28  C   UNL     1     104.080 123.535 145.887  0.00  0.00    +0.000 C 
ATOM     29  C   UNL     1     103.500 124.577 147.028  0.00  0.00    +0.000 C 
ATOM     30  C   UNL     1     104.581 124.097 146.226  0.00  0.00    +0.000 C 
BRANCH  29  32
ATOM     31  O   UNL     1     102.731 125.730 147.372  0.00  0.00    +0.000 OA
ATOM     32  C   UNL     1     103.210 125.098 147.597  0.00  0.00    +0.000 C 
BRANCH  32  33
ATOM     33  O   UNL     1     103.399 124.986 148.393  0.00  0.00    +0.000 OA
ATOM     34  C   UNL     1     103.305 125.605 148.930  0.00  0.00    +0.000 C 
ENDBRANCH  32  33
ENDBRANCH  29  32
ENDBRANCH  21  30
ENDBRANCH   5  21
TORSDOF 5
ENDMDL
MODEL 4
REMARK VINA RESULT:      -8.9      7.795      9.844
REMARK  Name = 14162695
REMARK  5 active torsions:
REMARK  status: ('A' for Active; 'I' for Inactive)
REMARK    1  A    between atoms: O_2  and  C_17
REMARK    2  A    between atoms: O_2  and  C_19
REMARK    3  A    between atoms: O_6  and  C_18
REMARK    4  A    between atoms: C_16  and  C_18
REMARK    5  A    between atoms: C_27  and  C_29
REMARK                            x       y       z     vdW  Elec       q    Type
REMARK                         _______ _______ _______ _____ _____    ______ ____
ROOT
ATOM      1  O   UNL     1     105.058 127.910 142.592  0.00  0.00    +0.000 OA
ATOM      2  O   UNL     1     107.791 126.007 142.451  0.00  0.00    +0.000 OA
ATOM      3  O   UNL     1     107.830 127.541 141.846  0.00  0.00    +0.000 OA
ATOM      4  O   UNL     1     107.192 128.804 141.563  0.00  0.00    +0.000 OA
ATOM      5  C   UNL     1     106.423 126.186 142.820  0.00  0.00    +0.000 A 
ATOM      6  C   UNL     1     105.748 126.660 142.853  0.00  0.00    +0.000 A 
ATOM      7  C   UNL     1     107.117 126.480 142.484  0.00  0.00    +0.000 A 
ATOM      8  C   UNL     1     105.767 127.427 142.551  0.00  0.00    +0.000 A 
ATOM      9  C   UNL     1     106.461 127.721 142.215  0.00  0.00    +0.000 A 
ATOM     10  C   UNL     1     107.136 127.248 142.182  0.00  0.00    +0.000 A 
ATOM     11  C   UNL     1     106.494 128.518 141.897  0.00  0.00    +0.000 A 
ATOM     12  C   UNL     1     105.071 128.710 142.279  0.00  0.00    +0.000 A 
ATOM     13  C   UNL     1     105.794 129.017 141.929  0.00  0.00    +0.000 A 
ENDROOT
BRANCH  12  15
ATOM     14  O   UNL     1     102.366 130.595 142.417  0.00  0.00    +0.000 OA
ATOM     15  C   UNL     1     104.395 129.182 142.314  0.00  0.00    +0.000 A 
ATOM     16  C   UNL     1     104.228 129.614 142.996  0.00  0.00    +0.000 A 
ATOM     17  C   UNL     1     103.885 129.220 141.666  0.00  0.00    +0.000 A 
ATOM     18  C   UNL     1     103.551 130.085 143.031  0.00  0.00    +0.000 A 
ATOM     19  C   UNL     1     103.209 129.691 141.700  0.00  0.00    +0.000 A 
ATOM     20  C   UNL     1     103.042 130.124 142.382  0.00  0.00    +0.000 A 
ENDBRANCH  12  15
BRANCH   5  21
ATOM     21  O   UNL     1     106.404 125.419 143.123  0.00  0.00    +0.000 OA
BRANCH  21  30
ATOM     22  O   UNL     1     106.535 125.726 144.512  0.00  0.00    +0.000 OA
ATOM     23  O   UNL     1     104.812 124.033 145.050  0.00  0.00    +0.000 OA
ATOM     24  O   UNL     1     105.518 124.904 146.260  0.00  0.00    +0.000 OA
ATOM     25  O   UNL     1     105.255 124.290 143.481  0.00  0.00    +0.000 OA
ATOM     26  C   UNL     1     105.386 124.597 144.870  0.00  0.00    +0.000 C 
ATOM     27  C   UNL     1     105.740 125.033 145.476  0.00  0.00    +0.000 C 
ATOM     28  C   UNL     1     105.608 124.726 144.087  0.00  0.00    +0.000 C 
ATOM     29  C   UNL     1     106.314 125.598 145.297  0.00  0.00    +0.000 C 
ATOM     30  C   UNL     1     106.183 125.291 143.907  0.00  0.00    +0.000 C 
BRANCH  29  32
ATOM     31  O   UNL     1     107.313 125.723 146.310  0.00  0.00    +0.000 OA
ATOM     32  C   UNL     1     106.667 126.033 145.902  0.00  0.00    +0.000 C 
BRANCH  32  33
ATOM     33  O   UNL     1     106.374 126.779 146.099  0.00  0.00    +0.000 OA
ATOM     34  C   UNL     1     106.845 127.310 146.519  0.00  0.00    +0.000 C 
ENDBRANCH  32  33
ENDBRANCH  29  32
ENDBRANCH  21  30
ENDBRANCH   5  21
TORSDOF 5
ENDMDL
MODEL 5
REMARK VINA RESULT:      -8.9      1.314      4.613
REMARK  Name = 14162695
REMARK  5 active torsions:
REMARK  status: ('A' for Active; 'I' for Inactive)
REMARK    1  A    between atoms: O_2  and  C_17
REMARK    2  A    between atoms: O_2  and  C_19
REMARK    3  A    between atoms: O_6  and  C_18
REMARK    4  A    between atoms: C_16  and  C_18
REMARK    5  A    between atoms: C_27  and  C_29
REMARK                            x       y       z     vdW  Elec       q    Type
REMARK                         _______ _______ _______ _____ _____    ______ ____
ROOT
ATOM      1  O   UNL     1     111.674 126.594 135.860  0.00  0.00    +0.000 OA
ATOM      2  O   UNL     1     110.604 129.495 134.612  0.00  0.00    +0.000 OA
ATOM      3  O   UNL     1     109.519 128.298 134.951  0.00  0.00    +0.000 OA
ATOM      4  O   UNL     1     109.207 126.973 135.429  0.00  0.00    +0.000 OA
ATOM      5  C   UNL     1     111.670 128.655 135.061  0.00  0.00    +0.000 A 
ATOM      6  C   UNL     1     111.931 127.937 135.369  0.00  0.00    +0.000 A 
ATOM      7  C   UNL     1     110.865 128.776 134.921  0.00  0.00    +0.000 A 
ATOM      8  C   UNL     1     111.388 127.338 135.539  0.00  0.00    +0.000 A 
ATOM      9  C   UNL     1     110.585 127.459 135.399  0.00  0.00    +0.000 A 
ATOM     10  C   UNL     1     110.323 128.178 135.090  0.00  0.00    +0.000 A 
ATOM     11  C   UNL     1     110.010 126.844 135.571  0.00  0.00    +0.000 A 
ATOM     12  C   UNL     1     111.114 125.967 136.039  0.00  0.00    +0.000 A 
ATOM     13  C   UNL     1     110.276 126.093 135.894  0.00  0.00    +0.000 A 
ENDROOT
BRANCH  12  15
ATOM     14  O   UNL     1     112.173 123.096 137.274  0.00  0.00    +0.000 OA
ATOM     15  C   UNL     1     111.379 125.249 136.348  0.00  0.00    +0.000 A 
ATOM     16  C   UNL     1     111.459 125.156 137.164  0.00  0.00    +0.000 A 
ATOM     17  C   UNL     1     111.564 124.625 135.841  0.00  0.00    +0.000 A 
ATOM     18  C   UNL     1     111.723 124.438 137.473  0.00  0.00    +0.000 A 
ATOM     19  C   UNL     1     111.828 123.908 136.149  0.00  0.00    +0.000 A 
ATOM     20  C   UNL     1     111.908 123.814 136.965  0.00  0.00    +0.000 A 
ENDBRANCH  12  15
BRANCH   5  21
ATOM     21  O   UNL     1     112.212 129.254 134.891  0.00  0.00    +0.000 OA
BRANCH  21  30
ATOM     22  O   UNL     1     112.409 129.764 136.211  0.00  0.00    +0.000 OA
ATOM     23  O   UNL     1     114.845 129.903 135.793  0.00  0.00    +0.000 OA
ATOM     24  O   UNL     1     114.231 130.367 137.253  0.00  0.00    +0.000 OA
ATOM     25  O   UNL     1     113.836 129.347 134.612  0.00  0.00    +0.000 OA
ATOM     26  C   UNL     1     114.033 129.857 135.932  0.00  0.00    +0.000 C 
ATOM     27  C   UNL     1     113.726 130.089 136.663  0.00  0.00    +0.000 C 
ATOM     28  C   UNL     1     113.528 129.579 135.343  0.00  0.00    +0.000 C 
ATOM     29  C   UNL     1     112.914 130.042 136.802  0.00  0.00    +0.000 C 
ATOM     30  C   UNL     1     112.716 129.532 135.482  0.00  0.00    +0.000 C 
BRANCH  29  32
ATOM     31  O   UNL     1     112.471 131.072 137.687  0.00  0.00    +0.000 OA
ATOM     32  C   UNL     1     112.607 130.274 137.532  0.00  0.00    +0.000 C 
BRANCH  32  33
ATOM     33  O   UNL     1     112.436 129.707 138.107  0.00  0.00    +0.000 OA
ATOM     34  C   UNL     1     111.899 129.879 138.708  0.00  0.00    +0.000 C 
ENDBRANCH  32  33
ENDBRANCH  29  32
ENDBRANCH  21  30
ENDBRANCH   5  21
TORSDOF 5
ENDMDL
MODEL 6
REMARK VINA RESULT:      -8.9      1.939      4.616
REMARK  Name = 14162695
REMARK  5 active torsions:
REMARK  status: ('A' for Active; 'I' for Inactive)
REMARK    1  A    between atoms: O_2  and  C_17
REMARK    2  A    between atoms: O_2  and  C_19
REMARK    3  A    between atoms: O_6  and  C_18
REMARK    4  A    between atoms: C_16  and  C_18
REMARK    5  A    between atoms: C_27  and  C_29
REMARK                            x       y       z     vdW  Elec       q    Type
REMARK                         _______ _______ _______ _____ _____    ______ ____
ROOT
ATOM      1  O   UNL     1     111.911 126.596 136.243  0.00  0.00    +0.000 OA
ATOM      2  O   UNL     1     112.674 129.736 135.421  0.00  0.00    +0.000 OA
ATOM      3  O   UNL     1     113.859 128.716 135.949  0.00  0.00    +0.000 OA
ATOM      4  O   UNL     1     114.297 127.425 136.424  0.00  0.00    +0.000 OA
ATOM      5  C   UNL     1     111.710 128.691 135.565  0.00  0.00    +0.000 A 
ATOM      6  C   UNL     1     111.525 127.914 135.769  0.00  0.00    +0.000 A 
ATOM      7  C   UNL     1     112.489 128.958 135.625  0.00  0.00    +0.000 A 
ATOM      8  C   UNL     1     112.117 127.404 136.033  0.00  0.00    +0.000 A 
ATOM      9  C   UNL     1     112.895 127.671 136.093  0.00  0.00    +0.000 A 
ATOM     10  C   UNL     1     113.081 128.448 135.889  0.00  0.00    +0.000 A 
ATOM     11  C   UNL     1     113.521 127.150 136.367  0.00  0.00    +0.000 A 
ATOM     12  C   UNL     1     112.522 126.060 136.519  0.00  0.00    +0.000 A 
ATOM     13  C   UNL     1     113.334 126.339 136.581  0.00  0.00    +0.000 A 
ENDROOT
BRANCH  12  15
ATOM     14  O   UNL     1     111.768 122.952 137.332  0.00  0.00    +0.000 OA
ATOM     15  C   UNL     1     112.334 125.283 136.722  0.00  0.00    +0.000 A 
ATOM     16  C   UNL     1     111.843 125.133 137.369  0.00  0.00    +0.000 A 
ATOM     17  C   UNL     1     112.636 124.656 136.280  0.00  0.00    +0.000 A 
ATOM     18  C   UNL     1     111.654 124.356 137.572  0.00  0.00    +0.000 A 
ATOM     19  C   UNL     1     112.448 123.879 136.483  0.00  0.00    +0.000 A 
ATOM     20  C   UNL     1     111.957 123.729 137.129  0.00  0.00    +0.000 A 
ENDBRANCH  12  15
BRANCH   5  21
ATOM     21  O   UNL     1     111.118 129.201 135.301  0.00  0.00    +0.000 OA
BRANCH  21  30
ATOM     22  O   UNL     1     110.566 129.545 136.573  0.00  0.00    +0.000 OA
ATOM     23  O   UNL     1     108.286 129.426 135.617  0.00  0.00    +0.000 OA
ATOM     24  O   UNL     1     108.495 129.810 137.208  0.00  0.00    +0.000 OA
ATOM     25  O   UNL     1     109.598 129.121 134.663  0.00  0.00    +0.000 OA
ATOM     26  C   UNL     1     109.046 129.466 135.936  0.00  0.00    +0.000 C 
ATOM     27  C   UNL     1     109.151 129.658 136.732  0.00  0.00    +0.000 C 
ATOM     28  C   UNL     1     109.702 129.314 135.460  0.00  0.00    +0.000 C 
ATOM     29  C   UNL     1     109.911 129.698 137.051  0.00  0.00    +0.000 C 
ATOM     30  C   UNL     1     110.462 129.353 135.778  0.00  0.00    +0.000 C 
BRANCH  29  32
ATOM     31  O   UNL     1     109.836 129.335 138.430  0.00  0.00    +0.000 OA
ATOM     32  C   UNL     1     110.014 129.890 137.846  0.00  0.00    +0.000 C 
BRANCH  32  33
ATOM     33  O   UNL     1     110.296 130.636 138.058  0.00  0.00    +0.000 OA
ATOM     34  C   UNL     1     110.621 130.758 138.805  0.00  0.00    +0.000 C 
ENDBRANCH  32  33
ENDBRANCH  29  32
ENDBRANCH  21  30
ENDBRANCH   5  21
TORSDOF 5
ENDMDL
MODEL 7
REMARK VINA RESULT:      -8.9      1.886      3.327
REMARK  Name = 14162695
REMARK  5 active torsions:
REMARK  status: ('A' for Active; 'I' for Inactive)
REMARK    1  A    between atoms: O_2  and  C_17
REMARK    2  A    between atoms: O_2  and  C_19
REMARK    3  A    between atoms: O_6  and  C_18
REMARK    4  A    between atoms: C_16  and  C_18
REMARK    5  A    between atoms: C_27  and  C_29
REMARK                            x       y       z     vdW  Elec       q    Type
REMARK                         _______ _______ _______ _____ _____    ______ ____
ROOT
ATOM      1  O   UNL     1     112.732 128.959 135.633  0.00  0.00    +0.000 OA
ATOM      2  O   UNL     1     110.577 126.525 136.373  0.00  0.00    +0.000 OA
ATOM      3  O   UNL     1     112.195 126.277 136.577  0.00  0.00    +0.000 OA
ATOM      4  O   UNL     1     113.563 126.732 136.506  0.00  0.00    +0.000 OA
ATOM      5  C   UNL     1     110.839 127.850 135.907  0.00  0.00    +0.000 A 
ATOM      6  C   UNL     1     111.375 128.450 135.725  0.00  0.00    +0.000 A 
ATOM      7  C   UNL     1     111.113 127.125 136.191  0.00  0.00    +0.000 A 
ATOM      8  C   UNL     1     112.185 128.326 135.827  0.00  0.00    +0.000 A 
ATOM      9  C   UNL     1     112.458 127.602 136.111  0.00  0.00    +0.000 A 
ATOM     10  C   UNL     1     111.922 127.001 136.293  0.00  0.00    +0.000 A 
ATOM     11  C   UNL     1     113.298 127.459 136.221  0.00  0.00    +0.000 A 
ATOM     12  C   UNL     1     113.576 128.836 135.737  0.00  0.00    +0.000 A 
ATOM     13  C   UNL     1     113.861 128.081 136.033  0.00  0.00    +0.000 A 
ENDROOT
BRANCH  12  15
ATOM     14  O   UNL     1     115.710 131.245 135.006  0.00  0.00    +0.000 OA
ATOM     15  C   UNL     1     114.110 129.439 135.554  0.00  0.00    +0.000 A 
ATOM     16  C   UNL     1     114.471 129.459 134.813  0.00  0.00    +0.000 A 
ATOM     17  C   UNL     1     114.282 130.021 136.113  0.00  0.00    +0.000 A 
ATOM     18  C   UNL     1     115.005 130.061 134.630  0.00  0.00    +0.000 A 
ATOM     19  C   UNL     1     114.815 130.623 135.931  0.00  0.00    +0.000 A 
ATOM     20  C   UNL     1     115.176 130.643 135.189  0.00  0.00    +0.000 A 
ENDBRANCH  12  15
BRANCH   5  21
ATOM     21  O   UNL     1     110.030 127.975 135.805  0.00  0.00    +0.000 OA
BRANCH  21  30
ATOM     22  O   UNL     1     109.822 128.786 136.963  0.00  0.00    +0.000 OA
ATOM     23  O   UNL     1     108.237 130.197 135.689  0.00  0.00    +0.000 OA
ATOM     24  O   UNL     1     108.558 130.538 137.271  0.00  0.00    +0.000 OA
ATOM     25  O   UNL     1     108.974 128.916 134.956  0.00  0.00    +0.000 OA
ATOM     26  C   UNL     1     108.766 129.727 136.114  0.00  0.00    +0.000 C 
ATOM     27  C   UNL     1     108.926 129.897 136.905  0.00  0.00    +0.000 C 
ATOM     28  C   UNL     1     109.134 129.086 135.748  0.00  0.00    +0.000 C 
ATOM     29  C   UNL     1     109.454 129.427 137.330  0.00  0.00    +0.000 C 
ATOM     30  C   UNL     1     109.662 128.615 136.172  0.00  0.00    +0.000 C 
BRANCH  29  32
ATOM     31  O   UNL     1     110.096 130.238 138.315  0.00  0.00    +0.000 OA
ATOM     32  C   UNL     1     109.614 129.597 138.121  0.00  0.00    +0.000 C 
BRANCH  32  33
ATOM     33  O   UNL     1     109.292 129.127 138.718  0.00  0.00    +0.000 OA
ATOM     34  C   UNL     1     109.638 129.117 139.466  0.00  0.00    +0.000 C 
ENDBRANCH  32  33
ENDBRANCH  29  32
ENDBRANCH  21  30
ENDBRANCH   5  21
TORSDOF 5
ENDMDL
MODEL 8
REMARK VINA RESULT:      -8.8      2.151      4.256
REMARK  Name = 14162695
REMARK  5 active torsions:
REMARK  status: ('A' for Active; 'I' for Inactive)
REMARK    1  A    between atoms: O_2  and  C_17
REMARK    2  A    between atoms: O_2  and  C_19
REMARK    3  A    between atoms: O_6  and  C_18
REMARK    4  A    between atoms: C_16  and  C_18
REMARK    5  A    between atoms: C_27  and  C_29
REMARK                            x       y       z     vdW  Elec       q    Type
REMARK                         _______ _______ _______ _____ _____    ______ ____
ROOT
ATOM      1  O   UNL     1     111.586 126.128 137.046  0.00  0.00    +0.000 OA
ATOM      2  O   UNL     1     108.538 127.268 136.319  0.00  0.00    +0.000 OA
ATOM      3  O   UNL     1     109.271 126.188 135.309  0.00  0.00    +0.000 OA
ATOM      4  O   UNL     1     110.389 125.348 134.954  0.00  0.00    +0.000 OA
ATOM      5  C   UNL     1     109.679 127.240 137.178  0.00  0.00    +0.000 A 
ATOM      6  C   UNL     1     110.433 126.956 137.355  0.00  0.00    +0.000 A 
ATOM      7  C   UNL     1     109.292 126.984 136.495  0.00  0.00    +0.000 A 
ATOM      8  C   UNL     1     110.800 126.416 136.850  0.00  0.00    +0.000 A 
ATOM      9  C   UNL     1     110.413 126.160 136.168  0.00  0.00    +0.000 A 
ATOM     10  C   UNL     1     109.658 126.444 135.991  0.00  0.00    +0.000 A 
ATOM     11  C   UNL     1     110.783 125.599 135.634  0.00  0.00    +0.000 A 
ATOM     12  C   UNL     1     111.973 125.566 136.524  0.00  0.00    +0.000 A 
ATOM     13  C   UNL     1     111.569 125.299 135.813  0.00  0.00    +0.000 A 
ENDROOT
BRANCH  12  15
ATOM     14  O   UNL     1     114.989 124.436 137.243  0.00  0.00    +0.000 OA
ATOM     15  C   UNL     1     112.727 125.283 136.704  0.00  0.00    +0.000 A 
ATOM     16  C   UNL     1     113.390 125.749 136.548  0.00  0.00    +0.000 A 
ATOM     17  C   UNL     1     112.819 124.535 137.039  0.00  0.00    +0.000 A 
ATOM     18  C   UNL     1     114.144 125.467 136.728  0.00  0.00    +0.000 A 
ATOM     19  C   UNL     1     113.572 124.253 137.219  0.00  0.00    +0.000 A 
ATOM     20  C   UNL     1     114.235 124.719 137.063  0.00  0.00    +0.000 A 
ENDBRANCH  12  15
BRANCH   5  21
ATOM     21  O   UNL     1     109.312 127.780 137.683  0.00  0.00    +0.000 OA
BRANCH  21  30
ATOM     22  O   UNL     1     110.101 128.924 137.347  0.00  0.00    +0.000 OA
ATOM     23  O   UNL     1     110.119 129.608 139.726  0.00  0.00    +0.000 OA
ATOM     24  O   UNL     1     110.901 130.524 138.597  0.00  0.00    +0.000 OA
ATOM     25  O   UNL     1     109.324 128.236 139.268  0.00  0.00    +0.000 OA
ATOM     26  C   UNL     1     110.113 129.380 138.933  0.00  0.00    +0.000 C 
ATOM     27  C   UNL     1     110.504 129.838 138.368  0.00  0.00    +0.000 C 
ATOM     28  C   UNL     1     109.716 128.694 138.704  0.00  0.00    +0.000 C 
ATOM     29  C   UNL     1     110.498 129.610 137.575  0.00  0.00    +0.000 C 
ATOM     30  C   UNL     1     109.710 128.466 137.911  0.00  0.00    +0.000 C 
BRANCH  29  32
ATOM     31  O   UNL     1     110.495 130.692 136.643  0.00  0.00    +0.000 OA
ATOM     32  C   UNL     1     110.889 130.067 137.012  0.00  0.00    +0.000 C 
BRANCH  32  33
ATOM     33  O   UNL     1     111.673 129.902 136.817  0.00  0.00    +0.000 OA
ATOM     34  C   UNL     1     111.981 130.152 136.094  0.00  0.00    +0.000 C 
ENDBRANCH  32  33
ENDBRANCH  29  32
ENDBRANCH  21  30
ENDBRANCH   5  21
TORSDOF 5
ENDMDL
MODEL 9
REMARK VINA RESULT:      -8.8      1.895      2.796
REMARK  Name = 14162695
REMARK  5 active torsions:
REMARK  status: ('A' for Active; 'I' for Inactive)
REMARK    1  A    between atoms: O_2  and  C_17
REMARK    2  A    between atoms: O_2  and  C_19
REMARK    3  A    between atoms: O_6  and  C_18
REMARK    4  A    between atoms: C_16  and  C_18
REMARK    5  A    between atoms: C_27  and  C_29
REMARK                            x       y       z     vdW  Elec       q    Type
REMARK                         _______ _______ _______ _____ _____    ______ ____
ROOT
ATOM      1  O   UNL     1     113.704 128.716 136.907  0.00  0.00    +0.000 OA
ATOM      2  O   UNL     1     111.552 127.201 138.954  0.00  0.00    +0.000 OA
ATOM      3  O   UNL     1     111.252 128.741 138.443  0.00  0.00    +0.000 OA
ATOM      4  O   UNL     1     111.612 129.913 137.683  0.00  0.00    +0.000 OA
ATOM      5  C   UNL     1     112.763 127.186 138.197  0.00  0.00    +0.000 A 
ATOM      6  C   UNL     1     113.294 127.564 137.690  0.00  0.00    +0.000 A 
ATOM      7  C   UNL     1     112.082 127.579 138.448  0.00  0.00    +0.000 A 
ATOM      8  C   UNL     1     113.144 128.334 137.435  0.00  0.00    +0.000 A 
ATOM      9  C   UNL     1     112.463 128.726 137.686  0.00  0.00    +0.000 A 
ATOM     10  C   UNL     1     111.932 128.349 138.192  0.00  0.00    +0.000 A 
ATOM     11  C   UNL     1     112.295 129.527 137.427  0.00  0.00    +0.000 A 
ATOM     12  C   UNL     1     113.554 129.517 136.637  0.00  0.00    +0.000 A 
ATOM     13  C   UNL     1     112.844 129.926 136.899  0.00  0.00    +0.000 A 
ENDROOT
BRANCH  12  15
ATOM     14  O   UNL     1     115.684 131.017 134.612  0.00  0.00    +0.000 OA
ATOM     15  C   UNL     1     114.086 129.892 136.131  0.00  0.00    +0.000 A 
ATOM     16  C   UNL     1     114.219 129.590 135.374  0.00  0.00    +0.000 A 
ATOM     17  C   UNL     1     114.487 130.569 136.381  0.00  0.00    +0.000 A 
ATOM     18  C   UNL     1     114.751 129.965 134.868  0.00  0.00    +0.000 A 
ATOM     19  C   UNL     1     115.019 130.944 135.875  0.00  0.00    +0.000 A 
ATOM     20  C   UNL     1     115.151 130.642 135.119  0.00  0.00    +0.000 A 
ENDBRANCH  12  15
BRANCH   5  21
ATOM     21  O   UNL     1     112.914 126.416 138.453  0.00  0.00    +0.000 OA
BRANCH  21  30
ATOM     22  O   UNL     1     112.363 125.639 137.387  0.00  0.00    +0.000 OA
ATOM     23  O   UNL     1     114.446 124.307 137.282  0.00  0.00    +0.000 OA
ATOM     24  O   UNL     1     113.201 123.974 136.251  0.00  0.00    +0.000 OA
ATOM     25  O   UNL     1     114.302 125.528 138.383  0.00  0.00    +0.000 OA
ATOM     26  C   UNL     1     113.752 124.751 137.317  0.00  0.00    +0.000 C 
ATOM     27  C   UNL     1     113.129 124.585 136.801  0.00  0.00    +0.000 C 
ATOM     28  C   UNL     1     113.679 125.361 137.867  0.00  0.00    +0.000 C 
ATOM     29  C   UNL     1     112.435 125.029 136.836  0.00  0.00    +0.000 C 
ATOM     30  C   UNL     1     112.985 125.806 137.902  0.00  0.00    +0.000 C 
BRANCH  29  32
ATOM     31  O   UNL     1     111.342 124.196 136.444  0.00  0.00    +0.000 OA
ATOM     32  C   UNL     1     111.813 124.863 136.321  0.00  0.00    +0.000 C 
BRANCH  32  33
ATOM     33  O   UNL     1     111.660 125.362 135.682  0.00  0.00    +0.000 OA
ATOM     34  C   UNL     1     110.910 125.379 135.341  0.00  0.00    +0.000 C 
ENDBRANCH  32  33
ENDBRANCH  29  32
ENDBRANCH  21  30
ENDBRANCH   5  21
TORSDOF 5
ENDMDL
MODEL 10
REMARK VINA RESULT:      -8.8      2.707      4.558
REMARK  Name = 14162695
REMARK  5 active torsions:
REMARK  status: ('A' for Active; 'I' for Inactive)
REMARK    1  A    between atoms: O_2  and  C_17
REMARK    2  A    between atoms: O_2  and  C_19
REMARK    3  A    between atoms: O_6  and  C_18
REMARK    4  A    between atoms: C_16  and  C_18
REMARK    5  A    between atoms: C_27  and  C_29
REMARK                            x       y       z     vdW  Elec       q    Type
REMARK                         _______ _______ _______ _____ _____    ______ ____
ROOT
ATOM      1  O   UNL     1     111.960 129.289 136.557  0.00  0.00    +0.000 OA
ATOM      2  O   UNL     1     109.398 128.433 138.511  0.00  0.00    +0.000 OA
ATOM      3  O   UNL     1     110.943 128.151 139.016  0.00  0.00    +0.000 OA
ATOM      4  O   UNL     1     112.370 128.210 138.811  0.00  0.00    +0.000 OA
ATOM      5  C   UNL     1     109.897 128.995 137.296  0.00  0.00    +0.000 A 
ATOM      6  C   UNL     1     110.534 129.205 136.815  0.00  0.00    +0.000 A 
ATOM      7  C   UNL     1     110.034 128.643 138.031  0.00  0.00    +0.000 A 
ATOM      8  C   UNL     1     111.306 129.064 137.068  0.00  0.00    +0.000 A 
ATOM      9  C   UNL     1     111.443 128.713 137.801  0.00  0.00    +0.000 A 
ATOM     10  C   UNL     1     110.807 128.502 138.283  0.00  0.00    +0.000 A 
ATOM     11  C   UNL     1     112.242 128.561 138.076  0.00  0.00    +0.000 A 
ATOM     12  C   UNL     1     112.767 129.145 136.814  0.00  0.00    +0.000 A 
ATOM     13  C   UNL     1     112.910 128.778 137.579  0.00  0.00    +0.000 A 
ENDROOT
BRANCH  12  15
ATOM     14  O   UNL     1     115.304 129.992 134.881  0.00  0.00    +0.000 OA
ATOM     15  C   UNL     1     113.402 129.357 136.331  0.00  0.00    +0.000 A 
ATOM     16  C   UNL     1     113.671 128.834 135.752  0.00  0.00    +0.000 A 
ATOM     17  C   UNL     1     113.766 130.090 136.426  0.00  0.00    +0.000 A 
ATOM     18  C   UNL     1     114.305 129.046 135.268  0.00  0.00    +0.000 A 
ATOM     19  C   UNL     1     114.400 130.303 135.944  0.00  0.00    +0.000 A 
ATOM     20  C   UNL     1     114.670 129.781 135.365  0.00  0.00    +0.000 A 
ENDBRANCH  12  15
BRANCH   5  21
ATOM     21  O   UNL     1     109.125 129.135 137.044  0.00  0.00    +0.000 OA
BRANCH  21  30
ATOM     22  O   UNL     1     109.076 130.541 137.294  0.00  0.00    +0.000 OA
ATOM     23  O   UNL     1     107.859 130.878 135.165  0.00  0.00    +0.000 OA
ATOM     24  O   UNL     1     108.217 132.172 136.125  0.00  0.00    +0.000 OA
ATOM     25  O   UNL     1     108.313 129.360 135.625  0.00  0.00    +0.000 OA
ATOM     26  C   UNL     1     108.265 130.766 135.875  0.00  0.00    +0.000 C 
ATOM     27  C   UNL     1     108.444 131.413 136.355  0.00  0.00    +0.000 C 
ATOM     28  C   UNL     1     108.492 130.007 136.105  0.00  0.00    +0.000 C 
ATOM     29  C   UNL     1     108.850 131.301 137.065  0.00  0.00    +0.000 C 
ATOM     30  C   UNL     1     108.898 129.895 136.815  0.00  0.00    +0.000 C 
BRANCH  29  32
ATOM     31  O   UNL     1     108.474 132.220 138.092  0.00  0.00    +0.000 OA
ATOM     32  C   UNL     1     109.028 131.947 137.544  0.00  0.00    +0.000 C 
BRANCH  32  33
ATOM     33  O   UNL     1     109.760 132.323 137.477  0.00  0.00    +0.000 OA
ATOM     34  C   UNL     1     110.053 132.771 138.103  0.00  0.00    +0.000 C 
ENDBRANCH  32  33
ENDBRANCH  29  32
ENDBRANCH  21  30
ENDBRANCH   5  21
TORSDOF 5
ENDMDL
