MODEL 1
REMARK VINA RESULT:      -9.4      0.000      0.000
REMARK  Name = 44257188
REMARK  3 active torsions:
REMARK  status: ('A' for Active; 'I' for Inactive)
REMARK    1  A    between atoms: O_2  and  C_11
REMARK    2  A    between atoms: O_2  and  C_18
REMARK    3  A    between atoms: C_16  and  C_20
REMARK                            x       y       z     vdW  Elec       q    Type
REMARK                         _______ _______ _______ _____ _____    ______ ____
ROOT
ATOM      1  O   UNL     1     112.073 125.806 136.050  0.00  0.00    +0.000 OA
ATOM      2  O   UNL     1     109.574 125.777 134.616  0.00  0.00    +0.000 OA
ATOM      3  C   UNL     1     112.658 127.101 136.479  0.00  0.00    +0.000 C 
ATOM      4  C   UNL     1     111.990 127.509 136.125  0.00  0.00    +0.000 C 
ATOM      5  C   UNL     1     112.700 126.244 136.441  0.00  0.00    +0.000 C 
ATOM      6  C   UNL     1     111.372 127.054 135.738  0.00  0.00    +0.000 A 
ATOM      7  C   UNL     1     110.733 127.452 135.401  0.00  0.00    +0.000 A 
ATOM      8  C   UNL     1     111.411 126.231 135.702  0.00  0.00    +0.000 A 
ATOM      9  C   UNL     1     110.133 127.026 135.027  0.00  0.00    +0.000 A 
ATOM     10  C   UNL     1     110.812 125.806 135.328  0.00  0.00    +0.000 A 
ATOM     11  C   UNL     1     110.173 126.203 134.990  0.00  0.00    +0.000 A 
ENDROOT
BRANCH   5  13
ATOM     12  O   UNL     1     115.253 124.644 137.788  0.00  0.00    +0.000 OA
ATOM     13  C   UNL     1     113.338 125.844 136.777  0.00  0.00    +0.000 A 
ATOM     14  C   UNL     1     113.962 125.588 136.303  0.00  0.00    +0.000 A 
ATOM     15  C   UNL     1     113.352 125.700 137.590  0.00  0.00    +0.000 A 
ATOM     16  C   UNL     1     114.600 125.188 136.639  0.00  0.00    +0.000 A 
ATOM     17  C   UNL     1     113.991 125.300 137.927  0.00  0.00    +0.000 A 
ATOM     18  C   UNL     1     114.614 125.044 137.452  0.00  0.00    +0.000 A 
ENDBRANCH   5  13
BRANCH   7  19
ATOM     19  O   UNL     1     110.693 128.275 135.437  0.00  0.00    +0.000 OA
BRANCH  19  26
ATOM     20  O   UNL     1     109.483 128.337 136.195  0.00  0.00    +0.000 OA
ATOM     21  O   UNL     1     110.244 129.632 134.612  0.00  0.00    +0.000 OA
ATOM     22  O   UNL     1     108.810 130.372 134.958  0.00  0.00    +0.000 OA
ATOM     23  O   UNL     1     107.825 129.755 136.129  0.00  0.00    +0.000 OA
ATOM     24  C   UNL     1     109.752 129.324 135.198  0.00  0.00    +0.000 C 
ATOM     25  C   UNL     1     109.035 129.694 135.371  0.00  0.00    +0.000 C 
ATOM     26  C   UNL     1     109.976 128.646 135.610  0.00  0.00    +0.000 C 
ATOM     27  C   UNL     1     108.543 129.385 135.956  0.00  0.00    +0.000 C 
ATOM     28  C   UNL     1     108.766 128.707 136.369  0.00  0.00    +0.000 C 
ENDBRANCH  19  26
ENDBRANCH   7  19
TORSDOF 3
ENDMDL
MODEL 2
REMARK VINA RESULT:      -9.3      7.483      8.889
REMARK  Name = 44257188
REMARK  3 active torsions:
REMARK  status: ('A' for Active; 'I' for Inactive)
REMARK    1  A    between atoms: O_2  and  C_11
REMARK    2  A    between atoms: O_2  and  C_18
REMARK    3  A    between atoms: C_16  and  C_20
REMARK                            x       y       z     vdW  Elec       q    Type
REMARK                         _______ _______ _______ _____ _____    ______ ____
ROOT
ATOM      1  O   UNL     1     104.949 123.639 139.402  0.00  0.00    +0.000 OA
ATOM      2  O   UNL     1     107.222 123.142 141.101  0.00  0.00    +0.000 OA
ATOM      3  C   UNL     1     104.394 125.012 139.301  0.00  0.00    +0.000 C 
ATOM      4  C   UNL     1     104.994 125.285 139.851  0.00  0.00    +0.000 C 
ATOM      5  C   UNL     1     104.371 124.183 139.075  0.00  0.00    +0.000 C 
ATOM      6  C   UNL     1     105.565 124.725 140.168  0.00  0.00    +0.000 A 
ATOM      7  C   UNL     1     106.139 124.993 140.697  0.00  0.00    +0.000 A 
ATOM      8  C   UNL     1     105.543 123.930 139.951  0.00  0.00    +0.000 A 
ATOM      9  C   UNL     1     106.692 124.465 141.008  0.00  0.00    +0.000 A 
ATOM     10  C   UNL     1     106.095 123.402 140.262  0.00  0.00    +0.000 A 
ATOM     11  C   UNL     1     106.670 123.669 140.790  0.00  0.00    +0.000 A 
ENDROOT
BRANCH   5  13
ATOM     12  O   UNL     1     102.078 123.102 136.962  0.00  0.00    +0.000 OA
ATOM     13  C   UNL     1     103.798 123.913 138.547  0.00  0.00    +0.000 A 
ATOM     14  C   UNL     1     103.002 123.919 138.762  0.00  0.00    +0.000 A 
ATOM     15  C   UNL     1     104.021 123.637 137.802  0.00  0.00    +0.000 A 
ATOM     16  C   UNL     1     102.429 123.648 138.234  0.00  0.00    +0.000 A 
ATOM     17  C   UNL     1     103.448 123.366 137.273  0.00  0.00    +0.000 A 
ATOM     18  C   UNL     1     102.652 123.372 137.490  0.00  0.00    +0.000 A 
ENDBRANCH   5  13
BRANCH   7  19
ATOM     19  O   UNL     1     106.161 125.789 140.914  0.00  0.00    +0.000 OA
BRANCH  19  26
ATOM     20  O   UNL     1     105.952 125.661 142.322  0.00  0.00    +0.000 OA
ATOM     21  O   UNL     1     107.361 126.886 141.192  0.00  0.00    +0.000 OA
ATOM     22  O   UNL     1     107.753 127.306 142.739  0.00  0.00    +0.000 OA
ATOM     23  O   UNL     1     106.943 126.629 144.008  0.00  0.00    +0.000 OA
ATOM     24  C   UNL     1     106.957 126.548 141.827  0.00  0.00    +0.000 C 
ATOM     25  C   UNL     1     107.152 126.758 142.599  0.00  0.00    +0.000 C 
ATOM     26  C   UNL     1     106.357 125.999 141.687  0.00  0.00    +0.000 C 
ATOM     27  C   UNL     1     106.748 126.419 143.234  0.00  0.00    +0.000 C 
ATOM     28  C   UNL     1     106.147 125.871 143.095  0.00  0.00    +0.000 C 
ENDBRANCH  19  26
ENDBRANCH   7  19
TORSDOF 3
ENDMDL
MODEL 3
REMARK VINA RESULT:      -9.0      4.113      5.224
REMARK  Name = 44257188
REMARK  3 active torsions:
REMARK  status: ('A' for Active; 'I' for Inactive)
REMARK    1  A    between atoms: O_2  and  C_11
REMARK    2  A    between atoms: O_2  and  C_18
REMARK    3  A    between atoms: C_16  and  C_20
REMARK                            x       y       z     vdW  Elec       q    Type
REMARK                         _______ _______ _______ _____ _____    ______ ____
ROOT
ATOM      1  O   UNL     1     113.103 127.377 137.786  0.00  0.00    +0.000 OA
ATOM      2  O   UNL     1     112.656 130.218 137.622  0.00  0.00    +0.000 OA
ATOM      3  C   UNL     1     113.460 126.764 139.090  0.00  0.00    +0.000 C 
ATOM      4  C   UNL     1     113.422 127.541 139.455  0.00  0.00    +0.000 C 
ATOM      5  C   UNL     1     113.299 126.681 138.251  0.00  0.00    +0.000 C 
ATOM      6  C   UNL     1     113.224 128.226 138.974  0.00  0.00    +0.000 A 
ATOM      7  C   UNL     1     113.189 128.969 139.330  0.00  0.00    +0.000 A 
ATOM      8  C   UNL     1     113.069 128.146 138.168  0.00  0.00    +0.000 A 
ATOM      9  C   UNL     1     112.999 129.634 138.879  0.00  0.00    +0.000 A 
ATOM     10  C   UNL     1     112.880 128.810 137.717  0.00  0.00    +0.000 A 
ATOM     11  C   UNL     1     112.845 129.554 138.072  0.00  0.00    +0.000 A 
ENDROOT
BRANCH   5  13
ATOM     12  O   UNL     1     113.435 123.711 136.819  0.00  0.00    +0.000 OA
ATOM     13  C   UNL     1     113.333 125.939 137.893  0.00  0.00    +0.000 A 
ATOM     14  C   UNL     1     114.063 125.608 137.696  0.00  0.00    +0.000 A 
ATOM     15  C   UNL     1     112.637 125.527 137.731  0.00  0.00    +0.000 A 
ATOM     16  C   UNL     1     114.097 124.866 137.339  0.00  0.00    +0.000 A 
ATOM     17  C   UNL     1     112.671 124.784 137.373  0.00  0.00    +0.000 A 
ATOM     18  C   UNL     1     113.401 124.453 137.177  0.00  0.00    +0.000 A 
ENDBRANCH   5  13
BRANCH   7  19
ATOM     19  O   UNL     1     113.344 129.048 140.137  0.00  0.00    +0.000 OA
BRANCH  19  26
ATOM     20  O   UNL     1     114.521 129.853 140.054  0.00  0.00    +0.000 OA
ATOM     21  O   UNL     1     112.800 129.974 141.390  0.00  0.00    +0.000 OA
ATOM     22  O   UNL     1     113.706 131.241 141.933  0.00  0.00    +0.000 OA
ATOM     23  O   UNL     1     115.156 131.583 141.224  0.00  0.00    +0.000 OA
ATOM     24  C   UNL     1     113.525 130.145 141.035  0.00  0.00    +0.000 C 
ATOM     25  C   UNL     1     113.978 130.778 141.307  0.00  0.00    +0.000 C 
ATOM     26  C   UNL     1     113.796 129.682 140.409  0.00  0.00    +0.000 C 
ATOM     27  C   UNL     1     114.703 130.949 140.952  0.00  0.00    +0.000 C 
ATOM     28  C   UNL     1     114.975 130.487 140.325  0.00  0.00    +0.000 C 
ENDBRANCH  19  26
ENDBRANCH   7  19
TORSDOF 3
ENDMDL
MODEL 4
REMARK VINA RESULT:      -8.9      2.549      4.544
REMARK  Name = 44257188
REMARK  3 active torsions:
REMARK  status: ('A' for Active; 'I' for Inactive)
REMARK    1  A    between atoms: O_2  and  C_11
REMARK    2  A    between atoms: O_2  and  C_18
REMARK    3  A    between atoms: C_16  and  C_20
REMARK                            x       y       z     vdW  Elec       q    Type
REMARK                         _______ _______ _______ _____ _____    ______ ____
ROOT
ATOM      1  O   UNL     1     112.903 128.863 135.311  0.00  0.00    +0.000 OA
ATOM      2  O   UNL     1     110.428 127.425 134.977  0.00  0.00    +0.000 OA
ATOM      3  C   UNL     1     113.853 128.451 136.376  0.00  0.00    +0.000 C 
ATOM      4  C   UNL     1     113.311 127.826 136.605  0.00  0.00    +0.000 C 
ATOM      5  C   UNL     1     113.647 128.973 135.725  0.00  0.00    +0.000 C 
ATOM      6  C   UNL     1     112.570 127.730 136.179  0.00  0.00    +0.000 A 
ATOM      7  C   UNL     1     112.053 127.127 136.404  0.00  0.00    +0.000 A 
ATOM      8  C   UNL     1     112.373 128.231 135.554  0.00  0.00    +0.000 A 
ATOM      9  C   UNL     1     111.339 127.025 136.003  0.00  0.00    +0.000 A 
ATOM     10  C   UNL     1     111.659 128.129 135.154  0.00  0.00    +0.000 A 
ATOM     11  C   UNL     1     111.142 127.527 135.378  0.00  0.00    +0.000 A 
ENDROOT
BRANCH   5  13
ATOM     12  O   UNL     1     115.707 131.388 134.820  0.00  0.00    +0.000 OA
ATOM     13  C   UNL     1     114.162 129.577 135.499  0.00  0.00    +0.000 A 
ATOM     14  C   UNL     1     114.647 129.480 134.838  0.00  0.00    +0.000 A 
ATOM     15  C   UNL     1     114.193 130.277 135.933  0.00  0.00    +0.000 A 
ATOM     16  C   UNL     1     115.162 130.084 134.612  0.00  0.00    +0.000 A 
ATOM     17  C   UNL     1     114.708 130.882 135.707  0.00  0.00    +0.000 A 
ATOM     18  C   UNL     1     115.192 130.785 135.047  0.00  0.00    +0.000 A 
ENDBRANCH   5  13
BRANCH   7  19
ATOM     19  O   UNL     1     112.250 126.626 137.029  0.00  0.00    +0.000 OA
BRANCH  19  26
ATOM     20  O   UNL     1     112.381 125.421 136.272  0.00  0.00    +0.000 OA
ATOM     21  O   UNL     1     111.532 125.780 138.250  0.00  0.00    +0.000 OA
ATOM     22  O   UNL     1     111.305 124.152 138.104  0.00  0.00    +0.000 OA
ATOM     23  O   UNL     1     111.795 123.371 136.736  0.00  0.00    +0.000 OA
ATOM     24  C   UNL     1     111.778 125.389 137.566  0.00  0.00    +0.000 C 
ATOM     25  C   UNL     1     111.664 124.576 137.493  0.00  0.00    +0.000 C 
ATOM     26  C   UNL     1     112.136 125.812 136.956  0.00  0.00    +0.000 C 
ATOM     27  C   UNL     1     111.909 124.185 136.809  0.00  0.00    +0.000 C 
ATOM     28  C   UNL     1     112.268 124.607 136.198  0.00  0.00    +0.000 C 
ENDBRANCH  19  26
ENDBRANCH   7  19
TORSDOF 3
ENDMDL
MODEL 5
REMARK VINA RESULT:      -8.8      1.269      2.037
REMARK  Name = 44257188
REMARK  3 active torsions:
REMARK  status: ('A' for Active; 'I' for Inactive)
REMARK    1  A    between atoms: O_2  and  C_11
REMARK    2  A    between atoms: O_2  and  C_18
REMARK    3  A    between atoms: C_16  and  C_20
REMARK                            x       y       z     vdW  Elec       q    Type
REMARK                         _______ _______ _______ _____ _____    ______ ____
ROOT
ATOM      1  O   UNL     1     113.370 127.750 136.745  0.00  0.00    +0.000 OA
ATOM      2  O   UNL     1     112.910 130.580 136.467  0.00  0.00    +0.000 OA
ATOM      3  C   UNL     1     112.307 126.791 136.349  0.00  0.00    +0.000 C 
ATOM      4  C   UNL     1     111.807 127.452 136.126  0.00  0.00    +0.000 C 
ATOM      5  C   UNL     1     113.094 126.941 136.661  0.00  0.00    +0.000 C 
ATOM      6  C   UNL     1     112.100 128.256 136.218  0.00  0.00    +0.000 A 
ATOM      7  C   UNL     1     111.614 128.886 136.001  0.00  0.00    +0.000 A 
ATOM      8  C   UNL     1     112.855 128.399 136.517  0.00  0.00    +0.000 A 
ATOM      9  C   UNL     1     111.885 129.662 136.085  0.00  0.00    +0.000 A 
ATOM     10  C   UNL     1     113.125 129.174 136.600  0.00  0.00    +0.000 A 
ATOM     11  C   UNL     1     112.640 129.806 136.384  0.00  0.00    +0.000 A 
ENDROOT
BRANCH   5  13
ATOM     12  O   UNL     1     115.042 124.422 137.529  0.00  0.00    +0.000 OA
ATOM     13  C   UNL     1     113.581 126.311 136.878  0.00  0.00    +0.000 A 
ATOM     14  C   UNL     1     114.069 125.954 136.317  0.00  0.00    +0.000 A 
ATOM     15  C   UNL     1     113.580 126.038 137.656  0.00  0.00    +0.000 A 
ATOM     16  C   UNL     1     114.556 125.325 136.534  0.00  0.00    +0.000 A 
ATOM     17  C   UNL     1     114.067 125.408 137.874  0.00  0.00    +0.000 A 
ATOM     18  C   UNL     1     114.555 125.052 137.312  0.00  0.00    +0.000 A 
ENDBRANCH   5  13
BRANCH   7  19
ATOM     19  O   UNL     1     110.859 128.743 135.702  0.00  0.00    +0.000 OA
BRANCH  19  26
ATOM     20  O   UNL     1     110.119 129.318 136.780  0.00  0.00    +0.000 OA
ATOM     21  O   UNL     1     109.775 129.367 134.626  0.00  0.00    +0.000 OA
ATOM     22  O   UNL     1     108.493 130.254 135.167  0.00  0.00    +0.000 OA
ATOM     23  O   UNL     1     108.295 130.517 136.784  0.00  0.00    +0.000 OA
ATOM     24  C   UNL     1     109.676 129.498 135.435  0.00  0.00    +0.000 C 
ATOM     25  C   UNL     1     109.035 129.941 135.705  0.00  0.00    +0.000 C 
ATOM     26  C   UNL     1     110.218 129.186 135.972  0.00  0.00    +0.000 C 
ATOM     27  C   UNL     1     108.936 130.073 136.513  0.00  0.00    +0.000 C 
ATOM     28  C   UNL     1     109.478 129.761 137.051  0.00  0.00    +0.000 C 
ENDBRANCH  19  26
ENDBRANCH   7  19
TORSDOF 3
ENDMDL
MODEL 6
REMARK VINA RESULT:      -8.8      8.321     11.117
REMARK  Name = 44257188
REMARK  3 active torsions:
REMARK  status: ('A' for Active; 'I' for Inactive)
REMARK    1  A    between atoms: O_2  and  C_11
REMARK    2  A    between atoms: O_2  and  C_18
REMARK    3  A    between atoms: C_16  and  C_20
REMARK                            x       y       z     vdW  Elec       q    Type
REMARK                         _______ _______ _______ _____ _____    ______ ____
ROOT
ATOM      1  O   UNL     1     103.086 129.998 141.515  0.00  0.00    +0.000 OA
ATOM      2  O   UNL     1     104.261 127.575 140.490  0.00  0.00    +0.000 OA
ATOM      3  C   UNL     1     103.406 130.442 142.895  0.00  0.00    +0.000 C 
ATOM      4  C   UNL     1     103.912 129.755 142.989  0.00  0.00    +0.000 C 
ATOM      5  C   UNL     1     102.990 130.565 142.153  0.00  0.00    +0.000 C 
ATOM      6  C   UNL     1     103.996 129.198 142.339  0.00  0.00    +0.000 A 
ATOM      7  C   UNL     1     104.484 128.540 142.435  0.00  0.00    +0.000 A 
ATOM      8  C   UNL     1     103.597 129.316 141.627  0.00  0.00    +0.000 A 
ATOM      9  C   UNL     1     104.572 127.998 141.818  0.00  0.00    +0.000 A 
ATOM     10  C   UNL     1     103.685 128.775 141.011  0.00  0.00    +0.000 A 
ATOM     11  C   UNL     1     104.173 128.116 141.106  0.00  0.00    +0.000 A 
ENDROOT
BRANCH   5  13
ATOM     12  O   UNL     1     101.037 133.196 141.760  0.00  0.00    +0.000 OA
ATOM     13  C   UNL     1     102.502 131.222 142.055  0.00  0.00    +0.000 A 
ATOM     14  C   UNL     1     102.820 131.937 141.792  0.00  0.00    +0.000 A 
ATOM     15  C   UNL     1     101.696 131.166 142.220  0.00  0.00    +0.000 A 
ATOM     16  C   UNL     1     102.331 132.595 141.694  0.00  0.00    +0.000 A 
ATOM     17  C   UNL     1     101.207 131.824 142.121  0.00  0.00    +0.000 A 
ATOM     18  C   UNL     1     101.525 132.538 141.858  0.00  0.00    +0.000 A 
ENDBRANCH   5  13
BRANCH   7  19
ATOM     19  O   UNL     1     104.883 128.422 143.147  0.00  0.00    +0.000 OA
BRANCH  19  26
ATOM     20  O   UNL     1     106.225 128.438 142.658  0.00  0.00    +0.000 OA
ATOM     21  O   UNL     1     105.253 127.138 144.115  0.00  0.00    +0.000 OA
ATOM     22  O   UNL     1     106.780 126.512 144.109  0.00  0.00    +0.000 OA
ATOM     23  O   UNL     1     107.937 127.171 143.135  0.00  0.00    +0.000 OA
ATOM     24  C   UNL     1     105.831 127.467 143.628  0.00  0.00    +0.000 C 
ATOM     25  C   UNL     1     106.594 127.155 143.625  0.00  0.00    +0.000 C 
ATOM     26  C   UNL     1     105.647 128.109 143.145  0.00  0.00    +0.000 C 
ATOM     27  C   UNL     1     107.173 127.484 143.138  0.00  0.00    +0.000 C 
ATOM     28  C   UNL     1     106.989 128.126 142.654  0.00  0.00    +0.000 C 
ENDBRANCH  19  26
ENDBRANCH   7  19
TORSDOF 3
ENDMDL
MODEL 7
REMARK VINA RESULT:      -8.7      2.418      3.078
REMARK  Name = 44257188
REMARK  3 active torsions:
REMARK  status: ('A' for Active; 'I' for Inactive)
REMARK    1  A    between atoms: O_2  and  C_11
REMARK    2  A    between atoms: O_2  and  C_18
REMARK    3  A    between atoms: C_16  and  C_20
REMARK                            x       y       z     vdW  Elec       q    Type
REMARK                         _______ _______ _______ _____ _____    ______ ____
ROOT
ATOM      1  O   UNL     1     113.739 127.325 136.313  0.00  0.00    +0.000 OA
ATOM      2  O   UNL     1     114.165 129.863 135.019  0.00  0.00    +0.000 OA
ATOM      3  C   UNL     1     112.916 127.258 137.546  0.00  0.00    +0.000 C 
ATOM      4  C   UNL     1     112.796 128.108 137.501  0.00  0.00    +0.000 C 
ATOM      5  C   UNL     1     113.391 126.864 136.948  0.00  0.00    +0.000 C 
ATOM      6  C   UNL     1     113.153 128.552 136.857  0.00  0.00    +0.000 A 
ATOM      7  C   UNL     1     113.035 129.368 136.819  0.00  0.00    +0.000 A 
ATOM      8  C   UNL     1     113.609 128.174 136.283  0.00  0.00    +0.000 A 
ATOM      9  C   UNL     1     113.372 129.805 136.205  0.00  0.00    +0.000 A 
ATOM     10  C   UNL     1     113.946 128.611 135.670  0.00  0.00    +0.000 A 
ATOM     11  C   UNL     1     113.828 129.427 135.631  0.00  0.00    +0.000 A 
ENDROOT
BRANCH   5  13
ATOM     12  O   UNL     1     113.870 123.602 137.093  0.00  0.00    +0.000 OA
ATOM     13  C   UNL     1     113.510 126.049 136.985  0.00  0.00    +0.000 A 
ATOM     14  C   UNL     1     114.169 125.745 137.378  0.00  0.00    +0.000 A 
ATOM     15  C   UNL     1     112.971 125.537 136.628  0.00  0.00    +0.000 A 
ATOM     16  C   UNL     1     114.289 124.930 137.414  0.00  0.00    +0.000 A 
ATOM     17  C   UNL     1     113.091 124.720 136.664  0.00  0.00    +0.000 A 
ATOM     18  C   UNL     1     113.750 124.418 137.057  0.00  0.00    +0.000 A 
ENDBRANCH   5  13
BRANCH   7  19
ATOM     19  O   UNL     1     112.579 129.746 137.393  0.00  0.00    +0.000 OA
BRANCH  19  26
ATOM     20  O   UNL     1     111.500 130.115 136.532  0.00  0.00    +0.000 OA
ATOM     21  O   UNL     1     112.410 131.169 138.212  0.00  0.00    +0.000 OA
ATOM     22  O   UNL     1     111.247 132.248 137.760  0.00  0.00    +0.000 OA
ATOM     23  O   UNL     1     110.253 131.905 136.489  0.00  0.00    +0.000 OA
ATOM     24  C   UNL     1     111.913 130.997 137.577  0.00  0.00    +0.000 C 
ATOM     25  C   UNL     1     111.332 131.537 137.351  0.00  0.00    +0.000 C 
ATOM     26  C   UNL     1     111.997 130.287 137.168  0.00  0.00    +0.000 C 
ATOM     27  C   UNL     1     110.835 131.365 136.715  0.00  0.00    +0.000 C 
ATOM     28  C   UNL     1     110.919 130.655 136.305  0.00  0.00    +0.000 C 
ENDBRANCH  19  26
ENDBRANCH   7  19
TORSDOF 3
ENDMDL
MODEL 8
REMARK VINA RESULT:      -8.7      9.766     10.650
REMARK  Name = 44257188
REMARK  3 active torsions:
REMARK  status: ('A' for Active; 'I' for Inactive)
REMARK    1  A    between atoms: O_2  and  C_11
REMARK    2  A    between atoms: O_2  and  C_18
REMARK    3  A    between atoms: C_16  and  C_20
REMARK                            x       y       z     vdW  Elec       q    Type
REMARK                         _______ _______ _______ _____ _____    ______ ____
ROOT
ATOM      1  O   UNL     1     106.431 124.826 146.105  0.00  0.00    +0.000 OA
ATOM      2  O   UNL     1     105.316 124.265 143.509  0.00  0.00    +0.000 OA
ATOM      3  C   UNL     1     106.710 126.231 146.497  0.00  0.00    +0.000 C 
ATOM      4  C   UNL     1     106.417 126.492 145.732  0.00  0.00    +0.000 C 
ATOM      5  C   UNL     1     106.716 125.393 146.684  0.00  0.00    +0.000 C 
ATOM      6  C   UNL     1     106.135 125.911 145.165  0.00  0.00    +0.000 A 
ATOM      7  C   UNL     1     105.856 126.167 144.433  0.00  0.00    +0.000 A 
ATOM      8  C   UNL     1     106.142 125.106 145.345  0.00  0.00    +0.000 A 
ATOM      9  C   UNL     1     105.582 125.618 143.880  0.00  0.00    +0.000 A 
ATOM     10  C   UNL     1     105.869 124.557 144.794  0.00  0.00    +0.000 A 
ATOM     11  C   UNL     1     105.589 124.813 144.061  0.00  0.00    +0.000 A 
ENDROOT
BRANCH   5  13
ATOM     12  O   UNL     1     107.834 124.357 149.612  0.00  0.00    +0.000 OA
ATOM     13  C   UNL     1     106.995 125.134 147.416  0.00  0.00    +0.000 A 
ATOM     14  C   UNL     1     106.467 124.853 147.984  0.00  0.00    +0.000 A 
ATOM     15  C   UNL     1     107.804 125.156 147.581  0.00  0.00    +0.000 A 
ATOM     16  C   UNL     1     106.746 124.594 148.716  0.00  0.00    +0.000 A 
ATOM     17  C   UNL     1     108.084 124.897 148.313  0.00  0.00    +0.000 A 
ATOM     18  C   UNL     1     107.555 124.616 148.880  0.00  0.00    +0.000 A 
ENDBRANCH   5  13
BRANCH   7  19
ATOM     19  O   UNL     1     105.849 126.972 144.252  0.00  0.00    +0.000 OA
BRANCH  19  26
ATOM     20  O   UNL     1     106.892 126.986 143.276  0.00  0.00    +0.000 OA
ATOM     21  O   UNL     1     104.957 127.994 143.313  0.00  0.00    +0.000 OA
ATOM     22  O   UNL     1     105.555 128.519 141.867  0.00  0.00    +0.000 OA
ATOM     23  O   UNL     1     107.044 128.021 141.360  0.00  0.00    +0.000 OA
ATOM     24  C   UNL     1     105.702 127.745 143.059  0.00  0.00    +0.000 C 
ATOM     25  C   UNL     1     106.000 128.007 142.337  0.00  0.00    +0.000 C 
ATOM     26  C   UNL     1     106.148 127.235 143.529  0.00  0.00    +0.000 C 
ATOM     27  C   UNL     1     106.745 127.758 142.084  0.00  0.00    +0.000 C 
ATOM     28  C   UNL     1     107.191 127.248 142.553  0.00  0.00    +0.000 C 
ENDBRANCH  19  26
ENDBRANCH   7  19
TORSDOF 3
ENDMDL
