MODEL 1
REMARK VINA RESULT:      -9.4      0.000      0.000
REMARK  Name = 42607854
REMARK  10 active torsions:
REMARK  status: ('A' for Active; 'I' for Inactive)
REMARK    1  A    between atoms: O_2  and  C_18
REMARK    2  A    between atoms: O_2  and  C_20
REMARK    3  A    between atoms: O_6  and  C_19
REMARK    4  A    between atoms: O_6  and  C_31
REMARK    5  A    between atoms: C_16  and  C_19
REMARK    6  A    between atoms: C_25  and  C_34
REMARK    7  A    between atoms: C_29  and  C_30
REMARK    8  A    between atoms: C_29  and  C_35
REMARK    9  A    between atoms: C_30  and  C_31
REMARK   10  A    between atoms: C_35  and  C_39
REMARK                            x       y       z     vdW  Elec       q    Type
REMARK                         _______ _______ _______ _____ _____    ______ ____
ROOT
ATOM      1  O   UNL     1     110.421 128.389 135.460  0.00  0.00    +0.000 OA
ENDROOT
BRANCH   1   5
ATOM      2  O   UNL     1     112.729 126.941 136.399  0.00  0.00    +0.000 OA
ATOM      3  O   UNL     1     113.027 129.494 135.067  0.00  0.00    +0.000 OA
ATOM      4  O   UNL     1     114.208 128.801 135.522  0.00  0.00    +0.000 OA
ATOM      5  C   UNL     1     111.240 128.337 135.548  0.00  0.00    +0.000 A 
ATOM      6  C   UNL     1     111.575 127.681 135.921  0.00  0.00    +0.000 A 
ATOM      7  C   UNL     1     111.725 128.941 135.264  0.00  0.00    +0.000 A 
ATOM      8  C   UNL     1     112.393 127.630 136.009  0.00  0.00    +0.000 A 
ATOM      9  C   UNL     1     112.877 128.234 135.724  0.00  0.00    +0.000 A 
ATOM     10  C   UNL     1     113.581 126.882 136.493  0.00  0.00    +0.000 C 
ATOM     11  C   UNL     1     112.543 128.890 135.352  0.00  0.00    +0.000 A 
ATOM     12  C   UNL     1     114.086 127.511 136.197  0.00  0.00    +0.000 C 
ATOM     13  C   UNL     1     113.731 128.192 135.810  0.00  0.00    +0.000 C 
ATOM     14  C   UNL     1     111.090 127.077 136.205  0.00  0.00    +0.000 C 
ATOM     15  C   UNL     1     111.390 129.597 134.891  0.00  0.00    +0.000 C 
BRANCH  10  16
ATOM     16  C   UNL     1     113.913 126.225 136.866  0.00  0.00    +0.000 A 
ATOM     17  C   UNL     1     113.898 126.167 137.689  0.00  0.00    +0.000 A 
ATOM     18  C   UNL     1     114.259 125.627 136.417  0.00  0.00    +0.000 A 
ATOM     19  C   UNL     1     114.230 125.510 138.062  0.00  0.00    +0.000 A 
ATOM     20  C   UNL     1     114.591 124.970 136.789  0.00  0.00    +0.000 A 
ATOM     21  C   UNL     1     114.576 124.911 137.611  0.00  0.00    +0.000 A 
ENDBRANCH  10  16
ENDBRANCH   1   5
BRANCH   1  30
ATOM     22  O   UNL     1     110.279 128.944 136.769  0.00  0.00    +0.000 OA
ATOM     23  O   UNL     1     108.622 130.026 137.690  0.00  0.00    +0.000 OA
ATOM     24  O   UNL     1     108.007 129.734 136.187  0.00  0.00    +0.000 OA
ATOM     25  O   UNL     1     108.906 128.915 135.072  0.00  0.00    +0.000 OA
ATOM     26  C   UNL     1     109.072 129.616 137.132  0.00  0.00    +0.000 C 
ATOM     27  C   UNL     1     108.764 129.471 136.381  0.00  0.00    +0.000 C 
ATOM     28  C   UNL     1     109.830 129.353 137.326  0.00  0.00    +0.000 C 
ATOM     29  C   UNL     1     109.214 129.061 135.823  0.00  0.00    +0.000 C 
ATOM     30  C   UNL     1     109.972 128.798 136.017  0.00  0.00    +0.000 C 
BRANCH  28  31
ATOM     31  C   UNL     1     110.137 129.499 138.078  0.00  0.00    +0.000 C 
BRANCH  31  32
ATOM     32  O   UNL     1     110.867 129.873 138.160  0.00  0.00    +0.000 OA
BRANCH  32  34
ATOM     33  O   UNL     1     111.146 129.152 139.362  0.00  0.00    +0.000 OA
ATOM     34  C   UNL     1     111.298 129.788 138.859  0.00  0.00    +0.000 C 
BRANCH  34  35
ATOM     35  C   UNL     1     111.880 130.338 139.054  0.00  0.00    +0.000 C 
BRANCH  35  37
ATOM     36  O   UNL     1     112.730 130.605 138.301  0.00  0.00    +0.000 OA
ATOM     37  C   UNL     1     112.678 130.140 138.979  0.00  0.00    +0.000 C 
ATOM     38  C   UNL     1     112.625 129.674 139.658  0.00  0.00    +0.000 C 
BRANCH  37  39
ATOM     39  C   UNL     1     113.475 129.941 138.905  0.00  0.00    +0.000 C 
BRANCH  39  42
ATOM     40  O   UNL     1     114.383 130.738 138.143  0.00  0.00    +0.000 OA
ATOM     41  O   UNL     1     114.279 130.927 139.556  0.00  0.00    +0.000 OA
ATOM     42  C   UNL     1     114.046 130.535 138.868  0.00  0.00    +0.000 C 
ENDBRANCH  39  42
ENDBRANCH  37  39
ENDBRANCH  35  37
ENDBRANCH  34  35
ENDBRANCH  32  34
ENDBRANCH  31  32
ENDBRANCH  28  31
ENDBRANCH   1  30
TORSDOF 10
ENDMDL
MODEL 2
REMARK VINA RESULT:      -9.1      1.988      2.673
REMARK  Name = 42607854
REMARK  10 active torsions:
REMARK  status: ('A' for Active; 'I' for Inactive)
REMARK    1  A    between atoms: O_2  and  C_18
REMARK    2  A    between atoms: O_2  and  C_20
REMARK    3  A    between atoms: O_6  and  C_19
REMARK    4  A    between atoms: O_6  and  C_31
REMARK    5  A    between atoms: C_16  and  C_19
REMARK    6  A    between atoms: C_25  and  C_34
REMARK    7  A    between atoms: C_29  and  C_30
REMARK    8  A    between atoms: C_29  and  C_35
REMARK    9  A    between atoms: C_30  and  C_31
REMARK   10  A    between atoms: C_35  and  C_39
REMARK                            x       y       z     vdW  Elec       q    Type
REMARK                         _______ _______ _______ _____ _____    ______ ____
ROOT
ATOM      1  O   UNL     1     110.778 128.355 135.127  0.00  0.00    +0.000 OA
ENDROOT
BRANCH   1   5
ATOM      2  O   UNL     1     112.567 126.390 136.241  0.00  0.00    +0.000 OA
ATOM      3  O   UNL     1     109.958 125.620 135.249  0.00  0.00    +0.000 OA
ATOM      4  O   UNL     1     110.825 124.605 135.799  0.00  0.00    +0.000 OA
ATOM      5  C   UNL     1     110.934 127.571 135.331  0.00  0.00    +0.000 A 
ATOM      6  C   UNL     1     111.656 127.370 135.677  0.00  0.00    +0.000 A 
ATOM      7  C   UNL     1     110.369 126.987 135.188  0.00  0.00    +0.000 A 
ATOM      8  C   UNL     1     111.811 126.586 135.881  0.00  0.00    +0.000 A 
ATOM      9  C   UNL     1     111.245 126.003 135.738  0.00  0.00    +0.000 A 
ATOM     10  C   UNL     1     112.735 125.575 136.455  0.00  0.00    +0.000 C 
ATOM     11  C   UNL     1     110.525 126.203 135.392  0.00  0.00    +0.000 A 
ATOM     12  C   UNL     1     112.146 124.967 136.307  0.00  0.00    +0.000 C 
ATOM     13  C   UNL     1     111.396 125.183 135.946  0.00  0.00    +0.000 C 
ATOM     14  C   UNL     1     112.221 127.954 135.820  0.00  0.00    +0.000 C 
ATOM     15  C   UNL     1     109.647 127.188 134.842  0.00  0.00    +0.000 C 
BRANCH  10  16
ATOM     16  C   UNL     1     113.457 125.377 136.801  0.00  0.00    +0.000 A 
ATOM     17  C   UNL     1     113.579 125.510 137.607  0.00  0.00    +0.000 A 
ATOM     18  C   UNL     1     114.058 125.047 136.343  0.00  0.00    +0.000 A 
ATOM     19  C   UNL     1     114.301 125.312 137.953  0.00  0.00    +0.000 A 
ATOM     20  C   UNL     1     114.780 124.849 136.688  0.00  0.00    +0.000 A 
ATOM     21  C   UNL     1     114.901 124.981 137.493  0.00  0.00    +0.000 A 
ENDBRANCH  10  16
ENDBRANCH   1   5
BRANCH   1  30
ATOM     22  O   UNL     1     110.183 128.570 136.409  0.00  0.00    +0.000 OA
ATOM     23  O   UNL     1     109.249 130.344 137.271  0.00  0.00    +0.000 OA
ATOM     24  O   UNL     1     109.673 130.909 135.780  0.00  0.00    +0.000 OA
ATOM     25  O   UNL     1     110.438 129.914 134.708  0.00  0.00    +0.000 OA
ATOM     26  C   UNL     1     109.631 129.846 136.735  0.00  0.00    +0.000 C 
ATOM     27  C   UNL     1     109.843 130.129 135.989  0.00  0.00    +0.000 C 
ATOM     28  C   UNL     1     109.801 129.066 136.944  0.00  0.00    +0.000 C 
ATOM     29  C   UNL     1     110.226 129.631 135.453  0.00  0.00    +0.000 C 
ATOM     30  C   UNL     1     110.396 128.852 135.663  0.00  0.00    +0.000 C 
BRANCH  28  31
ATOM     31  C   UNL     1     109.589 128.785 137.690  0.00  0.00    +0.000 C 
BRANCH  31  32
ATOM     32  O   UNL     1     110.162 128.468 138.191  0.00  0.00    +0.000 OA
BRANCH  32  34
ATOM     33  O   UNL     1     109.269 127.493 138.733  0.00  0.00    +0.000 OA
ATOM     34  C   UNL     1     109.941 127.966 138.807  0.00  0.00    +0.000 C 
BRANCH  34  35
ATOM     35  C   UNL     1     110.391 127.937 139.498  0.00  0.00    +0.000 C 
BRANCH  35  37
ATOM     36  O   UNL     1     111.468 127.515 139.347  0.00  0.00    +0.000 OA
ATOM     37  C   UNL     1     110.780 127.241 139.708  0.00  0.00    +0.000 C 
ATOM     38  C   UNL     1     110.090 126.966 140.071  0.00  0.00    +0.000 C 
BRANCH  37  39
ATOM     39  C   UNL     1     111.168 126.544 139.920  0.00  0.00    +0.000 C 
BRANCH  39  42
ATOM     40  O   UNL     1     112.376 126.804 140.638  0.00  0.00    +0.000 OA
ATOM     41  O   UNL     1     111.268 126.189 141.300  0.00  0.00    +0.000 OA
ATOM     42  C   UNL     1     111.603 126.512 140.619  0.00  0.00    +0.000 C 
ENDBRANCH  39  42
ENDBRANCH  37  39
ENDBRANCH  35  37
ENDBRANCH  34  35
ENDBRANCH  32  34
ENDBRANCH  31  32
ENDBRANCH  28  31
ENDBRANCH   1  30
TORSDOF 10
ENDMDL
MODEL 3
REMARK VINA RESULT:      -8.9      2.064      4.389
REMARK  Name = 42607854
REMARK  10 active torsions:
REMARK  status: ('A' for Active; 'I' for Inactive)
REMARK    1  A    between atoms: O_2  and  C_18
REMARK    2  A    between atoms: O_2  and  C_20
REMARK    3  A    between atoms: O_6  and  C_19
REMARK    4  A    between atoms: O_6  and  C_31
REMARK    5  A    between atoms: C_16  and  C_19
REMARK    6  A    between atoms: C_25  and  C_34
REMARK    7  A    between atoms: C_29  and  C_30
REMARK    8  A    between atoms: C_29  and  C_35
REMARK    9  A    between atoms: C_30  and  C_31
REMARK   10  A    between atoms: C_35  and  C_39
REMARK                            x       y       z     vdW  Elec       q    Type
REMARK                         _______ _______ _______ _____ _____    ______ ____
ROOT
ATOM      1  O   UNL     1     112.540 127.526 141.282  0.00  0.00    +0.000 OA
ENDROOT
BRANCH   1   5
ATOM      2  O   UNL     1     113.359 126.271 138.820  0.00  0.00    +0.000 OA
ATOM      3  O   UNL     1     110.566 126.352 139.580  0.00  0.00    +0.000 OA
ATOM      4  O   UNL     1     110.935 125.714 138.339  0.00  0.00    +0.000 OA
ATOM      5  C   UNL     1     112.342 127.121 140.590  0.00  0.00    +0.000 A 
ATOM      6  C   UNL     1     112.933 126.900 140.058  0.00  0.00    +0.000 A 
ATOM      7  C   UNL     1     111.554 126.939 140.431  0.00  0.00    +0.000 A 
ATOM      8  C   UNL     1     112.734 126.496 139.366  0.00  0.00    +0.000 A 
ATOM      9  C   UNL     1     111.945 126.313 139.208  0.00  0.00    +0.000 A 
ATOM     10  C   UNL     1     113.158 125.850 138.099  0.00  0.00    +0.000 C 
ATOM     11  C   UNL     1     111.355 126.534 139.739  0.00  0.00    +0.000 A 
ATOM     12  C   UNL     1     112.337 125.659 137.932  0.00  0.00    +0.000 C 
ATOM     13  C   UNL     1     111.726 125.893 138.491  0.00  0.00    +0.000 C 
ATOM     14  C   UNL     1     113.721 127.083 140.218  0.00  0.00    +0.000 C 
ATOM     15  C   UNL     1     110.963 127.160 140.963  0.00  0.00    +0.000 C 
BRANCH  10  16
ATOM     16  C   UNL     1     113.750 125.629 137.568  0.00  0.00    +0.000 A 
ATOM     17  C   UNL     1     113.921 126.108 136.918  0.00  0.00    +0.000 A 
ATOM     18  C   UNL     1     114.172 124.931 137.688  0.00  0.00    +0.000 A 
ATOM     19  C   UNL     1     114.513 125.888 136.388  0.00  0.00    +0.000 A 
ATOM     20  C   UNL     1     114.765 124.710 137.159  0.00  0.00    +0.000 A 
ATOM     21  C   UNL     1     114.935 125.188 136.508  0.00  0.00    +0.000 A 
ENDBRANCH  10  16
ENDBRANCH   1   5
BRANCH   1  30
ATOM     22  O   UNL     1     112.611 128.780 140.602  0.00  0.00    +0.000 OA
ATOM     23  O   UNL     1     112.441 130.823 141.351  0.00  0.00    +0.000 OA
ATOM     24  O   UNL     1     112.249 129.963 142.746  0.00  0.00    +0.000 OA
ATOM     25  O   UNL     1     112.299 128.314 142.711  0.00  0.00    +0.000 OA
ATOM     26  C   UNL     1     112.466 129.998 141.334  0.00  0.00    +0.000 C 
ATOM     27  C   UNL     1     112.370 129.569 142.031  0.00  0.00    +0.000 C 
ATOM     28  C   UNL     1     112.587 129.604 140.619  0.00  0.00    +0.000 C 
ATOM     29  C   UNL     1     112.395 128.743 142.014  0.00  0.00    +0.000 C 
ATOM     30  C   UNL     1     112.515 128.349 141.299  0.00  0.00    +0.000 C 
BRANCH  28  31
ATOM     31  C   UNL     1     112.683 130.035 139.922  0.00  0.00    +0.000 C 
BRANCH  31  32
ATOM     32  O   UNL     1     112.211 129.870 139.266  0.00  0.00    +0.000 OA
BRANCH  32  34
ATOM     33  O   UNL     1     112.349 130.997 138.398  0.00  0.00    +0.000 OA
ATOM     34  C   UNL     1     112.406 130.184 138.528  0.00  0.00    +0.000 C 
BRANCH  34  35
ATOM     35  C   UNL     1     112.656 129.686 137.921  0.00  0.00    +0.000 C 
BRANCH  35  37
ATOM     36  O   UNL     1     111.601 129.343 137.557  0.00  0.00    +0.000 OA
ATOM     37  C   UNL     1     112.259 129.685 137.197  0.00  0.00    +0.000 C 
ATOM     38  C   UNL     1     112.918 130.027 136.836  0.00  0.00    +0.000 C 
BRANCH  37  39
ATOM     39  C   UNL     1     111.864 129.685 136.473  0.00  0.00    +0.000 C 
BRANCH  39  42
ATOM     40  O   UNL     1     111.318 128.433 136.051  0.00  0.00    +0.000 OA
ATOM     41  O   UNL     1     112.506 128.939 135.437  0.00  0.00    +0.000 OA
ATOM     42  C   UNL     1     111.896 129.019 135.987  0.00  0.00    +0.000 C 
ENDBRANCH  39  42
ENDBRANCH  37  39
ENDBRANCH  35  37
ENDBRANCH  34  35
ENDBRANCH  32  34
ENDBRANCH  31  32
ENDBRANCH  28  31
ENDBRANCH   1  30
TORSDOF 10
ENDMDL
MODEL 4
REMARK VINA RESULT:      -8.9      1.901      3.352
REMARK  Name = 42607854
REMARK  10 active torsions:
REMARK  status: ('A' for Active; 'I' for Inactive)
REMARK    1  A    between atoms: O_2  and  C_18
REMARK    2  A    between atoms: O_2  and  C_20
REMARK    3  A    between atoms: O_6  and  C_19
REMARK    4  A    between atoms: O_6  and  C_31
REMARK    5  A    between atoms: C_16  and  C_19
REMARK    6  A    between atoms: C_25  and  C_34
REMARK    7  A    between atoms: C_29  and  C_30
REMARK    8  A    between atoms: C_29  and  C_35
REMARK    9  A    between atoms: C_30  and  C_31
REMARK   10  A    between atoms: C_35  and  C_39
REMARK                            x       y       z     vdW  Elec       q    Type
REMARK                         _______ _______ _______ _____ _____    ______ ____
ROOT
ATOM      1  O   UNL     1     112.458 129.196 135.797  0.00  0.00    +0.000 OA
ENDROOT
BRANCH   1   5
ATOM      2  O   UNL     1     112.227 126.357 136.235  0.00  0.00    +0.000 OA
ATOM      3  O   UNL     1     110.276 127.767 134.627  0.00  0.00    +0.000 OA
ATOM      4  O   UNL     1     110.125 126.345 134.823  0.00  0.00    +0.000 OA
ATOM      5  C   UNL     1     112.052 128.488 135.672  0.00  0.00    +0.000 A 
ATOM      6  C   UNL     1     112.332 127.787 136.007  0.00  0.00    +0.000 A 
ATOM      7  C   UNL     1     111.367 128.481 135.212  0.00  0.00    +0.000 A 
ATOM      8  C   UNL     1     111.926 127.080 135.881  0.00  0.00    +0.000 A 
ATOM      9  C   UNL     1     111.241 127.074 135.421  0.00  0.00    +0.000 A 
ATOM     10  C   UNL     1     111.809 125.617 136.108  0.00  0.00    +0.000 C 
ATOM     11  C   UNL     1     110.962 127.773 135.087  0.00  0.00    +0.000 A 
ATOM     12  C   UNL     1     111.095 125.610 135.629  0.00  0.00    +0.000 C 
ATOM     13  C   UNL     1     110.810 126.343 135.284  0.00  0.00    +0.000 C 
ATOM     14  C   UNL     1     113.017 127.795 136.466  0.00  0.00    +0.000 C 
ATOM     15  C   UNL     1     111.088 129.182 134.878  0.00  0.00    +0.000 C 
BRANCH  10  16
ATOM     16  C   UNL     1     112.090 124.918 136.444  0.00  0.00    +0.000 A 
ATOM     17  C   UNL     1     111.612 124.486 136.959  0.00  0.00    +0.000 A 
ATOM     18  C   UNL     1     112.850 124.651 136.265  0.00  0.00    +0.000 A 
ATOM     19  C   UNL     1     111.894 123.787 137.295  0.00  0.00    +0.000 A 
ATOM     20  C   UNL     1     113.132 123.953 136.600  0.00  0.00    +0.000 A 
ATOM     21  C   UNL     1     112.654 123.520 137.115  0.00  0.00    +0.000 A 
ENDBRANCH  10  16
ENDBRANCH   1   5
BRANCH   1  30
ATOM     22  O   UNL     1     111.630 129.475 136.928  0.00  0.00    +0.000 OA
ATOM     23  O   UNL     1     111.721 131.081 138.403  0.00  0.00    +0.000 OA
ATOM     24  O   UNL     1     113.008 131.465 137.445  0.00  0.00    +0.000 OA
ATOM     25  O   UNL     1     113.377 130.522 136.142  0.00  0.00    +0.000 OA
ATOM     26  C   UNL     1     111.905 130.609 137.751  0.00  0.00    +0.000 C 
ATOM     27  C   UNL     1     112.549 130.802 137.272  0.00  0.00    +0.000 C 
ATOM     28  C   UNL     1     111.446 129.946 137.579  0.00  0.00    +0.000 C 
ATOM     29  C   UNL     1     112.733 130.330 136.620  0.00  0.00    +0.000 C 
ATOM     30  C   UNL     1     112.274 129.667 136.448  0.00  0.00    +0.000 C 
BRANCH  28  31
ATOM     31  C   UNL     1     110.802 129.755 138.059  0.00  0.00    +0.000 C 
BRANCH  31  32
ATOM     32  O   UNL     1     110.762 129.015 138.419  0.00  0.00    +0.000 OA
BRANCH  32  34
ATOM     33  O   UNL     1     109.334 128.999 138.359  0.00  0.00    +0.000 OA
ATOM     34  C   UNL     1     110.038 128.727 138.693  0.00  0.00    +0.000 C 
BRANCH  34  35
ATOM     35  C   UNL     1     110.018 128.169 139.299  0.00  0.00    +0.000 C 
BRANCH  35  37
ATOM     36  O   UNL     1     109.095 127.578 138.900  0.00  0.00    +0.000 OA
ATOM     37  C   UNL     1     109.861 127.377 139.127  0.00  0.00    +0.000 C 
ATOM     38  C   UNL     1     110.629 127.177 139.355  0.00  0.00    +0.000 C 
BRANCH  37  39
ATOM     39  C   UNL     1     109.706 126.586 138.956  0.00  0.00    +0.000 C 
BRANCH  39  42
ATOM     40  O   UNL     1     110.026 125.611 139.951  0.00  0.00    +0.000 OA
ATOM     41  O   UNL     1     108.670 126.025 139.765  0.00  0.00    +0.000 OA
ATOM     42  C   UNL     1     109.467 126.074 139.557  0.00  0.00    +0.000 C 
ENDBRANCH  39  42
ENDBRANCH  37  39
ENDBRANCH  35  37
ENDBRANCH  34  35
ENDBRANCH  32  34
ENDBRANCH  31  32
ENDBRANCH  28  31
ENDBRANCH   1  30
TORSDOF 10
ENDMDL
MODEL 5
REMARK VINA RESULT:      -8.8      1.603      3.959
REMARK  Name = 42607854
REMARK  10 active torsions:
REMARK  status: ('A' for Active; 'I' for Inactive)
REMARK    1  A    between atoms: O_2  and  C_18
REMARK    2  A    between atoms: O_2  and  C_20
REMARK    3  A    between atoms: O_6  and  C_19
REMARK    4  A    between atoms: O_6  and  C_31
REMARK    5  A    between atoms: C_16  and  C_19
REMARK    6  A    between atoms: C_25  and  C_34
REMARK    7  A    between atoms: C_29  and  C_30
REMARK    8  A    between atoms: C_29  and  C_35
REMARK    9  A    between atoms: C_30  and  C_31
REMARK   10  A    between atoms: C_35  and  C_39
REMARK                            x       y       z     vdW  Elec       q    Type
REMARK                         _______ _______ _______ _____ _____    ______ ____
ROOT
ATOM      1  O   UNL     1     112.763 129.963 138.019  0.00  0.00    +0.000 OA
ENDROOT
BRANCH   1   5
ATOM      2  O   UNL     1     113.289 127.137 137.811  0.00  0.00    +0.000 OA
ATOM      3  O   UNL     1     112.167 128.257 140.233  0.00  0.00    +0.000 OA
ATOM      4  O   UNL     1     112.415 126.837 140.169  0.00  0.00    +0.000 OA
ATOM      5  C   UNL     1     112.749 129.211 138.358  0.00  0.00    +0.000 A 
ATOM      6  C   UNL     1     113.019 128.559 137.929  0.00  0.00    +0.000 A 
ATOM      7  C   UNL     1     112.465 129.109 139.126  0.00  0.00    +0.000 A 
ATOM      8  C   UNL     1     113.005 127.807 138.268  0.00  0.00    +0.000 A 
ATOM      9  C   UNL     1     112.721 127.707 139.036  0.00  0.00    +0.000 A 
ATOM     10  C   UNL     1     113.277 126.352 138.159  0.00  0.00    +0.000 C 
ATOM     11  C   UNL     1     112.451 128.357 139.465  0.00  0.00    +0.000 A 
ATOM     12  C   UNL     1     112.981 126.246 138.959  0.00  0.00    +0.000 C 
ATOM     13  C   UNL     1     112.701 126.929 139.400  0.00  0.00    +0.000 C 
ATOM     14  C   UNL     1     113.303 128.661 137.161  0.00  0.00    +0.000 C 
ATOM     15  C   UNL     1     112.195 129.761 139.555  0.00  0.00    +0.000 C 
BRANCH  10  16
ATOM     16  C   UNL     1     113.548 125.703 137.728  0.00  0.00    +0.000 A 
ATOM     17  C   UNL     1     113.016 125.247 137.291  0.00  0.00    +0.000 A 
ATOM     18  C   UNL     1     114.350 125.510 137.732  0.00  0.00    +0.000 A 
ATOM     19  C   UNL     1     113.287 124.597 136.860  0.00  0.00    +0.000 A 
ATOM     20  C   UNL     1     114.621 124.861 137.302  0.00  0.00    +0.000 A 
ATOM     21  C   UNL     1     114.089 124.405 136.866  0.00  0.00    +0.000 A 
ENDBRANCH  10  16
ENDBRANCH   1   5
BRANCH   1  30
ATOM     22  O   UNL     1     111.455 129.762 137.481  0.00  0.00    +0.000 OA
ATOM     23  O   UNL     1     110.062 131.162 136.551  0.00  0.00    +0.000 OA
ATOM     24  O   UNL     1     111.328 132.163 136.894  0.00  0.00    +0.000 OA
ATOM     25  O   UNL     1     112.679 131.564 137.628  0.00  0.00    +0.000 OA
ATOM     26  C   UNL     1     110.738 130.862 136.918  0.00  0.00    +0.000 C 
ATOM     27  C   UNL     1     111.371 131.363 137.089  0.00  0.00    +0.000 C 
ATOM     28  C   UNL     1     110.780 130.062 137.114  0.00  0.00    +0.000 C 
ATOM     29  C   UNL     1     112.046 131.063 137.457  0.00  0.00    +0.000 C 
ATOM     30  C   UNL     1     112.089 130.262 137.653  0.00  0.00    +0.000 C 
BRANCH  28  31
ATOM     31  C   UNL     1     110.147 129.561 136.942  0.00  0.00    +0.000 C 
BRANCH  31  32
ATOM     32  O   UNL     1     110.276 128.854 136.539  0.00  0.00    +0.000 OA
BRANCH  32  34
ATOM     33  O   UNL     1     109.188 128.151 137.142  0.00  0.00    +0.000 OA
ATOM     34  C   UNL     1     109.677 128.289 136.492  0.00  0.00    +0.000 C 
BRANCH  34  35
ATOM     35  C   UNL     1     109.565 127.863 135.795  0.00  0.00    +0.000 C 
BRANCH  35  37
ATOM     36  O   UNL     1     110.493 127.192 135.572  0.00  0.00    +0.000 OA
ATOM     37  C   UNL     1     109.708 127.051 135.780  0.00  0.00    +0.000 C 
ATOM     38  C   UNL     1     108.922 126.909 135.989  0.00  0.00    +0.000 C 
BRANCH  37  39
ATOM     39  C   UNL     1     109.850 126.238 135.766  0.00  0.00    +0.000 C 
BRANCH  39  42
ATOM     40  O   UNL     1     110.671 125.654 134.753  0.00  0.00    +0.000 OA
ATOM     41  O   UNL     1     109.249 125.646 134.612  0.00  0.00    +0.000 OA
ATOM     42  C   UNL     1     109.923 125.846 135.044  0.00  0.00    +0.000 C 
ENDBRANCH  39  42
ENDBRANCH  37  39
ENDBRANCH  35  37
ENDBRANCH  34  35
ENDBRANCH  32  34
ENDBRANCH  31  32
ENDBRANCH  28  31
ENDBRANCH   1  30
TORSDOF 10
ENDMDL
MODEL 6
REMARK VINA RESULT:      -8.8      1.607      3.786
REMARK  Name = 42607854
REMARK  10 active torsions:
REMARK  status: ('A' for Active; 'I' for Inactive)
REMARK    1  A    between atoms: O_2  and  C_18
REMARK    2  A    between atoms: O_2  and  C_20
REMARK    3  A    between atoms: O_6  and  C_19
REMARK    4  A    between atoms: O_6  and  C_31
REMARK    5  A    between atoms: C_16  and  C_19
REMARK    6  A    between atoms: C_25  and  C_34
REMARK    7  A    between atoms: C_29  and  C_30
REMARK    8  A    between atoms: C_29  and  C_35
REMARK    9  A    between atoms: C_30  and  C_31
REMARK   10  A    between atoms: C_35  and  C_39
REMARK                            x       y       z     vdW  Elec       q    Type
REMARK                         _______ _______ _______ _____ _____    ______ ____
ROOT
ATOM      1  O   UNL     1     110.095 129.530 137.022  0.00  0.00    +0.000 OA
ENDROOT
BRANCH   1   5
ATOM      2  O   UNL     1     112.850 129.835 136.234  0.00  0.00    +0.000 OA
ATOM      3  O   UNL     1     112.162 129.097 138.948  0.00  0.00    +0.000 OA
ATOM      4  O   UNL     1     113.554 129.240 138.593  0.00  0.00    +0.000 OA
ATOM      5  C   UNL     1     110.896 129.507 137.217  0.00  0.00    +0.000 A 
ATOM      6  C   UNL     1     111.465 129.678 136.644  0.00  0.00    +0.000 A 
ATOM      7  C   UNL     1     111.129 129.314 137.985  0.00  0.00    +0.000 A 
ATOM      8  C   UNL     1     112.267 129.655 136.839  0.00  0.00    +0.000 A 
ATOM      9  C   UNL     1     112.499 129.461 137.607  0.00  0.00    +0.000 A 
ATOM     10  C   UNL     1     113.685 129.813 136.431  0.00  0.00    +0.000 C 
ATOM     11  C   UNL     1     111.930 129.291 138.180  0.00  0.00    +0.000 A 
ATOM     12  C   UNL     1     113.928 129.611 137.231  0.00  0.00    +0.000 C 
ATOM     13  C   UNL     1     113.330 129.434 137.823  0.00  0.00    +0.000 C 
ATOM     14  C   UNL     1     111.233 129.871 135.877  0.00  0.00    +0.000 C 
ATOM     15  C   UNL     1     110.559 129.143 138.557  0.00  0.00    +0.000 C 
BRANCH  10  16
ATOM     16  C   UNL     1     114.252 129.984 135.857  0.00  0.00    +0.000 A 
ATOM     17  C   UNL     1     114.443 129.421 135.285  0.00  0.00    +0.000 A 
ATOM     18  C   UNL     1     114.628 130.718 135.854  0.00  0.00    +0.000 A 
ATOM     19  C   UNL     1     115.010 129.592 134.711  0.00  0.00    +0.000 A 
ATOM     20  C   UNL     1     115.195 130.890 135.280  0.00  0.00    +0.000 A 
ATOM     21  C   UNL     1     115.386 130.327 134.709  0.00  0.00    +0.000 A 
ENDBRANCH  10  16
ENDBRANCH   1   5
BRANCH   1  30
ATOM     22  O   UNL     1     110.073 128.118 136.799  0.00  0.00    +0.000 OA
ATOM     23  O   UNL     1     108.628 126.858 135.755  0.00  0.00    +0.000 OA
ATOM     24  O   UNL     1     107.939 128.346 135.567  0.00  0.00    +0.000 OA
ATOM     25  O   UNL     1     108.672 129.681 136.201  0.00  0.00    +0.000 OA
ATOM     26  C   UNL     1     108.995 127.527 136.072  0.00  0.00    +0.000 C 
ATOM     27  C   UNL     1     108.650 128.270 135.978  0.00  0.00    +0.000 C 
ATOM     28  C   UNL     1     109.707 127.451 136.483  0.00  0.00    +0.000 C 
ATOM     29  C   UNL     1     109.017 128.938 136.295  0.00  0.00    +0.000 C 
ATOM     30  C   UNL     1     109.729 128.862 136.706  0.00  0.00    +0.000 C 
BRANCH  28  31
ATOM     31  C   UNL     1     110.051 126.707 136.576  0.00  0.00    +0.000 C 
BRANCH  31  32
ATOM     32  O   UNL     1     110.828 126.577 136.331  0.00  0.00    +0.000 OA
BRANCH  32  34
ATOM     33  O   UNL     1     110.965 125.485 137.242  0.00  0.00    +0.000 OA
ATOM     34  C   UNL     1     111.236 125.908 136.588  0.00  0.00    +0.000 C 
BRANCH  34  35
ATOM     35  C   UNL     1     111.916 125.662 136.191  0.00  0.00    +0.000 C 
BRANCH  35  37
ATOM     36  O   UNL     1     112.825 126.393 136.195  0.00  0.00    +0.000 OA
ATOM     37  C   UNL     1     112.647 125.682 136.572  0.00  0.00    +0.000 C 
ATOM     38  C   UNL     1     112.469 124.970 136.950  0.00  0.00    +0.000 C 
BRANCH  37  39
ATOM     39  C   UNL     1     113.378 125.702 136.954  0.00  0.00    +0.000 C 
BRANCH  39  42
ATOM     40  O   UNL     1     114.251 124.833 136.230  0.00  0.00    +0.000 OA
ATOM     41  O   UNL     1     114.584 126.215 136.383  0.00  0.00    +0.000 OA
ATOM     42  C   UNL     1     114.071 125.584 136.522  0.00  0.00    +0.000 C 
ENDBRANCH  39  42
ENDBRANCH  37  39
ENDBRANCH  35  37
ENDBRANCH  34  35
ENDBRANCH  32  34
ENDBRANCH  31  32
ENDBRANCH  28  31
ENDBRANCH   1  30
TORSDOF 10
ENDMDL
MODEL 7
REMARK VINA RESULT:      -8.8      1.307      2.226
REMARK  Name = 42607854
REMARK  10 active torsions:
REMARK  status: ('A' for Active; 'I' for Inactive)
REMARK    1  A    between atoms: O_2  and  C_18
REMARK    2  A    between atoms: O_2  and  C_20
REMARK    3  A    between atoms: O_6  and  C_19
REMARK    4  A    between atoms: O_6  and  C_31
REMARK    5  A    between atoms: C_16  and  C_19
REMARK    6  A    between atoms: C_25  and  C_34
REMARK    7  A    between atoms: C_29  and  C_30
REMARK    8  A    between atoms: C_29  and  C_35
REMARK    9  A    between atoms: C_30  and  C_31
REMARK   10  A    between atoms: C_35  and  C_39
REMARK                            x       y       z     vdW  Elec       q    Type
REMARK                         _______ _______ _______ _____ _____    ______ ____
ROOT
ATOM      1  O   UNL     1     109.640 127.972 136.916  0.00  0.00    +0.000 OA
ENDROOT
BRANCH   1   5
ATOM      2  O   UNL     1     112.107 126.499 137.135  0.00  0.00    +0.000 OA
ATOM      3  O   UNL     1     110.970 127.829 139.441  0.00  0.00    +0.000 OA
ATOM      4  O   UNL     1     112.207 127.101 139.593  0.00  0.00    +0.000 OA
ATOM      5  C   UNL     1     110.269 127.706 137.378  0.00  0.00    +0.000 A 
ATOM      6  C   UNL     1     110.864 127.245 137.038  0.00  0.00    +0.000 A 
ATOM      7  C   UNL     1     110.305 127.900 138.178  0.00  0.00    +0.000 A 
ATOM      8  C   UNL     1     111.494 126.978 137.500  0.00  0.00    +0.000 A 
ATOM      9  C   UNL     1     111.529 127.173 138.301  0.00  0.00    +0.000 A 
ATOM     10  C   UNL     1     112.764 126.219 137.611  0.00  0.00    +0.000 C 
ATOM     11  C   UNL     1     110.935 127.634 138.640  0.00  0.00    +0.000 A 
ATOM     12  C   UNL     1     112.802 126.421 138.445  0.00  0.00    +0.000 C 
ATOM     13  C   UNL     1     112.179 126.902 138.792  0.00  0.00    +0.000 C 
ATOM     14  C   UNL     1     110.828 127.050 136.237  0.00  0.00    +0.000 C 
ATOM     15  C   UNL     1     109.711 128.362 138.518  0.00  0.00    +0.000 C 
BRANCH  10  16
ATOM     16  C   UNL     1     113.357 125.758 137.269  0.00  0.00    +0.000 A 
ATOM     17  C   UNL     1     113.998 126.120 136.896  0.00  0.00    +0.000 A 
ATOM     18  C   UNL     1     113.310 124.935 137.301  0.00  0.00    +0.000 A 
ATOM     19  C   UNL     1     114.591 125.659 136.554  0.00  0.00    +0.000 A 
ATOM     20  C   UNL     1     113.902 124.473 136.960  0.00  0.00    +0.000 A 
ATOM     21  C   UNL     1     114.542 124.836 136.586  0.00  0.00    +0.000 A 
ENDBRANCH  10  16
ENDBRANCH   1   5
BRANCH   1  30
ATOM     22  O   UNL     1     110.403 129.112 136.514  0.00  0.00    +0.000 OA
ATOM     23  O   UNL     1     109.827 130.898 135.400  0.00  0.00    +0.000 OA
ATOM     24  O   UNL     1     108.393 130.082 135.445  0.00  0.00    +0.000 OA
ATOM     25  O   UNL     1     108.300 128.619 136.203  0.00  0.00    +0.000 OA
ATOM     26  C   UNL     1     109.780 130.166 135.779  0.00  0.00    +0.000 C 
ATOM     27  C   UNL     1     109.063 129.758 135.801  0.00  0.00    +0.000 C 
ATOM     28  C   UNL     1     110.450 129.842 136.136  0.00  0.00    +0.000 C 
ATOM     29  C   UNL     1     109.017 129.027 136.181  0.00  0.00    +0.000 C 
ATOM     30  C   UNL     1     109.687 128.703 136.537  0.00  0.00    +0.000 C 
BRANCH  28  31
ATOM     31  C   UNL     1     111.167 130.251 136.113  0.00  0.00    +0.000 C 
BRANCH  31  32
ATOM     32  O   UNL     1     111.565 130.425 136.813  0.00  0.00    +0.000 OA
BRANCH  32  34
ATOM     33  O   UNL     1     112.836 130.305 136.170  0.00  0.00    +0.000 OA
ATOM     34  C   UNL     1     112.377 130.574 136.801  0.00  0.00    +0.000 C 
BRANCH  34  35
ATOM     35  C   UNL     1     112.730 130.991 137.418  0.00  0.00    +0.000 C 
BRANCH  35  37
ATOM     36  O   UNL     1     112.550 130.696 138.533  0.00  0.00    +0.000 OA
ATOM     37  C   UNL     1     113.165 130.589 137.993  0.00  0.00    +0.000 C 
ATOM     38  C   UNL     1     113.779 130.483 137.452  0.00  0.00    +0.000 C 
BRANCH  37  39
ATOM     39  C   UNL     1     113.600 130.188 138.567  0.00  0.00    +0.000 C 
BRANCH  39  42
ATOM     40  O   UNL     1     114.473 131.013 139.341  0.00  0.00    +0.000 OA
ATOM     41  O   UNL     1     113.283 130.482 139.929  0.00  0.00    +0.000 OA
ATOM     42  C   UNL     1     113.785 130.561 139.279  0.00  0.00    +0.000 C 
ENDBRANCH  39  42
ENDBRANCH  37  39
ENDBRANCH  35  37
ENDBRANCH  34  35
ENDBRANCH  32  34
ENDBRANCH  31  32
ENDBRANCH  28  31
ENDBRANCH   1  30
TORSDOF 10
ENDMDL
MODEL 8
REMARK VINA RESULT:      -8.8      2.307      4.271
REMARK  Name = 42607854
REMARK  10 active torsions:
REMARK  status: ('A' for Active; 'I' for Inactive)
REMARK    1  A    between atoms: O_2  and  C_18
REMARK    2  A    between atoms: O_2  and  C_20
REMARK    3  A    between atoms: O_6  and  C_19
REMARK    4  A    between atoms: O_6  and  C_31
REMARK    5  A    between atoms: C_16  and  C_19
REMARK    6  A    between atoms: C_25  and  C_34
REMARK    7  A    between atoms: C_29  and  C_30
REMARK    8  A    between atoms: C_29  and  C_35
REMARK    9  A    between atoms: C_30  and  C_31
REMARK   10  A    between atoms: C_35  and  C_39
REMARK                            x       y       z     vdW  Elec       q    Type
REMARK                         _______ _______ _______ _____ _____    ______ ____
ROOT
ATOM      1  O   UNL     1     112.441 127.448 140.450  0.00  0.00    +0.000 OA
ENDROOT
BRANCH   1   5
ATOM      2  O   UNL     1     111.926 126.397 137.816  0.00  0.00    +0.000 OA
ATOM      3  O   UNL     1     114.537 126.116 139.035  0.00  0.00    +0.000 OA
ATOM      4  O   UNL     1     114.319 125.576 137.714  0.00  0.00    +0.000 OA
ATOM      5  C   UNL     1     112.710 127.051 139.779  0.00  0.00    +0.000 A 
ATOM      6  C   UNL     1     112.199 126.922 139.143  0.00  0.00    +0.000 A 
ATOM      7  C   UNL     1     113.489 126.782 139.742  0.00  0.00    +0.000 A 
ATOM      8  C   UNL     1     112.468 126.525 138.471  0.00  0.00    +0.000 A 
ATOM      9  C   UNL     1     113.247 126.256 138.436  0.00  0.00    +0.000 A 
ATOM     10  C   UNL     1     112.200 125.984 137.115  0.00  0.00    +0.000 C 
ATOM     11  C   UNL     1     113.757 126.385 139.070  0.00  0.00    +0.000 A 
ATOM     12  C   UNL     1     113.012 125.704 137.077  0.00  0.00    +0.000 C 
ATOM     13  C   UNL     1     113.538 125.841 137.742  0.00  0.00    +0.000 C 
ATOM     14  C   UNL     1     111.420 127.191 139.180  0.00  0.00    +0.000 C 
ATOM     15  C   UNL     1     114.000 126.911 140.378  0.00  0.00    +0.000 C 
BRANCH  10  16
ATOM     16  C   UNL     1     111.687 125.857 136.481  0.00  0.00    +0.000 A 
ATOM     17  C   UNL     1     111.346 125.114 136.369  0.00  0.00    +0.000 A 
ATOM     18  C   UNL     1     111.515 126.473 135.960  0.00  0.00    +0.000 A 
ATOM     19  C   UNL     1     110.834 124.987 135.735  0.00  0.00    +0.000 A 
ATOM     20  C   UNL     1     111.003 126.346 135.326  0.00  0.00    +0.000 A 
ATOM     21  C   UNL     1     110.662 125.604 135.214  0.00  0.00    +0.000 A 
ENDBRANCH  10  16
ENDBRANCH   1   5
BRANCH   1  30
ATOM     22  O   UNL     1     112.677 128.725 139.853  0.00  0.00    +0.000 OA
ATOM     23  O   UNL     1     112.935 130.697 140.752  0.00  0.00    +0.000 OA
ATOM     24  O   UNL     1     112.710 129.768 142.097  0.00  0.00    +0.000 OA
ATOM     25  O   UNL     1     112.463 128.143 141.946  0.00  0.00    +0.000 OA
ATOM     26  C   UNL     1     112.811 129.884 140.677  0.00  0.00    +0.000 C 
ATOM     27  C   UNL     1     112.699 129.420 141.349  0.00  0.00    +0.000 C 
ATOM     28  C   UNL     1     112.800 129.536 139.928  0.00  0.00    +0.000 C 
ATOM     29  C   UNL     1     112.576 128.607 141.273  0.00  0.00    +0.000 C 
ATOM     30  C   UNL     1     112.564 128.260 140.525  0.00  0.00    +0.000 C 
BRANCH  28  31
ATOM     31  C   UNL     1     112.912 130.002 139.256  0.00  0.00    +0.000 C 
BRANCH  31  32
ATOM     32  O   UNL     1     113.424 129.751 138.661  0.00  0.00    +0.000 OA
BRANCH  32  34
ATOM     33  O   UNL     1     113.709 130.917 137.886  0.00  0.00    +0.000 OA
ATOM     34  C   UNL     1     113.435 130.140 137.934  0.00  0.00    +0.000 C 
BRANCH  34  35
ATOM     35  C   UNL     1     113.173 129.754 137.254  0.00  0.00    +0.000 C 
BRANCH  35  37
ATOM     36  O   UNL     1     114.167 129.209 136.976  0.00  0.00    +0.000 OA
ATOM     37  C   UNL     1     113.654 129.722 136.585  0.00  0.00    +0.000 C 
ATOM     38  C   UNL     1     113.141 130.236 136.193  0.00  0.00    +0.000 C 
BRANCH  37  39
ATOM     39  C   UNL     1     114.134 129.692 135.915  0.00  0.00    +0.000 C 
BRANCH  39  42
ATOM     40  O   UNL     1     113.484 129.126 134.775  0.00  0.00    +0.000 OA
ATOM     41  O   UNL     1     114.527 128.404 135.434  0.00  0.00    +0.000 OA
ATOM     42  C   UNL     1     114.049 129.074 135.375  0.00  0.00    +0.000 C 
ENDBRANCH  39  42
ENDBRANCH  37  39
ENDBRANCH  35  37
ENDBRANCH  34  35
ENDBRANCH  32  34
ENDBRANCH  31  32
ENDBRANCH  28  31
ENDBRANCH   1  30
TORSDOF 10
ENDMDL
MODEL 9
REMARK VINA RESULT:      -8.7      1.716      3.614
REMARK  Name = 42607854
REMARK  10 active torsions:
REMARK  status: ('A' for Active; 'I' for Inactive)
REMARK    1  A    between atoms: O_2  and  C_18
REMARK    2  A    between atoms: O_2  and  C_20
REMARK    3  A    between atoms: O_6  and  C_19
REMARK    4  A    between atoms: O_6  and  C_31
REMARK    5  A    between atoms: C_16  and  C_19
REMARK    6  A    between atoms: C_25  and  C_34
REMARK    7  A    between atoms: C_29  and  C_30
REMARK    8  A    between atoms: C_29  and  C_35
REMARK    9  A    between atoms: C_30  and  C_31
REMARK   10  A    between atoms: C_35  and  C_39
REMARK                            x       y       z     vdW  Elec       q    Type
REMARK                         _______ _______ _______ _____ _____    ______ ____
ROOT
ATOM      1  O   UNL     1     110.839 130.032 136.314  0.00  0.00    +0.000 OA
ENDROOT
BRANCH   1   5
ATOM      2  O   UNL     1     112.362 128.444 138.176  0.00  0.00    +0.000 OA
ATOM      3  O   UNL     1     113.141 128.611 135.392  0.00  0.00    +0.000 OA
ATOM      4  O   UNL     1     113.930 127.805 136.293  0.00  0.00    +0.000 OA
ATOM      5  C   UNL     1     111.477 129.531 136.465  0.00  0.00    +0.000 A 
ATOM      6  C   UNL     1     111.603 129.241 137.227  0.00  0.00    +0.000 A 
ATOM      7  C   UNL     1     111.990 129.321 135.854  0.00  0.00    +0.000 A 
ATOM      8  C   UNL     1     112.242 128.740 137.378  0.00  0.00    +0.000 A 
ATOM      9  C   UNL     1     112.754 128.531 136.766  0.00  0.00    +0.000 A 
ATOM     10  C   UNL     1     113.025 127.923 138.338  0.00  0.00    +0.000 C 
ATOM     11  C   UNL     1     112.629 128.821 136.004  0.00  0.00    +0.000 A 
ATOM     12  C   UNL     1     113.559 127.704 137.701  0.00  0.00    +0.000 C 
ATOM     13  C   UNL     1     113.422 128.010 136.910  0.00  0.00    +0.000 C 
ATOM     14  C   UNL     1     111.091 129.451 137.838  0.00  0.00    +0.000 C 
ATOM     15  C   UNL     1     111.864 129.612 135.091  0.00  0.00    +0.000 C 
BRANCH  10  16
ATOM     16  C   UNL     1     113.149 127.634 139.101  0.00  0.00    +0.000 A 
ATOM     17  C   UNL     1     112.839 126.901 139.320  0.00  0.00    +0.000 A 
ATOM     18  C   UNL     1     113.582 128.077 139.645  0.00  0.00    +0.000 A 
ATOM     19  C   UNL     1     112.962 126.612 140.083  0.00  0.00    +0.000 A 
ATOM     20  C   UNL     1     113.706 127.789 140.407  0.00  0.00    +0.000 A 
ATOM     21  C   UNL     1     113.396 127.057 140.626  0.00  0.00    +0.000 A 
ENDBRANCH  10  16
ENDBRANCH   1   5
BRANCH   1  30
ATOM     22  O   UNL     1     110.031 128.935 135.883  0.00  0.00    +0.000 OA
ATOM     23  O   UNL     1     107.869 128.760 135.642  0.00  0.00    +0.000 OA
ATOM     24  O   UNL     1     107.999 130.319 136.168  0.00  0.00    +0.000 OA
ATOM     25  O   UNL     1     109.484 130.955 136.504  0.00  0.00    +0.000 OA
ATOM     26  C   UNL     1     108.612 129.078 135.810  0.00  0.00    +0.000 C 
ATOM     27  C   UNL     1     108.676 129.857 136.073  0.00  0.00    +0.000 C 
ATOM     28  C   UNL     1     109.289 128.617 135.715  0.00  0.00    +0.000 C 
ATOM     29  C   UNL     1     109.420 130.175 136.241  0.00  0.00    +0.000 C 
ATOM     30  C   UNL     1     110.097 129.714 136.146  0.00  0.00    +0.000 C 
BRANCH  28  31
ATOM     31  C   UNL     1     109.223 127.838 135.452  0.00  0.00    +0.000 C 
BRANCH  31  32
ATOM     32  O   UNL     1     109.596 127.229 135.865  0.00  0.00    +0.000 OA
BRANCH  32  34
ATOM     33  O   UNL     1     109.832 126.495 134.663  0.00  0.00    +0.000 OA
ATOM     34  C   UNL     1     109.771 126.518 135.485  0.00  0.00    +0.000 C 
BRANCH  34  35
ATOM     35  C   UNL     1     109.884 125.831 135.926  0.00  0.00    +0.000 C 
BRANCH  35  37
ATOM     36  O   UNL     1     110.588 125.753 136.853  0.00  0.00    +0.000 OA
ATOM     37  C   UNL     1     110.647 125.545 136.057  0.00  0.00    +0.000 C 
ATOM     38  C   UNL     1     110.705 125.336 135.261  0.00  0.00    +0.000 C 
BRANCH  37  39
ATOM     39  C   UNL     1     111.409 125.258 136.187  0.00  0.00    +0.000 C 
BRANCH  39  42
ATOM     40  O   UNL     1     111.576 123.839 136.161  0.00  0.00    +0.000 OA
ATOM     41  O   UNL     1     111.569 124.535 137.410  0.00  0.00    +0.000 OA
ATOM     42  C   UNL     1     111.518 124.545 136.586  0.00  0.00    +0.000 C 
ENDBRANCH  39  42
ENDBRANCH  37  39
ENDBRANCH  35  37
ENDBRANCH  34  35
ENDBRANCH  32  34
ENDBRANCH  31  32
ENDBRANCH  28  31
ENDBRANCH   1  30
TORSDOF 10
ENDMDL
MODEL 10
REMARK VINA RESULT:      -8.7      1.701      2.647
REMARK  Name = 42607854
REMARK  10 active torsions:
REMARK  status: ('A' for Active; 'I' for Inactive)
REMARK    1  A    between atoms: O_2  and  C_18
REMARK    2  A    between atoms: O_2  and  C_20
REMARK    3  A    between atoms: O_6  and  C_19
REMARK    4  A    between atoms: O_6  and  C_31
REMARK    5  A    between atoms: C_16  and  C_19
REMARK    6  A    between atoms: C_25  and  C_34
REMARK    7  A    between atoms: C_29  and  C_30
REMARK    8  A    between atoms: C_29  and  C_35
REMARK    9  A    between atoms: C_30  and  C_31
REMARK   10  A    between atoms: C_35  and  C_39
REMARK                            x       y       z     vdW  Elec       q    Type
REMARK                         _______ _______ _______ _____ _____    ______ ____
ROOT
ATOM      1  O   UNL     1     110.910 129.018 136.405  0.00  0.00    +0.000 OA
ENDROOT
BRANCH   1   5
ATOM      2  O   UNL     1     112.505 126.707 137.053  0.00  0.00    +0.000 OA
ATOM      3  O   UNL     1     109.902 127.092 138.260  0.00  0.00    +0.000 OA
ATOM      4  O   UNL     1     110.670 125.921 138.611  0.00  0.00    +0.000 OA
ATOM      5  C   UNL     1     111.002 128.314 136.824  0.00  0.00    +0.000 A 
ATOM      6  C   UNL     1     111.691 127.867 136.735  0.00  0.00    +0.000 A 
ATOM      7  C   UNL     1     110.407 128.054 137.333  0.00  0.00    +0.000 A 
ATOM      8  C   UNL     1     111.783 127.162 137.154  0.00  0.00    +0.000 A 
ATOM      9  C   UNL     1     111.187 126.904 137.663  0.00  0.00    +0.000 A 
ATOM     10  C   UNL     1     112.606 125.972 137.486  0.00  0.00    +0.000 C 
ATOM     11  C   UNL     1     110.499 127.350 137.752  0.00  0.00    +0.000 A 
ATOM     12  C   UNL     1     111.985 125.702 138.016  0.00  0.00    +0.000 C 
ATOM     13  C   UNL     1     111.271 126.172 138.104  0.00  0.00    +0.000 C 
ATOM     14  C   UNL     1     112.287 128.126 136.227  0.00  0.00    +0.000 C 
ATOM     15  C   UNL     1     109.718 128.501 137.422  0.00  0.00    +0.000 C 
BRANCH  10  16
ATOM     16  C   UNL     1     113.295 125.528 137.395  0.00  0.00    +0.000 A 
ATOM     17  C   UNL     1     113.947 125.674 137.880  0.00  0.00    +0.000 A 
ATOM     18  C   UNL     1     113.333 124.938 136.820  0.00  0.00    +0.000 A 
ATOM     19  C   UNL     1     114.636 125.229 137.788  0.00  0.00    +0.000 A 
ATOM     20  C   UNL     1     114.022 124.494 136.728  0.00  0.00    +0.000 A 
ATOM     21  C   UNL     1     114.673 124.639 137.212  0.00  0.00    +0.000 A 
ENDBRANCH  10  16
ENDBRANCH   1   5
BRANCH   1  30
ATOM     22  O   UNL     1     111.643 129.754 137.388  0.00  0.00    +0.000 OA
ATOM     23  O   UNL     1     111.708 131.893 137.816  0.00  0.00    +0.000 OA
ATOM     24  O   UNL     1     110.642 131.859 136.557  0.00  0.00    +0.000 OA
ATOM     25  O   UNL     1     110.243 130.422 135.852  0.00  0.00    +0.000 OA
ATOM     26  C   UNL     1     111.508 131.174 137.463  0.00  0.00    +0.000 C 
ATOM     27  C   UNL     1     110.976 131.158 136.834  0.00  0.00    +0.000 C 
ATOM     28  C   UNL     1     111.842 130.472 137.740  0.00  0.00    +0.000 C 
ATOM     29  C   UNL     1     110.776 130.438 136.481  0.00  0.00    +0.000 C 
ATOM     30  C   UNL     1     111.110 129.736 136.758  0.00  0.00    +0.000 C 
BRANCH  28  31
ATOM     31  C   UNL     1     112.375 130.489 138.370  0.00  0.00    +0.000 C 
BRANCH  31  32
ATOM     32  O   UNL     1     112.286 129.966 139.001  0.00  0.00    +0.000 OA
BRANCH  32  34
ATOM     33  O   UNL     1     113.021 130.512 140.098  0.00  0.00    +0.000 OA
ATOM     34  C   UNL     1     112.882 129.896 139.567  0.00  0.00    +0.000 C 
BRANCH  34  35
ATOM     35  C   UNL     1     113.339 129.211 139.603  0.00  0.00    +0.000 C 
BRANCH  35  37
ATOM     36  O   UNL     1     112.617 128.550 140.239  0.00  0.00    +0.000 OA
ATOM     37  C   UNL     1     113.402 128.793 140.312  0.00  0.00    +0.000 C 
ATOM     38  C   UNL     1     114.188 129.036 140.384  0.00  0.00    +0.000 C 
BRANCH  37  39
ATOM     39  C   UNL     1     113.466 128.375 141.020  0.00  0.00    +0.000 C 
BRANCH  39  42
ATOM     40  O   UNL     1     113.048 127.010 141.077  0.00  0.00    +0.000 OA
ATOM     41  O   UNL     1     114.434 127.327 140.928  0.00  0.00    +0.000 OA
ATOM     42  C   UNL     1     113.650 127.571 141.008  0.00  0.00    +0.000 C 
ENDBRANCH  39  42
ENDBRANCH  37  39
ENDBRANCH  35  37
ENDBRANCH  34  35
ENDBRANCH  32  34
ENDBRANCH  31  32
ENDBRANCH  28  31
ENDBRANCH   1  30
TORSDOF 10
ENDMDL
