MODEL 1
REMARK VINA RESULT:     -10.3      0.000      0.000
REMARK  Name = 42607857
REMARK  8 active torsions:
REMARK  status: ('A' for Active; 'I' for Inactive)
REMARK    1  A    between atoms: O_1  and  C_15
REMARK    2  A    between atoms: O_1  and  C_17
REMARK    3  A    between atoms: O_4  and  C_21
REMARK    4  A    between atoms: O_4  and  C_27
REMARK    5  A    between atoms: O_5  and  C_18
REMARK    6  A    between atoms: O_5  and  C_28
REMARK    7  A    between atoms: C_22  and  C_25
REMARK    8  A    between atoms: C_34  and  C_38
REMARK                            x       y       z     vdW  Elec       q    Type
REMARK                         _______ _______ _______ _____ _____    ______ ____
ROOT
ATOM      1  O   UNL     1     110.677 129.381 135.844  0.00  0.00    +0.000 OA
ATOM      2  O   UNL     1     108.699 129.916 137.232  0.00  0.00    +0.000 OA
ATOM      3  O   UNL     1     108.500 129.317 135.708  0.00  0.00    +0.000 OA
ATOM      4  C   UNL     1     110.119 129.859 137.069  0.00  0.00    +0.000 C 
ATOM      5  C   UNL     1     109.359 129.738 136.769  0.00  0.00    +0.000 C 
ATOM      6  C   UNL     1     109.260 129.438 136.007  0.00  0.00    +0.000 C 
ATOM      7  C   UNL     1     110.778 129.681 136.606  0.00  0.00    +0.000 C 
ATOM      8  C   UNL     1     109.919 129.260 135.544  0.00  0.00    +0.000 C 
ENDROOT
BRANCH   8  10
ATOM      9  O   UNL     1     109.991 128.169 134.624  0.00  0.00    +0.000 OA
ATOM     10  C   UNL     1     109.819 128.960 134.783  0.00  0.00    +0.000 C 
ENDBRANCH   8  10
BRANCH   4  11
ATOM     11  O   UNL     1     110.218 130.159 137.831  0.00  0.00    +0.000 OA
BRANCH  11  15
ATOM     12  O   UNL     1     110.242 131.494 137.320  0.00  0.00    +0.000 OA
ATOM     13  O   UNL     1     110.039 132.378 139.622  0.00  0.00    +0.000 OA
ATOM     14  O   UNL     1     110.132 133.418 138.344  0.00  0.00    +0.000 OA
ATOM     15  C   UNL     1     110.196 130.974 137.959  0.00  0.00    +0.000 C 
ATOM     16  C   UNL     1     110.128 131.269 138.727  0.00  0.00    +0.000 C 
ATOM     17  C   UNL     1     110.107 132.084 138.855  0.00  0.00    +0.000 C 
ATOM     18  C   UNL     1     110.153 132.604 138.216  0.00  0.00    +0.000 C 
ATOM     19  C   UNL     1     110.221 132.308 137.448  0.00  0.00    +0.000 C 
ATOM     20  C   UNL     1     110.267 132.827 136.809  0.00  0.00    +0.000 C 
BRANCH  16  21
ATOM     21  O   UNL     1     110.082 130.749 139.366  0.00  0.00    +0.000 OA
BRANCH  21  23
ATOM     22  O   UNL     1     111.445 130.797 139.792  0.00  0.00    +0.000 OA
ATOM     23  C   UNL     1     110.640 130.790 139.972  0.00  0.00    +0.000 C 
ATOM     24  C   UNL     1     110.393 130.825 140.758  0.00  0.00    +0.000 C 
ENDBRANCH  21  23
ENDBRANCH  16  21
ENDBRANCH  11  15
ENDBRANCH   4  11
BRANCH   7  25
ATOM     25  O   UNL     1     111.536 129.802 136.905  0.00  0.00    +0.000 OA
BRANCH  25  29
ATOM     26  O   UNL     1     113.034 127.305 136.827  0.00  0.00    +0.000 OA
ATOM     27  O   UNL     1     113.920 129.548 135.236  0.00  0.00    +0.000 OA
ATOM     28  O   UNL     1     114.636 128.296 135.222  0.00  0.00    +0.000 OA
ATOM     29  C   UNL     1     112.168 129.355 136.620  0.00  0.00    +0.000 A 
ATOM     30  C   UNL     1     112.275 128.542 136.878  0.00  0.00    +0.000 A 
ATOM     31  C   UNL     1     112.725 129.699 136.063  0.00  0.00    +0.000 A 
ATOM     32  C   UNL     1     112.936 128.084 136.576  0.00  0.00    +0.000 A 
ATOM     33  C   UNL     1     113.470 128.415 136.041  0.00  0.00    +0.000 A 
ATOM     34  C   UNL     1     113.380 129.226 135.772  0.00  0.00    +0.000 A 
ATOM     35  C   UNL     1     113.665 126.856 136.544  0.00  0.00    +0.000 C 
ATOM     36  C   UNL     1     114.199 127.186 136.009  0.00  0.00    +0.000 C 
ATOM     37  C   UNL     1     114.102 127.966 135.757  0.00  0.00    +0.000 C 
BRANCH  35  38
ATOM     38  C   UNL     1     113.762 126.076 136.795  0.00  0.00    +0.000 A 
ATOM     39  C   UNL     1     114.331 125.895 137.365  0.00  0.00    +0.000 A 
ATOM     40  C   UNL     1     113.290 125.478 136.478  0.00  0.00    +0.000 A 
ATOM     41  C   UNL     1     114.428 125.115 137.617  0.00  0.00    +0.000 A 
ATOM     42  C   UNL     1     113.387 124.699 136.730  0.00  0.00    +0.000 A 
ATOM     43  C   UNL     1     113.956 124.517 137.300  0.00  0.00    +0.000 A 
ENDBRANCH  35  38
ENDBRANCH  25  29
ENDBRANCH   7  25
TORSDOF 8
ENDMDL
MODEL 2
REMARK VINA RESULT:     -10.2      6.916     10.291
REMARK  Name = 42607857
REMARK  8 active torsions:
REMARK  status: ('A' for Active; 'I' for Inactive)
REMARK    1  A    between atoms: O_1  and  C_15
REMARK    2  A    between atoms: O_1  and  C_17
REMARK    3  A    between atoms: O_4  and  C_21
REMARK    4  A    between atoms: O_4  and  C_27
REMARK    5  A    between atoms: O_5  and  C_18
REMARK    6  A    between atoms: O_5  and  C_28
REMARK    7  A    between atoms: C_22  and  C_25
REMARK    8  A    between atoms: C_34  and  C_38
REMARK                            x       y       z     vdW  Elec       q    Type
REMARK                         _______ _______ _______ _____ _____    ______ ____
ROOT
ATOM      1  O   UNL     1     106.422 129.204 142.316  0.00  0.00    +0.000 OA
ATOM      2  O   UNL     1     108.066 127.550 143.146  0.00  0.00    +0.000 OA
ATOM      3  O   UNL     1     108.564 128.804 142.198  0.00  0.00    +0.000 OA
ATOM      4  C   UNL     1     106.720 128.026 143.067  0.00  0.00    +0.000 C 
ATOM      5  C   UNL     1     107.518 128.102 142.870  0.00  0.00    +0.000 C 
ATOM      6  C   UNL     1     107.767 128.729 142.395  0.00  0.00    +0.000 C 
ATOM      7  C   UNL     1     106.172 128.577 142.790  0.00  0.00    +0.000 C 
ATOM      8  C   UNL     1     107.219 129.280 142.118  0.00  0.00    +0.000 C 
ENDROOT
BRANCH   8  10
ATOM      9  O   UNL     1     107.250 129.935 140.848  0.00  0.00    +0.000 OA
ATOM     10  C   UNL     1     107.468 129.906 141.644  0.00  0.00    +0.000 C 
ENDBRANCH   8  10
BRANCH   4  11
ATOM     11  O   UNL     1     106.471 127.399 143.542  0.00  0.00    +0.000 OA
BRANCH  11  15
ATOM     12  O   UNL     1     106.664 128.162 144.735  0.00  0.00    +0.000 OA
ATOM     13  O   UNL     1     106.734 126.074 146.060  0.00  0.00    +0.000 OA
ATOM     14  O   UNL     1     106.904 127.533 146.811  0.00  0.00    +0.000 OA
ATOM     15  C   UNL     1     106.579 127.432 144.360  0.00  0.00    +0.000 C 
ATOM     16  C   UNL     1     106.602 126.736 144.801  0.00  0.00    +0.000 C 
ATOM     17  C   UNL     1     106.711 126.770 145.619  0.00  0.00    +0.000 C 
ATOM     18  C   UNL     1     106.796 127.500 145.994  0.00  0.00    +0.000 C 
ATOM     19  C   UNL     1     106.772 128.196 145.551  0.00  0.00    +0.000 C 
ATOM     20  C   UNL     1     106.857 128.926 145.926  0.00  0.00    +0.000 C 
BRANCH  16  21
ATOM     21  O   UNL     1     106.518 126.006 144.426  0.00  0.00    +0.000 OA
BRANCH  21  23
ATOM     22  O   UNL     1     105.108 125.883 144.625  0.00  0.00    +0.000 OA
ATOM     23  C   UNL     1     105.856 125.538 144.580  0.00  0.00    +0.000 C 
ATOM     24  C   UNL     1     105.942 124.725 144.690  0.00  0.00    +0.000 C 
ENDBRANCH  21  23
ENDBRANCH  16  21
ENDBRANCH  11  15
ENDBRANCH   4  11
BRANCH   7  25
ATOM     25  O   UNL     1     105.375 128.501 142.988  0.00  0.00    +0.000 OA
BRANCH  25  29
ATOM     26  O   UNL     1     103.287 130.317 142.078  0.00  0.00    +0.000 OA
ATOM     27  O   UNL     1     103.886 127.948 140.537  0.00  0.00    +0.000 OA
ATOM     28  O   UNL     1     102.859 128.869 140.117  0.00  0.00    +0.000 OA
ATOM     29  C   UNL     1     104.793 128.705 142.440  0.00  0.00    +0.000 A 
ATOM     30  C   UNL     1     104.331 129.423 142.547  0.00  0.00    +0.000 A 
ATOM     31  C   UNL     1     104.644 128.203 141.759  0.00  0.00    +0.000 A 
ATOM     32  C   UNL     1     103.727 129.627 141.971  0.00  0.00    +0.000 A 
ATOM     33  C   UNL     1     103.585 129.145 141.317  0.00  0.00    +0.000 A 
ATOM     34  C   UNL     1     104.036 128.424 141.194  0.00  0.00    +0.000 A 
ATOM     35  C   UNL     1     102.705 130.524 141.532  0.00  0.00    +0.000 C 
ATOM     36  C   UNL     1     102.562 130.041 140.879  0.00  0.00    +0.000 C 
ATOM     37  C   UNL     1     103.002 129.351 140.771  0.00  0.00    +0.000 C 
BRANCH  35  38
ATOM     38  C   UNL     1     102.265 131.213 141.640  0.00  0.00    +0.000 A 
ATOM     39  C   UNL     1     101.524 131.177 142.004  0.00  0.00    +0.000 A 
ATOM     40  C   UNL     1     102.565 131.938 141.386  0.00  0.00    +0.000 A 
ATOM     41  C   UNL     1     101.085 131.866 142.112  0.00  0.00    +0.000 A 
ATOM     42  C   UNL     1     102.125 132.628 141.495  0.00  0.00    +0.000 A 
ATOM     43  C   UNL     1     101.385 132.592 141.857  0.00  0.00    +0.000 A 
ENDBRANCH  35  38
ENDBRANCH  25  29
ENDBRANCH   7  25
TORSDOF 8
ENDMDL
MODEL 3
REMARK VINA RESULT:     -10.0      1.634      2.343
REMARK  Name = 42607857
REMARK  8 active torsions:
REMARK  status: ('A' for Active; 'I' for Inactive)
REMARK    1  A    between atoms: O_1  and  C_15
REMARK    2  A    between atoms: O_1  and  C_17
REMARK    3  A    between atoms: O_4  and  C_21
REMARK    4  A    between atoms: O_4  and  C_27
REMARK    5  A    between atoms: O_5  and  C_18
REMARK    6  A    between atoms: O_5  and  C_28
REMARK    7  A    between atoms: C_22  and  C_25
REMARK    8  A    between atoms: C_34  and  C_38
REMARK                            x       y       z     vdW  Elec       q    Type
REMARK                         _______ _______ _______ _____ _____    ______ ____
ROOT
ATOM      1  O   UNL     1     110.134 128.495 136.386  0.00  0.00    +0.000 OA
ATOM      2  O   UNL     1     108.232 130.022 136.804  0.00  0.00    +0.000 OA
ATOM      3  O   UNL     1     108.527 129.470 135.278  0.00  0.00    +0.000 OA
ATOM      4  C   UNL     1     109.353 129.279 137.289  0.00  0.00    +0.000 C 
ATOM      5  C   UNL     1     108.866 129.513 136.665  0.00  0.00    +0.000 C 
ATOM      6  C   UNL     1     109.014 129.237 135.902  0.00  0.00    +0.000 C 
ATOM      7  C   UNL     1     109.987 128.770 137.150  0.00  0.00    +0.000 C 
ATOM      8  C   UNL     1     109.648 128.728 135.763  0.00  0.00    +0.000 C 
ENDROOT
BRANCH   8  10
ATOM      9  O   UNL     1     110.538 128.562 134.657  0.00  0.00    +0.000 OA
ATOM     10  C   UNL     1     109.796 128.452 135.000  0.00  0.00    +0.000 C 
ENDBRANCH   8  10
BRANCH   4  11
ATOM     11  O   UNL     1     109.205 129.555 138.052  0.00  0.00    +0.000 OA
BRANCH  11  15
ATOM     12  O   UNL     1     110.059 130.682 137.837  0.00  0.00    +0.000 OA
ATOM     13  O   UNL     1     109.127 131.773 139.854  0.00  0.00    +0.000 OA
ATOM     14  O   UNL     1     110.291 132.534 138.967  0.00  0.00    +0.000 OA
ATOM     15  C   UNL     1     109.477 130.301 138.281  0.00  0.00    +0.000 C 
ATOM     16  C   UNL     1     109.166 130.664 138.953  0.00  0.00    +0.000 C 
ATOM     17  C   UNL     1     109.438 131.410 139.182  0.00  0.00    +0.000 C 
ATOM     18  C   UNL     1     110.020 131.790 138.738  0.00  0.00    +0.000 C 
ATOM     19  C   UNL     1     110.330 131.426 138.066  0.00  0.00    +0.000 C 
ATOM     20  C   UNL     1     110.912 131.807 137.622  0.00  0.00    +0.000 C 
BRANCH  16  21
ATOM     21  O   UNL     1     108.584 130.283 139.397  0.00  0.00    +0.000 OA
BRANCH  21  23
ATOM     22  O   UNL     1     109.402 129.730 140.429  0.00  0.00    +0.000 OA
ATOM     23  C   UNL     1     108.715 130.120 140.195  0.00  0.00    +0.000 C 
ATOM     24  C   UNL     1     108.157 130.348 140.759  0.00  0.00    +0.000 C 
ENDBRANCH  21  23
ENDBRANCH  16  21
ENDBRANCH  11  15
ENDBRANCH   4  11
BRANCH   7  25
ATOM     25  O   UNL     1     110.473 128.537 137.774  0.00  0.00    +0.000 OA
BRANCH  25  29
ATOM     26  O   UNL     1     112.435 126.409 137.445  0.00  0.00    +0.000 OA
ATOM     27  O   UNL     1     109.853 125.803 138.591  0.00  0.00    +0.000 OA
ATOM     28  O   UNL     1     110.848 124.774 138.414  0.00  0.00    +0.000 OA
ATOM     29  C   UNL     1     110.690 127.746 137.854  0.00  0.00    +0.000 A 
ATOM     30  C   UNL     1     111.469 127.482 137.602  0.00  0.00    +0.000 A 
ATOM     31  C   UNL     1     110.140 127.178 138.190  0.00  0.00    +0.000 A 
ATOM     32  C   UNL     1     111.686 126.656 137.689  0.00  0.00    +0.000 A 
ATOM     33  C   UNL     1     111.157 126.111 138.012  0.00  0.00    +0.000 A 
ATOM     34  C   UNL     1     110.375 126.355 138.270  0.00  0.00    +0.000 A 
ATOM     35  C   UNL     1     112.655 125.618 137.524  0.00  0.00    +0.000 C 
ATOM     36  C   UNL     1     112.126 125.073 137.847  0.00  0.00    +0.000 C 
ATOM     37  C   UNL     1     111.377 125.320 138.091  0.00  0.00    +0.000 C 
BRANCH  35  38
ATOM     38  C   UNL     1     113.403 125.372 137.280  0.00  0.00    +0.000 A 
ATOM     39  C   UNL     1     113.525 125.138 136.498  0.00  0.00    +0.000 A 
ATOM     40  C   UNL     1     114.029 125.361 137.817  0.00  0.00    +0.000 A 
ATOM     41  C   UNL     1     114.274 124.892 136.254  0.00  0.00    +0.000 A 
ATOM     42  C   UNL     1     114.778 125.115 137.572  0.00  0.00    +0.000 A 
ATOM     43  C   UNL     1     114.900 124.881 136.791  0.00  0.00    +0.000 A 
ENDBRANCH  35  38
ENDBRANCH  25  29
ENDBRANCH   7  25
TORSDOF 8
ENDMDL
MODEL 4
REMARK VINA RESULT:     -10.0      1.079      2.696
REMARK  Name = 42607857
REMARK  8 active torsions:
REMARK  status: ('A' for Active; 'I' for Inactive)
REMARK    1  A    between atoms: O_1  and  C_15
REMARK    2  A    between atoms: O_1  and  C_17
REMARK    3  A    between atoms: O_4  and  C_21
REMARK    4  A    between atoms: O_4  and  C_27
REMARK    5  A    between atoms: O_5  and  C_18
REMARK    6  A    between atoms: O_5  and  C_28
REMARK    7  A    between atoms: C_22  and  C_25
REMARK    8  A    between atoms: C_34  and  C_38
REMARK                            x       y       z     vdW  Elec       q    Type
REMARK                         _______ _______ _______ _____ _____    ______ ____
ROOT
ATOM      1  O   UNL     1     112.015 129.952 137.988  0.00  0.00    +0.000 OA
ATOM      2  O   UNL     1     109.691 129.816 138.829  0.00  0.00    +0.000 OA
ATOM      3  O   UNL     1     110.919 130.206 139.858  0.00  0.00    +0.000 OA
ATOM      4  C   UNL     1     110.626 129.712 137.753  0.00  0.00    +0.000 C 
ATOM      5  C   UNL     1     110.466 129.862 138.549  0.00  0.00    +0.000 C 
ATOM      6  C   UNL     1     111.080 130.057 139.063  0.00  0.00    +0.000 C 
ATOM      7  C   UNL     1     111.401 129.757 137.473  0.00  0.00    +0.000 C 
ATOM      8  C   UNL     1     111.855 130.102 138.783  0.00  0.00    +0.000 C 
ENDROOT
BRANCH   8  10
ATOM      9  O   UNL     1     113.018 130.875 139.086  0.00  0.00    +0.000 OA
ATOM     10  C   UNL     1     112.468 130.297 139.298  0.00  0.00    +0.000 C 
ENDBRANCH   8  10
BRANCH   4  11
ATOM     11  O   UNL     1     110.012 129.517 137.238  0.00  0.00    +0.000 OA
BRANCH  11  15
ATOM     12  O   UNL     1     109.792 130.899 136.945  0.00  0.00    +0.000 OA
ATOM     13  O   UNL     1     107.639 130.327 135.867  0.00  0.00    +0.000 OA
ATOM     14  O   UNL     1     108.137 131.899 135.934  0.00  0.00    +0.000 OA
ATOM     15  C   UNL     1     109.543 130.113 136.912  0.00  0.00    +0.000 C 
ATOM     16  C   UNL     1     108.825 129.922 136.553  0.00  0.00    +0.000 C 
ATOM     17  C   UNL     1     108.356 130.518 136.226  0.00  0.00    +0.000 C 
ATOM     18  C   UNL     1     108.605 131.304 136.260  0.00  0.00    +0.000 C 
ATOM     19  C   UNL     1     109.324 131.494 136.619  0.00  0.00    +0.000 C 
ATOM     20  C   UNL     1     109.573 132.280 136.653  0.00  0.00    +0.000 C 
BRANCH  16  21
ATOM     21  O   UNL     1     108.576 129.136 136.519  0.00  0.00    +0.000 OA
BRANCH  21  23
ATOM     22  O   UNL     1     108.850 129.087 135.117  0.00  0.00    +0.000 OA
ATOM     23  C   UNL     1     108.676 128.702 135.825  0.00  0.00    +0.000 C 
ATOM     24  C   UNL     1     108.603 127.880 135.839  0.00  0.00    +0.000 C 
ENDBRANCH  21  23
ENDBRANCH  16  21
ENDBRANCH  11  15
ENDBRANCH   4  11
BRANCH   7  25
ATOM     25  O   UNL     1     111.561 129.608 136.678  0.00  0.00    +0.000 OA
BRANCH  25  29
ATOM     26  O   UNL     1     113.079 127.122 136.689  0.00  0.00    +0.000 OA
ATOM     27  O   UNL     1     114.169 129.451 135.372  0.00  0.00    +0.000 OA
ATOM     28  O   UNL     1     114.893 128.203 135.397  0.00  0.00    +0.000 OA
ATOM     29  C   UNL     1     112.233 129.179 136.466  0.00  0.00    +0.000 A 
ATOM     30  C   UNL     1     112.309 128.353 136.693  0.00  0.00    +0.000 A 
ATOM     31  C   UNL     1     112.863 129.553 136.018  0.00  0.00    +0.000 A 
ATOM     32  C   UNL     1     113.012 127.914 136.469  0.00  0.00    +0.000 A 
ATOM     33  C   UNL     1     113.617 128.275 136.038  0.00  0.00    +0.000 A 
ATOM     34  C   UNL     1     113.559 129.099 135.802  0.00  0.00    +0.000 A 
ATOM     35  C   UNL     1     113.750 126.690 136.479  0.00  0.00    +0.000 C 
ATOM     36  C   UNL     1     114.355 127.051 136.048  0.00  0.00    +0.000 C 
ATOM     37  C   UNL     1     114.288 127.843 135.828  0.00  0.00    +0.000 C 
BRANCH  35  38
ATOM     38  C   UNL     1     113.817 125.898 136.700  0.00  0.00    +0.000 A 
ATOM     39  C   UNL     1     114.321 125.684 137.318  0.00  0.00    +0.000 A 
ATOM     40  C   UNL     1     113.380 125.321 136.304  0.00  0.00    +0.000 A 
ATOM     41  C   UNL     1     114.387 124.892 137.539  0.00  0.00    +0.000 A 
ATOM     42  C   UNL     1     113.446 124.529 136.526  0.00  0.00    +0.000 A 
ATOM     43  C   UNL     1     113.950 124.315 137.143  0.00  0.00    +0.000 A 
ENDBRANCH  35  38
ENDBRANCH  25  29
ENDBRANCH   7  25
TORSDOF 8
ENDMDL
MODEL 5
REMARK VINA RESULT:      -9.9      1.747      3.221
REMARK  Name = 42607857
REMARK  8 active torsions:
REMARK  status: ('A' for Active; 'I' for Inactive)
REMARK    1  A    between atoms: O_1  and  C_15
REMARK    2  A    between atoms: O_1  and  C_17
REMARK    3  A    between atoms: O_4  and  C_21
REMARK    4  A    between atoms: O_4  and  C_27
REMARK    5  A    between atoms: O_5  and  C_18
REMARK    6  A    between atoms: O_5  and  C_28
REMARK    7  A    between atoms: C_22  and  C_25
REMARK    8  A    between atoms: C_34  and  C_38
REMARK                            x       y       z     vdW  Elec       q    Type
REMARK                         _______ _______ _______ _____ _____    ______ ____
ROOT
ATOM      1  O   UNL     1     112.912 130.095 138.276  0.00  0.00    +0.000 OA
ATOM      2  O   UNL     1     111.686 131.235 136.453  0.00  0.00    +0.000 OA
ATOM      3  O   UNL     1     113.214 131.715 136.845  0.00  0.00    +0.000 OA
ATOM      4  C   UNL     1     111.739 130.235 137.473  0.00  0.00    +0.000 C 
ATOM      5  C   UNL     1     112.094 130.855 137.061  0.00  0.00    +0.000 C 
ATOM      6  C   UNL     1     112.859 131.095 137.257  0.00  0.00    +0.000 C 
ATOM      7  C   UNL     1     112.147 129.855 138.080  0.00  0.00    +0.000 C 
ATOM      8  C   UNL     1     113.268 130.715 137.864  0.00  0.00    +0.000 C 
ENDROOT
BRANCH   8  10
ATOM      9  O   UNL     1     114.253 131.027 138.852  0.00  0.00    +0.000 OA
ATOM     10  C   UNL     1     114.032 130.955 138.060  0.00  0.00    +0.000 C 
ENDBRANCH   8  10
BRANCH   4  11
ATOM     11  O   UNL     1     110.974 129.995 137.276  0.00  0.00    +0.000 OA
BRANCH  11  15
ATOM     12  O   UNL     1     110.397 130.865 138.253  0.00  0.00    +0.000 OA
ATOM     13  O   UNL     1     108.229 130.760 137.064  0.00  0.00    +0.000 OA
ATOM     14  O   UNL     1     108.375 131.665 138.437  0.00  0.00    +0.000 OA
ATOM     15  C   UNL     1     110.324 130.413 137.567  0.00  0.00    +0.000 C 
ATOM     16  C   UNL     1     109.601 130.378 137.170  0.00  0.00    +0.000 C 
ATOM     17  C   UNL     1     108.951 130.796 137.461  0.00  0.00    +0.000 C 
ATOM     18  C   UNL     1     109.024 131.248 138.147  0.00  0.00    +0.000 C 
ATOM     19  C   UNL     1     109.748 131.282 138.543  0.00  0.00    +0.000 C 
ATOM     20  C   UNL     1     109.821 131.735 139.229  0.00  0.00    +0.000 C 
BRANCH  16  21
ATOM     21  O   UNL     1     109.528 129.925 136.484  0.00  0.00    +0.000 OA
BRANCH  21  23
ATOM     22  O   UNL     1     109.025 128.761 137.142  0.00  0.00    +0.000 OA
ATOM     23  C   UNL     1     109.047 129.255 136.482  0.00  0.00    +0.000 C 
ATOM     24  C   UNL     1     108.588 129.079 135.820  0.00  0.00    +0.000 C 
ENDBRANCH  21  23
ENDBRANCH  16  21
ENDBRANCH  11  15
ENDBRANCH   4  11
BRANCH   7  25
ATOM     25  O   UNL     1     111.792 129.235 138.491  0.00  0.00    +0.000 OA
BRANCH  25  29
ATOM     26  O   UNL     1     113.108 126.736 137.778  0.00  0.00    +0.000 OA
ATOM     27  O   UNL     1     113.204 127.667 140.511  0.00  0.00    +0.000 OA
ATOM     28  O   UNL     1     113.844 126.435 140.122  0.00  0.00    +0.000 OA
ATOM     29  C   UNL     1     112.236 128.573 138.705  0.00  0.00    +0.000 A 
ATOM     30  C   UNL     1     112.447 127.984 138.116  0.00  0.00    +0.000 A 
ATOM     31  C   UNL     1     112.492 128.468 139.519  0.00  0.00    +0.000 A 
ATOM     32  C   UNL     1     112.909 127.299 138.348  0.00  0.00    +0.000 A 
ATOM     33  C   UNL     1     113.155 127.198 139.129  0.00  0.00    +0.000 A 
ATOM     34  C   UNL     1     112.954 127.776 139.732  0.00  0.00    +0.000 A 
ATOM     35  C   UNL     1     113.553 126.074 137.989  0.00  0.00    +0.000 C 
ATOM     36  C   UNL     1     113.798 125.974 138.770  0.00  0.00    +0.000 C 
ATOM     37  C   UNL     1     113.599 126.536 139.340  0.00  0.00    +0.000 C 
BRANCH  35  38
ATOM     38  C   UNL     1     113.751 125.513 137.419  0.00  0.00    +0.000 A 
ATOM     39  C   UNL     1     114.464 125.578 137.006  0.00  0.00    +0.000 A 
ATOM     40  C   UNL     1     113.238 124.886 137.259  0.00  0.00    +0.000 A 
ATOM     41  C   UNL     1     114.662 125.016 136.436  0.00  0.00    +0.000 A 
ATOM     42  C   UNL     1     113.438 124.325 136.688  0.00  0.00    +0.000 A 
ATOM     43  C   UNL     1     114.150 124.390 136.277  0.00  0.00    +0.000 A 
ENDBRANCH  35  38
ENDBRANCH  25  29
ENDBRANCH   7  25
TORSDOF 8
ENDMDL
MODEL 6
REMARK VINA RESULT:      -9.9      2.144      6.043
REMARK  Name = 42607857
REMARK  8 active torsions:
REMARK  status: ('A' for Active; 'I' for Inactive)
REMARK    1  A    between atoms: O_1  and  C_15
REMARK    2  A    between atoms: O_1  and  C_17
REMARK    3  A    between atoms: O_4  and  C_21
REMARK    4  A    between atoms: O_4  and  C_27
REMARK    5  A    between atoms: O_5  and  C_18
REMARK    6  A    between atoms: O_5  and  C_28
REMARK    7  A    between atoms: C_22  and  C_25
REMARK    8  A    between atoms: C_34  and  C_38
REMARK                            x       y       z     vdW  Elec       q    Type
REMARK                         _______ _______ _______ _____ _____    ______ ____
ROOT
ATOM      1  O   UNL     1     113.015 127.788 138.963  0.00  0.00    +0.000 OA
ATOM      2  O   UNL     1     111.573 125.787 139.161  0.00  0.00    +0.000 OA
ATOM      3  O   UNL     1     112.226 126.470 140.513  0.00  0.00    +0.000 OA
ATOM      4  C   UNL     1     112.208 126.780 138.352  0.00  0.00    +0.000 C 
ATOM      5  C   UNL     1     112.054 126.454 139.095  0.00  0.00    +0.000 C 
ATOM      6  C   UNL     1     112.381 126.796 139.771  0.00  0.00    +0.000 C 
ATOM      7  C   UNL     1     112.689 127.447 138.286  0.00  0.00    +0.000 C 
ATOM      8  C   UNL     1     112.862 127.463 139.705  0.00  0.00    +0.000 C 
ENDROOT
BRANCH   8  10
ATOM      9  O   UNL     1     114.007 127.880 140.451  0.00  0.00    +0.000 OA
ATOM     10  C   UNL     1     113.188 127.805 140.380  0.00  0.00    +0.000 C 
ENDBRANCH   8  10
BRANCH   4  11
ATOM     11  O   UNL     1     111.881 126.438 137.677  0.00  0.00    +0.000 OA
BRANCH  11  15
ATOM     12  O   UNL     1     113.015 125.580 137.530  0.00  0.00    +0.000 OA
ATOM     13  O   UNL     1     111.748 124.179 135.931  0.00  0.00    +0.000 OA
ATOM     14  O   UNL     1     113.303 123.789 136.318  0.00  0.00    +0.000 OA
ATOM     15  C   UNL     1     112.237 125.775 137.337  0.00  0.00    +0.000 C 
ATOM     16  C   UNL     1     111.814 125.309 136.804  0.00  0.00    +0.000 C 
ATOM     17  C   UNL     1     112.170 124.646 136.464  0.00  0.00    +0.000 C 
ATOM     18  C   UNL     1     112.948 124.450 136.657  0.00  0.00    +0.000 C 
ATOM     19  C   UNL     1     113.370 124.918 137.191  0.00  0.00    +0.000 C 
ATOM     20  C   UNL     1     114.148 124.723 137.384  0.00  0.00    +0.000 C 
BRANCH  16  21
ATOM     21  O   UNL     1     111.036 125.504 136.610  0.00  0.00    +0.000 OA
BRANCH  21  23
ATOM     22  O   UNL     1     111.340 126.240 135.424  0.00  0.00    +0.000 OA
ATOM     23  C   UNL     1     110.847 125.725 135.838  0.00  0.00    +0.000 C 
ATOM     24  C   UNL     1     110.164 125.431 135.481  0.00  0.00    +0.000 C 
ENDBRANCH  21  23
ENDBRANCH  16  21
ENDBRANCH  11  15
ENDBRANCH   4  11
BRANCH   7  25
ATOM     25  O   UNL     1     112.842 127.772 137.545  0.00  0.00    +0.000 OA
BRANCH  25  29
ATOM     26  O   UNL     1     111.466 130.334 137.383  0.00  0.00    +0.000 OA
ATOM     27  O   UNL     1     114.342 130.243 137.125  0.00  0.00    +0.000 OA
ATOM     28  O   UNL     1     113.628 131.494 137.050  0.00  0.00    +0.000 OA
ATOM     29  C   UNL     1     112.864 128.592 137.450  0.00  0.00    +0.000 A 
ATOM     30  C   UNL     1     112.136 129.049 137.466  0.00  0.00    +0.000 A 
ATOM     31  C   UNL     1     113.614 128.995 137.334  0.00  0.00    +0.000 A 
ATOM     32  C   UNL     1     112.168 129.901 137.366  0.00  0.00    +0.000 A 
ATOM     33  C   UNL     1     112.889 130.287 137.256  0.00  0.00    +0.000 A 
ATOM     34  C   UNL     1     113.626 129.848 137.237  0.00  0.00    +0.000 A 
ATOM     35  C   UNL     1     111.485 131.154 137.288  0.00  0.00    +0.000 C 
ATOM     36  C   UNL     1     112.205 131.540 137.178  0.00  0.00    +0.000 C 
ATOM     37  C   UNL     1     112.907 131.107 137.161  0.00  0.00    +0.000 C 
BRANCH  35  38
ATOM     38  C   UNL     1     110.783 131.586 137.305  0.00  0.00    +0.000 A 
ATOM     39  C   UNL     1     110.345 131.688 136.612  0.00  0.00    +0.000 A 
ATOM     40  C   UNL     1     110.517 131.916 138.013  0.00  0.00    +0.000 A 
ATOM     41  C   UNL     1     109.643 132.120 136.628  0.00  0.00    +0.000 A 
ATOM     42  C   UNL     1     109.815 132.349 138.028  0.00  0.00    +0.000 A 
ATOM     43  C   UNL     1     109.377 132.451 137.336  0.00  0.00    +0.000 A 
ENDBRANCH  35  38
ENDBRANCH  25  29
ENDBRANCH   7  25
TORSDOF 8
ENDMDL
MODEL 7
REMARK VINA RESULT:      -9.8      1.706      2.563
REMARK  Name = 42607857
REMARK  8 active torsions:
REMARK  status: ('A' for Active; 'I' for Inactive)
REMARK    1  A    between atoms: O_1  and  C_15
REMARK    2  A    between atoms: O_1  and  C_17
REMARK    3  A    between atoms: O_4  and  C_21
REMARK    4  A    between atoms: O_4  and  C_27
REMARK    5  A    between atoms: O_5  and  C_18
REMARK    6  A    between atoms: O_5  and  C_28
REMARK    7  A    between atoms: C_22  and  C_25
REMARK    8  A    between atoms: C_34  and  C_38
REMARK                            x       y       z     vdW  Elec       q    Type
REMARK                         _______ _______ _______ _____ _____    ______ ____
ROOT
ATOM      1  O   UNL     1     109.538 128.346 136.601  0.00  0.00    +0.000 OA
ATOM      2  O   UNL     1     110.124 130.392 135.337  0.00  0.00    +0.000 OA
ATOM      3  O   UNL     1     109.057 129.307 134.701  0.00  0.00    +0.000 OA
ATOM      4  C   UNL     1     110.267 129.570 136.498  0.00  0.00    +0.000 C 
ATOM      5  C   UNL     1     109.928 129.710 135.758  0.00  0.00    +0.000 C 
ATOM      6  C   UNL     1     109.395 129.167 135.441  0.00  0.00    +0.000 C 
ATOM      7  C   UNL     1     110.071 128.888 136.920  0.00  0.00    +0.000 C 
ATOM      8  C   UNL     1     109.199 128.485 135.862  0.00  0.00    +0.000 C 
ENDROOT
BRANCH   8  10
ATOM      9  O   UNL     1     108.040 127.661 136.002  0.00  0.00    +0.000 OA
ATOM     10  C   UNL     1     108.666 127.943 135.544  0.00  0.00    +0.000 C 
ENDBRANCH   8  10
BRANCH   4  11
ATOM     11  O   UNL     1     110.800 130.113 136.816  0.00  0.00    +0.000 OA
BRANCH  11  15
ATOM     12  O   UNL     1     109.758 130.819 137.494  0.00  0.00    +0.000 OA
ATOM     13  O   UNL     1     111.216 132.811 137.663  0.00  0.00    +0.000 OA
ATOM     14  O   UNL     1     109.687 132.852 138.283  0.00  0.00    +0.000 OA
ATOM     15  C   UNL     1     110.522 130.798 137.183  0.00  0.00    +0.000 C 
ATOM     16  C   UNL     1     111.008 131.462 137.239  0.00  0.00    +0.000 C 
ATOM     17  C   UNL     1     110.729 132.147 137.607  0.00  0.00    +0.000 C 
ATOM     18  C   UNL     1     109.965 132.168 137.917  0.00  0.00    +0.000 C 
ATOM     19  C   UNL     1     109.480 131.503 137.860  0.00  0.00    +0.000 C 
ATOM     20  C   UNL     1     108.716 131.523 138.170  0.00  0.00    +0.000 C 
BRANCH  16  21
ATOM     21  O   UNL     1     111.772 131.442 136.929  0.00  0.00    +0.000 OA
BRANCH  21  23
ATOM     22  O   UNL     1     112.301 131.248 138.243  0.00  0.00    +0.000 OA
ATOM     23  C   UNL     1     112.417 131.317 137.429  0.00  0.00    +0.000 C 
ATOM     24  C   UNL     1     113.177 131.262 137.115  0.00  0.00    +0.000 C 
ENDBRANCH  21  23
ENDBRANCH  16  21
ENDBRANCH  11  15
ENDBRANCH   4  11
BRANCH   7  25
ATOM     25  O   UNL     1     110.410 128.749 137.659  0.00  0.00    +0.000 OA
BRANCH  25  29
ATOM     26  O   UNL     1     112.285 126.526 137.512  0.00  0.00    +0.000 OA
ATOM     27  O   UNL     1     109.899 126.273 139.121  0.00  0.00    +0.000 OA
ATOM     28  O   UNL     1     110.849 125.193 139.025  0.00  0.00    +0.000 OA
ATOM     29  C   UNL     1     110.631 127.984 137.874  0.00  0.00    +0.000 A 
ATOM     30  C   UNL     1     111.361 127.644 137.574  0.00  0.00    +0.000 A 
ATOM     31  C   UNL     1     110.133 127.521 138.399  0.00  0.00    +0.000 A 
ATOM     32  C   UNL     1     111.583 126.847 137.803  0.00  0.00    +0.000 A 
ATOM     33  C   UNL     1     111.104 126.403 138.307  0.00  0.00    +0.000 A 
ATOM     34  C   UNL     1     110.371 126.725 138.617  0.00  0.00    +0.000 A 
ATOM     35  C   UNL     1     112.509 125.761 137.726  0.00  0.00    +0.000 C 
ATOM     36  C   UNL     1     112.030 125.317 138.230  0.00  0.00    +0.000 C 
ATOM     37  C   UNL     1     111.328 125.638 138.521  0.00  0.00    +0.000 C 
BRANCH  35  38
ATOM     38  C   UNL     1     113.211 125.441 137.435  0.00  0.00    +0.000 A 
ATOM     39  C   UNL     1     113.916 125.544 137.852  0.00  0.00    +0.000 A 
ATOM     40  C   UNL     1     113.210 125.017 136.727  0.00  0.00    +0.000 A 
ATOM     41  C   UNL     1     114.618 125.224 137.561  0.00  0.00    +0.000 A 
ATOM     42  C   UNL     1     113.912 124.697 136.436  0.00  0.00    +0.000 A 
ATOM     43  C   UNL     1     114.616 124.801 136.853  0.00  0.00    +0.000 A 
ENDBRANCH  35  38
ENDBRANCH  25  29
ENDBRANCH   7  25
TORSDOF 8
ENDMDL
MODEL 8
REMARK VINA RESULT:      -9.8      1.768      3.210
REMARK  Name = 42607857
REMARK  8 active torsions:
REMARK  status: ('A' for Active; 'I' for Inactive)
REMARK    1  A    between atoms: O_1  and  C_15
REMARK    2  A    between atoms: O_1  and  C_17
REMARK    3  A    between atoms: O_4  and  C_21
REMARK    4  A    between atoms: O_4  and  C_27
REMARK    5  A    between atoms: O_5  and  C_18
REMARK    6  A    between atoms: O_5  and  C_28
REMARK    7  A    between atoms: C_22  and  C_25
REMARK    8  A    between atoms: C_34  and  C_38
REMARK                            x       y       z     vdW  Elec       q    Type
REMARK                         _______ _______ _______ _____ _____    ______ ____
ROOT
ATOM      1  O   UNL     1     112.395 128.749 139.712  0.00  0.00    +0.000 OA
ATOM      2  O   UNL     1     112.009 131.041 140.562  0.00  0.00    +0.000 OA
ATOM      3  O   UNL     1     112.844 129.952 141.476  0.00  0.00    +0.000 OA
ATOM      4  C   UNL     1     111.848 130.057 139.537  0.00  0.00    +0.000 C 
ATOM      5  C   UNL     1     112.138 130.277 140.278  0.00  0.00    +0.000 C 
ATOM      6  C   UNL     1     112.555 129.732 140.735  0.00  0.00    +0.000 C 
ATOM      7  C   UNL     1     111.977 129.293 139.254  0.00  0.00    +0.000 C 
ATOM      8  C   UNL     1     112.684 128.968 140.452  0.00  0.00    +0.000 C 
ENDROOT
BRANCH   8  10
ATOM      9  O   UNL     1     112.737 127.726 141.156  0.00  0.00    +0.000 OA
ATOM     10  C   UNL     1     113.101 128.424 140.909  0.00  0.00    +0.000 C 
ENDBRANCH   8  10
BRANCH   4  11
ATOM     11  O   UNL     1     111.431 130.603 139.080  0.00  0.00    +0.000 OA
BRANCH  11  15
ATOM     12  O   UNL     1     110.189 130.155 139.629  0.00  0.00    +0.000 OA
ATOM     13  O   UNL     1     109.075 132.191 138.769  0.00  0.00    +0.000 OA
ATOM     14  O   UNL     1     108.206 131.065 139.605  0.00  0.00    +0.000 OA
ATOM     15  C   UNL     1     110.624 130.718 139.211  0.00  0.00    +0.000 C 
ATOM     16  C   UNL     1     110.253 131.397 138.925  0.00  0.00    +0.000 C 
ATOM     17  C   UNL     1     109.446 131.513 139.056  0.00  0.00    +0.000 C 
ATOM     18  C   UNL     1     109.011 130.950 139.474  0.00  0.00    +0.000 C 
ATOM     19  C   UNL     1     109.383 130.271 139.760  0.00  0.00    +0.000 C 
ATOM     20  C   UNL     1     108.948 129.708 140.178  0.00  0.00    +0.000 C 
BRANCH  16  21
ATOM     21  O   UNL     1     110.688 131.960 138.507  0.00  0.00    +0.000 OA
BRANCH  21  23
ATOM     22  O   UNL     1     110.375 131.546 137.175  0.00  0.00    +0.000 OA
ATOM     23  C   UNL     1     110.481 132.147 137.730  0.00  0.00    +0.000 C 
ATOM     24  C   UNL     1     110.381 132.935 137.509  0.00  0.00    +0.000 C 
ENDBRANCH  21  23
ENDBRANCH  16  21
ENDBRANCH  11  15
ENDBRANCH   4  11
BRANCH   7  25
ATOM     25  O   UNL     1     111.688 129.074 138.513  0.00  0.00    +0.000 OA
BRANCH  25  29
ATOM     26  O   UNL     1     112.345 126.488 137.345  0.00  0.00    +0.000 OA
ATOM     27  O   UNL     1     113.871 128.822 136.590  0.00  0.00    +0.000 OA
ATOM     28  O   UNL     1     114.169 127.526 136.032  0.00  0.00    +0.000 OA
ATOM     29  C   UNL     1     112.151 128.614 138.010  0.00  0.00    +0.000 A 
ATOM     30  C   UNL     1     112.003 127.769 137.937  0.00  0.00    +0.000 A 
ATOM     31  C   UNL     1     112.784 128.973 137.554  0.00  0.00    +0.000 A 
ATOM     32  C   UNL     1     112.491 127.298 137.410  0.00  0.00    +0.000 A 
ATOM     33  C   UNL     1     113.099 127.644 136.973  0.00  0.00    +0.000 A 
ATOM     34  C   UNL     1     113.261 128.485 137.032  0.00  0.00    +0.000 A 
ATOM     35  C   UNL     1     112.806 126.025 136.842  0.00  0.00    +0.000 C 
ATOM     36  C   UNL     1     113.414 126.371 136.404  0.00  0.00    +0.000 C 
ATOM     37  C   UNL     1     113.560 127.181 136.470  0.00  0.00    +0.000 C 
BRANCH  35  38
ATOM     38  C   UNL     1     112.660 125.216 136.777  0.00  0.00    +0.000 A 
ATOM     39  C   UNL     1     111.986 124.950 136.380  0.00  0.00    +0.000 A 
ATOM     40  C   UNL     1     113.185 124.673 137.108  0.00  0.00    +0.000 A 
ATOM     41  C   UNL     1     111.839 124.141 136.315  0.00  0.00    +0.000 A 
ATOM     42  C   UNL     1     113.038 123.864 137.042  0.00  0.00    +0.000 A 
ATOM     43  C   UNL     1     112.365 123.598 136.646  0.00  0.00    +0.000 A 
ENDBRANCH  35  38
ENDBRANCH  25  29
ENDBRANCH   7  25
TORSDOF 8
ENDMDL
MODEL 9
REMARK VINA RESULT:      -9.8      1.780      2.979
REMARK  Name = 42607857
REMARK  8 active torsions:
REMARK  status: ('A' for Active; 'I' for Inactive)
REMARK    1  A    between atoms: O_1  and  C_15
REMARK    2  A    between atoms: O_1  and  C_17
REMARK    3  A    between atoms: O_4  and  C_21
REMARK    4  A    between atoms: O_4  and  C_27
REMARK    5  A    between atoms: O_5  and  C_18
REMARK    6  A    between atoms: O_5  and  C_28
REMARK    7  A    between atoms: C_22  and  C_25
REMARK    8  A    between atoms: C_34  and  C_38
REMARK                            x       y       z     vdW  Elec       q    Type
REMARK                         _______ _______ _______ _____ _____    ______ ____
ROOT
ATOM      1  O   UNL     1     110.338 128.422 138.179  0.00  0.00    +0.000 OA
ATOM      2  O   UNL     1     108.737 130.308 138.248  0.00  0.00    +0.000 OA
ATOM      3  O   UNL     1     108.953 129.360 139.580  0.00  0.00    +0.000 OA
ATOM      4  C   UNL     1     109.697 129.524 137.535  0.00  0.00    +0.000 C 
ATOM      5  C   UNL     1     109.271 129.679 138.225  0.00  0.00    +0.000 C 
ATOM      6  C   UNL     1     109.379 129.205 138.891  0.00  0.00    +0.000 C 
ATOM      7  C   UNL     1     110.230 128.896 137.512  0.00  0.00    +0.000 C 
ATOM      8  C   UNL     1     109.913 128.576 138.868  0.00  0.00    +0.000 C 
ENDROOT
BRANCH   8  10
ATOM      9  O   UNL     1     110.750 128.093 139.921  0.00  0.00    +0.000 OA
ATOM     10  C   UNL     1     110.021 128.102 139.534  0.00  0.00    +0.000 C 
ENDBRANCH   8  10
BRANCH   4  11
ATOM     11  O   UNL     1     109.588 129.999 136.869  0.00  0.00    +0.000 OA
BRANCH  11  15
ATOM     12  O   UNL     1     110.658 130.869 137.244  0.00  0.00    +0.000 OA
ATOM     13  O   UNL     1     109.703 132.656 135.823  0.00  0.00    +0.000 OA
ATOM     14  O   UNL     1     111.091 132.930 136.671  0.00  0.00    +0.000 OA
ATOM     15  C   UNL     1     109.964 130.732 136.820  0.00  0.00    +0.000 C 
ATOM     16  C   UNL     1     109.645 131.327 136.346  0.00  0.00    +0.000 C 
ATOM     17  C   UNL     1     110.022 132.061 136.297  0.00  0.00    +0.000 C 
ATOM     18  C   UNL     1     110.716 132.198 136.721  0.00  0.00    +0.000 C 
ATOM     19  C   UNL     1     111.034 131.602 137.194  0.00  0.00    +0.000 C 
ATOM     20  C   UNL     1     111.728 131.739 137.619  0.00  0.00    +0.000 C 
BRANCH  16  21
ATOM     21  O   UNL     1     108.951 131.190 135.922  0.00  0.00    +0.000 OA
BRANCH  21  23
ATOM     22  O   UNL     1     109.478 130.746 134.670  0.00  0.00    +0.000 OA
ATOM     23  C   UNL     1     108.959 131.223 135.097  0.00  0.00    +0.000 C 
ATOM     24  C   UNL     1     108.447 131.734 134.700  0.00  0.00    +0.000 C 
ENDBRANCH  21  23
ENDBRANCH  16  21
ENDBRANCH  11  15
ENDBRANCH   4  11
BRANCH   7  25
ATOM     25  O   UNL     1     110.656 128.741 136.822  0.00  0.00    +0.000 OA
BRANCH  25  29
ATOM     26  O   UNL     1     112.542 126.523 136.759  0.00  0.00    +0.000 OA
ATOM     27  O   UNL     1     109.907 126.185 135.625  0.00  0.00    +0.000 OA
ATOM     28  O   UNL     1     110.866 125.108 135.612  0.00  0.00    +0.000 OA
ATOM     29  C   UNL     1     110.839 127.964 136.617  0.00  0.00    +0.000 A 
ATOM     30  C   UNL     1     111.615 127.639 136.799  0.00  0.00    +0.000 A 
ATOM     31  C   UNL     1     110.258 127.472 136.218  0.00  0.00    +0.000 A 
ATOM     32  C   UNL     1     111.797 126.829 136.581  0.00  0.00    +0.000 A 
ATOM     33  C   UNL     1     111.238 126.357 136.199  0.00  0.00    +0.000 A 
ATOM     34  C   UNL     1     110.459 126.664 136.008  0.00  0.00    +0.000 A 
ATOM     35  C   UNL     1     112.729 125.746 136.555  0.00  0.00    +0.000 C 
ATOM     36  C   UNL     1     112.170 125.274 136.172  0.00  0.00    +0.000 C 
ATOM     37  C   UNL     1     111.425 125.580 135.994  0.00  0.00    +0.000 C 
BRANCH  35  38
ATOM     38  C   UNL     1     113.474 125.441 136.733  0.00  0.00    +0.000 A 
ATOM     39  C   UNL     1     114.103 125.559 136.211  0.00  0.00    +0.000 A 
ATOM     40  C   UNL     1     113.591 125.018 137.432  0.00  0.00    +0.000 A 
ATOM     41  C   UNL     1     114.848 125.254 136.389  0.00  0.00    +0.000 A 
ATOM     42  C   UNL     1     114.337 124.714 137.609  0.00  0.00    +0.000 A 
ATOM     43  C   UNL     1     114.966 124.831 137.088  0.00  0.00    +0.000 A 
ENDBRANCH  35  38
ENDBRANCH  25  29
ENDBRANCH   7  25
TORSDOF 8
ENDMDL
MODEL 10
REMARK VINA RESULT:      -9.7      1.318      2.588
REMARK  Name = 42607857
REMARK  8 active torsions:
REMARK  status: ('A' for Active; 'I' for Inactive)
REMARK    1  A    between atoms: O_1  and  C_15
REMARK    2  A    between atoms: O_1  and  C_17
REMARK    3  A    between atoms: O_4  and  C_21
REMARK    4  A    between atoms: O_4  and  C_27
REMARK    5  A    between atoms: O_5  and  C_18
REMARK    6  A    between atoms: O_5  and  C_28
REMARK    7  A    between atoms: C_22  and  C_25
REMARK    8  A    between atoms: C_34  and  C_38
REMARK                            x       y       z     vdW  Elec       q    Type
REMARK                         _______ _______ _______ _____ _____    ______ ____
ROOT
ATOM      1  O   UNL     1     112.516 129.538 136.291  0.00  0.00    +0.000 OA
ATOM      2  O   UNL     1     113.192 130.988 138.179  0.00  0.00    +0.000 OA
ATOM      3  O   UNL     1     114.199 130.791 136.888  0.00  0.00    +0.000 OA
ATOM      4  C   UNL     1     112.237 130.119 137.566  0.00  0.00    +0.000 C 
ATOM      5  C   UNL     1     112.967 130.504 137.550  0.00  0.00    +0.000 C 
ATOM      6  C   UNL     1     113.470 130.406 136.904  0.00  0.00    +0.000 C 
ATOM      7  C   UNL     1     112.011 129.636 136.936  0.00  0.00    +0.000 C 
ATOM      8  C   UNL     1     113.245 129.922 136.275  0.00  0.00    +0.000 C 
ENDROOT
BRANCH   8  10
ATOM      9  O   UNL     1     114.135 129.104 135.513  0.00  0.00    +0.000 OA
ATOM     10  C   UNL     1     113.749 129.824 135.630  0.00  0.00    +0.000 C 
ENDBRANCH   8  10
BRANCH   4  11
ATOM     11  O   UNL     1     111.733 130.218 138.212  0.00  0.00    +0.000 OA
BRANCH  11  15
ATOM     12  O   UNL     1     111.107 131.343 137.591  0.00  0.00    +0.000 OA
ATOM     13  O   UNL     1     110.136 132.003 139.770  0.00  0.00    +0.000 OA
ATOM     14  O   UNL     1     109.834 132.908 138.424  0.00  0.00    +0.000 OA
ATOM     15  C   UNL     1     111.258 130.891 138.265  0.00  0.00    +0.000 C 
ATOM     16  C   UNL     1     110.934 131.110 138.991  0.00  0.00    +0.000 C 
ATOM     17  C   UNL     1     110.459 131.783 139.044  0.00  0.00    +0.000 C 
ATOM     18  C   UNL     1     110.308 132.236 138.371  0.00  0.00    +0.000 C 
ATOM     19  C   UNL     1     110.632 132.015 137.645  0.00  0.00    +0.000 C 
ATOM     20  C   UNL     1     110.481 132.468 136.972  0.00  0.00    +0.000 C 
BRANCH  16  21
ATOM     21  O   UNL     1     111.085 130.658 139.664  0.00  0.00    +0.000 OA
BRANCH  21  23
ATOM     22  O   UNL     1     109.952 129.788 139.678  0.00  0.00    +0.000 OA
ATOM     23  C   UNL     1     110.461 130.304 140.071  0.00  0.00    +0.000 C 
ATOM     24  C   UNL     1     110.346 130.466 140.872  0.00  0.00    +0.000 C 
ENDBRANCH  21  23
ENDBRANCH  16  21
ENDBRANCH  11  15
ENDBRANCH   4  11
BRANCH   7  25
ATOM     25  O   UNL     1     111.282 129.251 136.953  0.00  0.00    +0.000 OA
BRANCH  25  29
ATOM     26  O   UNL     1     111.803 126.399 136.664  0.00  0.00    +0.000 OA
ATOM     27  O   UNL     1     110.141 127.748 134.724  0.00  0.00    +0.000 OA
ATOM     28  O   UNL     1     110.420 126.337 134.612  0.00  0.00    +0.000 OA
ATOM     29  C   UNL     1     111.181 128.543 136.542  0.00  0.00    +0.000 A 
ATOM     30  C   UNL     1     111.554 127.821 136.824  0.00  0.00    +0.000 A 
ATOM     31  C   UNL     1     110.701 128.520 135.830  0.00  0.00    +0.000 A 
ATOM     32  C   UNL     1     111.442 127.089 136.389  0.00  0.00    +0.000 A 
ATOM     33  C   UNL     1     110.981 127.068 135.705  0.00  0.00    +0.000 A 
ATOM     34  C   UNL     1     110.600 127.778 135.409  0.00  0.00    +0.000 A 
ATOM     35  C   UNL     1     111.703 125.690 136.255  0.00  0.00    +0.000 C 
ATOM     36  C   UNL     1     111.242 125.669 135.571  0.00  0.00    +0.000 C 
ATOM     37  C   UNL     1     110.881 126.359 135.296  0.00  0.00    +0.000 C 
BRANCH  35  38
ATOM     38  C   UNL     1     112.064 125.002 136.531  0.00  0.00    +0.000 A 
ATOM     39  C   UNL     1     111.611 124.416 136.897  0.00  0.00    +0.000 A 
ATOM     40  C   UNL     1     112.878 124.897 136.441  0.00  0.00    +0.000 A 
ATOM     41  C   UNL     1     111.972 123.728 137.172  0.00  0.00    +0.000 A 
ATOM     42  C   UNL     1     113.238 124.208 136.717  0.00  0.00    +0.000 A 
ATOM     43  C   UNL     1     112.785 123.624 137.083  0.00  0.00    +0.000 A 
ENDBRANCH  35  38
ENDBRANCH  25  29
ENDBRANCH   7  25
TORSDOF 8
ENDMDL
