MODEL 1
REMARK VINA RESULT:      -9.9      0.000      0.000
REMARK  Name = 101789466
REMARK  3 active torsions:
REMARK  status: ('A' for Active; 'I' for Inactive)
REMARK    1  A    between atoms: O_2  and  C_15
REMARK    2  A    between atoms: O_2  and  C_17
REMARK    3  A    between atoms: C_18  and  C_26
REMARK                            x       y       z     vdW  Elec       q    Type
REMARK                         _______ _______ _______ _____ _____    ______ ____
ROOT
ATOM      1  O   UNL     1     112.084 126.702 136.249  0.00  0.00    +0.000 OA
ATOM      2  O   UNL     1     109.646 125.929 134.904  0.00  0.00    +0.000 OA
ATOM      3  O   UNL     1     110.545 124.938 135.445  0.00  0.00    +0.000 OA
ATOM      4  C   UNL     1     110.495 127.963 135.311  0.00  0.00    +0.000 A 
ATOM      5  C   UNL     1     112.264 125.907 136.378  0.00  0.00    +0.000 C 
ATOM      6  C   UNL     1     111.751 125.319 136.110  0.00  0.00    +0.000 C 
ATOM      7  C   UNL     1     111.391 126.909 135.852  0.00  0.00    +0.000 A 
ATOM      8  C   UNL     1     110.878 126.322 135.584  0.00  0.00    +0.000 A 
ATOM      9  C   UNL     1     111.215 127.740 135.724  0.00  0.00    +0.000 A 
ATOM     10  C   UNL     1     111.058 125.527 135.713  0.00  0.00    +0.000 C 
ATOM     11  C   UNL     1     109.960 127.350 135.031  0.00  0.00    +0.000 A 
ATOM     12  C   UNL     1     110.153 126.524 135.169  0.00  0.00    +0.000 A 
ENDROOT
BRANCH   5  15
ATOM     13  O   UNL     1     113.891 125.994 138.726  0.00  0.00    +0.000 OA
ATOM     14  O   UNL     1     115.035 125.078 137.967  0.00  0.00    +0.000 OA
ATOM     15  C   UNL     1     112.957 125.700 136.775  0.00  0.00    +0.000 A 
ATOM     16  C   UNL     1     113.077 125.951 137.552  0.00  0.00    +0.000 A 
ATOM     17  C   UNL     1     113.529 125.242 136.396  0.00  0.00    +0.000 A 
ATOM     18  C   UNL     1     113.770 125.744 137.950  0.00  0.00    +0.000 A 
ATOM     19  C   UNL     1     114.221 125.035 136.794  0.00  0.00    +0.000 A 
ATOM     20  C   UNL     1     114.342 125.286 137.570  0.00  0.00    +0.000 A 
ENDBRANCH   5  15
BRANCH   4  21
ATOM     21  O   UNL     1     110.318 128.758 135.183  0.00  0.00    +0.000 OA
BRANCH  21  30
ATOM     22  O   UNL     1     109.960 129.105 136.522  0.00  0.00    +0.000 OA
ATOM     23  O   UNL     1     108.089 130.481 135.666  0.00  0.00    +0.000 OA
ATOM     24  O   UNL     1     108.355 130.369 137.291  0.00  0.00    +0.000 OA
ATOM     25  O   UNL     1     109.071 129.675 134.612  0.00  0.00    +0.000 OA
ATOM     26  C   UNL     1     108.713 130.022 135.951  0.00  0.00    +0.000 C 
ATOM     27  C   UNL     1     108.846 129.966 136.763  0.00  0.00    +0.000 C 
ATOM     28  C   UNL     1     109.204 129.619 135.425  0.00  0.00    +0.000 C 
ATOM     29  C   UNL     1     109.470 129.508 137.049  0.00  0.00    +0.000 C 
ATOM     30  C   UNL     1     109.827 129.161 135.711  0.00  0.00    +0.000 C 
ATOM     31  C   UNL     1     109.602 129.452 137.862  0.00  0.00    +0.000 C 
ENDBRANCH  21  30
ENDBRANCH   4  21
TORSDOF 3
ENDMDL
MODEL 2
REMARK VINA RESULT:      -9.7      3.523      5.869
REMARK  Name = 101789466
REMARK  3 active torsions:
REMARK  status: ('A' for Active; 'I' for Inactive)
REMARK    1  A    between atoms: O_2  and  C_15
REMARK    2  A    between atoms: O_2  and  C_17
REMARK    3  A    between atoms: C_18  and  C_26
REMARK                            x       y       z     vdW  Elec       q    Type
REMARK                         _______ _______ _______ _____ _____    ______ ____
ROOT
ATOM      1  O   UNL     1     113.310 128.517 139.864  0.00  0.00    +0.000 OA
ATOM      2  O   UNL     1     111.988 126.208 140.990  0.00  0.00    +0.000 OA
ATOM      3  O   UNL     1     112.625 127.187 141.836  0.00  0.00    +0.000 OA
ATOM      4  C   UNL     1     112.241 126.835 138.853  0.00  0.00    +0.000 A 
ATOM      5  C   UNL     1     113.508 128.774 140.623  0.00  0.00    +0.000 C 
ATOM      6  C   UNL     1     113.279 128.330 141.280  0.00  0.00    +0.000 C 
ATOM      7  C   UNL     1     112.884 127.819 139.762  0.00  0.00    +0.000 A 
ATOM      8  C   UNL     1     112.656 127.375 140.419  0.00  0.00    +0.000 A 
ATOM      9  C   UNL     1     112.684 127.562 138.967  0.00  0.00    +0.000 A 
ATOM     10  C   UNL     1     112.853 127.631 141.178  0.00  0.00    +0.000 C 
ATOM     11  C   UNL     1     112.003 126.373 139.539  0.00  0.00    +0.000 A 
ATOM     12  C   UNL     1     112.212 126.645 140.326  0.00  0.00    +0.000 A 
ENDROOT
BRANCH   5  15
ATOM     13  O   UNL     1     113.681 131.440 141.639  0.00  0.00    +0.000 OA
ATOM     14  O   UNL     1     115.210 131.571 141.032  0.00  0.00    +0.000 OA
ATOM     15  C   UNL     1     113.933 129.473 140.725  0.00  0.00    +0.000 A 
ATOM     16  C   UNL     1     113.594 130.107 141.131  0.00  0.00    +0.000 A 
ATOM     17  C   UNL     1     114.698 129.539 140.422  0.00  0.00    +0.000 A 
ATOM     18  C   UNL     1     114.019 130.806 141.233  0.00  0.00    +0.000 A 
ATOM     19  C   UNL     1     115.123 130.238 140.525  0.00  0.00    +0.000 A 
ATOM     20  C   UNL     1     114.784 130.872 140.930  0.00  0.00    +0.000 A 
ENDBRANCH   5  15
BRANCH   4  21
ATOM     21  O   UNL     1     112.045 126.582 138.093  0.00  0.00    +0.000 OA
BRANCH  21  30
ATOM     22  O   UNL     1     113.264 125.891 137.811  0.00  0.00    +0.000 OA
ATOM     23  O   UNL     1     111.990 124.123 136.637  0.00  0.00    +0.000 OA
ATOM     24  O   UNL     1     113.633 124.021 136.747  0.00  0.00    +0.000 OA
ATOM     25  O   UNL     1     111.196 125.403 137.310  0.00  0.00    +0.000 OA
ATOM     26  C   UNL     1     112.415 124.712 137.029  0.00  0.00    +0.000 C 
ATOM     27  C   UNL     1     113.236 124.662 137.084  0.00  0.00    +0.000 C 
ATOM     28  C   UNL     1     112.018 125.353 137.365  0.00  0.00    +0.000 C 
ATOM     29  C   UNL     1     113.661 125.251 137.475  0.00  0.00    +0.000 C 
ATOM     30  C   UNL     1     112.443 125.942 137.757  0.00  0.00    +0.000 C 
ATOM     31  C   UNL     1     114.483 125.200 137.530  0.00  0.00    +0.000 C 
ENDBRANCH  21  30
ENDBRANCH   4  21
TORSDOF 3
ENDMDL
MODEL 3
REMARK VINA RESULT:      -9.6      9.647     11.633
REMARK  Name = 101789466
REMARK  3 active torsions:
REMARK  status: ('A' for Active; 'I' for Inactive)
REMARK    1  A    between atoms: O_2  and  C_15
REMARK    2  A    between atoms: O_2  and  C_17
REMARK    3  A    between atoms: C_18  and  C_26
REMARK                            x       y       z     vdW  Elec       q    Type
REMARK                         _______ _______ _______ _____ _____    ______ ____
ROOT
ATOM      1  O   UNL     1     105.390 126.396 144.121  0.00  0.00    +0.000 OA
ATOM      2  O   UNL     1     107.196 126.350 146.374  0.00  0.00    +0.000 OA
ATOM      3  O   UNL     1     107.212 127.440 145.429  0.00  0.00    +0.000 OA
ATOM      4  C   UNL     1     105.624 124.882 145.747  0.00  0.00    +0.000 A 
ATOM      5  C   UNL     1     105.711 127.116 143.878  0.00  0.00    +0.000 C 
ATOM      6  C   UNL     1     106.318 127.464 144.314  0.00  0.00    +0.000 C 
ATOM      7  C   UNL     1     105.674 126.024 144.798  0.00  0.00    +0.000 A 
ATOM      8  C   UNL     1     106.282 126.372 145.235  0.00  0.00    +0.000 A 
ATOM      9  C   UNL     1     105.332 125.275 145.041  0.00  0.00    +0.000 A 
ATOM     10  C   UNL     1     106.604 127.092 144.993  0.00  0.00    +0.000 C 
ATOM     11  C   UNL     1     106.258 125.244 146.202  0.00  0.00    +0.000 A 
ATOM     12  C   UNL     1     106.589 125.994 145.944  0.00  0.00    +0.000 A 
ENDROOT
BRANCH   5  15
ATOM     13  O   UNL     1     105.409 127.190 141.037  0.00  0.00    +0.000 OA
ATOM     14  O   UNL     1     104.570 128.605 141.163  0.00  0.00    +0.000 OA
ATOM     15  C   UNL     1     105.425 127.489 143.199  0.00  0.00    +0.000 A 
ATOM     16  C   UNL     1     105.560 127.153 142.457  0.00  0.00    +0.000 A 
ATOM     17  C   UNL     1     105.005 128.196 143.262  0.00  0.00    +0.000 A 
ATOM     18  C   UNL     1     105.275 127.525 141.778  0.00  0.00    +0.000 A 
ATOM     19  C   UNL     1     104.721 128.567 142.583  0.00  0.00    +0.000 A 
ATOM     20  C   UNL     1     104.855 128.232 141.842  0.00  0.00    +0.000 A 
ENDBRANCH   5  15
BRANCH   4  21
ATOM     21  O   UNL     1     105.300 124.162 145.986  0.00  0.00    +0.000 OA
BRANCH  21  30
ATOM     22  O   UNL     1     104.286 124.708 146.831  0.00  0.00    +0.000 OA
ATOM     23  O   UNL     1     102.734 122.912 146.130  0.00  0.00    +0.000 OA
ATOM     24  O   UNL     1     102.237 124.057 147.209  0.00  0.00    +0.000 OA
ATOM     25  O   UNL     1     104.266 122.964 145.519  0.00  0.00    +0.000 OA
ATOM     26  C   UNL     1     103.252 123.510 146.364  0.00  0.00    +0.000 C 
ATOM     27  C   UNL     1     103.004 124.083 146.903  0.00  0.00    +0.000 C 
ATOM     28  C   UNL     1     104.017 123.537 146.059  0.00  0.00    +0.000 C 
ATOM     29  C   UNL     1     103.521 124.682 147.137  0.00  0.00    +0.000 C 
ATOM     30  C   UNL     1     104.535 124.136 146.292  0.00  0.00    +0.000 C 
ATOM     31  C   UNL     1     103.271 125.255 147.676  0.00  0.00    +0.000 C 
ENDBRANCH  21  30
ENDBRANCH   4  21
TORSDOF 3
ENDMDL
MODEL 4
REMARK VINA RESULT:      -9.6      7.953     10.792
REMARK  Name = 101789466
REMARK  3 active torsions:
REMARK  status: ('A' for Active; 'I' for Inactive)
REMARK    1  A    between atoms: O_2  and  C_15
REMARK    2  A    between atoms: O_2  and  C_17
REMARK    3  A    between atoms: C_18  and  C_26
REMARK                            x       y       z     vdW  Elec       q    Type
REMARK                         _______ _______ _______ _____ _____    ______ ____
ROOT
ATOM      1  O   UNL     1     103.115 130.281 142.143  0.00  0.00    +0.000 OA
ATOM      2  O   UNL     1     103.892 128.071 140.451  0.00  0.00    +0.000 OA
ATOM      3  O   UNL     1     103.036 129.122 139.958  0.00  0.00    +0.000 OA
ATOM      4  C   UNL     1     104.410 128.515 142.586  0.00  0.00    +0.000 A 
ATOM      5  C   UNL     1     102.677 130.602 141.522  0.00  0.00    +0.000 C 
ATOM      6  C   UNL     1     102.651 130.216 140.793  0.00  0.00    +0.000 C 
ATOM      7  C   UNL     1     103.527 129.575 142.036  0.00  0.00    +0.000 A 
ATOM      8  C   UNL     1     103.500 129.188 141.308  0.00  0.00    +0.000 A 
ATOM      9  C   UNL     1     103.979 129.251 142.691  0.00  0.00    +0.000 A 
ATOM     10  C   UNL     1     103.063 129.509 140.687  0.00  0.00    +0.000 C 
ATOM     11  C   UNL     1     104.382 128.112 141.827  0.00  0.00    +0.000 A 
ATOM     12  C   UNL     1     103.925 128.451 141.184  0.00  0.00    +0.000 A 
ENDROOT
BRANCH   5  15
ATOM     13  O   UNL     1     102.600 133.458 141.438  0.00  0.00    +0.000 OA
ATOM     14  O   UNL     1     101.032 133.431 141.948  0.00  0.00    +0.000 OA
ATOM     15  C   UNL     1     102.266 131.309 141.628  0.00  0.00    +0.000 A 
ATOM     16  C   UNL     1     102.639 132.030 141.479  0.00  0.00    +0.000 A 
ATOM     17  C   UNL     1     101.481 131.296 141.884  0.00  0.00    +0.000 A 
ATOM     18  C   UNL     1     102.228 132.737 141.586  0.00  0.00    +0.000 A 
ATOM     19  C   UNL     1     101.071 132.003 141.990  0.00  0.00    +0.000 A 
ATOM     20  C   UNL     1     101.443 132.724 141.841  0.00  0.00    +0.000 A 
ENDBRANCH   5  15
BRANCH   4  21
ATOM     21  O   UNL     1     104.847 128.197 143.209  0.00  0.00    +0.000 OA
BRANCH  21  30
ATOM     22  O   UNL     1     106.108 128.782 142.880  0.00  0.00    +0.000 OA
ATOM     23  O   UNL     1     107.249 126.678 143.511  0.00  0.00    +0.000 OA
ATOM     24  O   UNL     1     108.130 127.965 142.972  0.00  0.00    +0.000 OA
ATOM     25  O   UNL     1     105.608 126.794 143.630  0.00  0.00    +0.000 OA
ATOM     26  C   UNL     1     106.869 127.380 143.301  0.00  0.00    +0.000 C 
ATOM     27  C   UNL     1     107.309 128.023 143.031  0.00  0.00    +0.000 C 
ATOM     28  C   UNL     1     106.048 127.438 143.360  0.00  0.00    +0.000 C 
ATOM     29  C   UNL     1     106.929 128.724 142.821  0.00  0.00    +0.000 C 
ATOM     30  C   UNL     1     105.668 128.139 143.150  0.00  0.00    +0.000 C 
ATOM     31  C   UNL     1     107.370 129.367 142.551  0.00  0.00    +0.000 C 
ENDBRANCH  21  30
ENDBRANCH   4  21
TORSDOF 3
ENDMDL
MODEL 5
REMARK VINA RESULT:      -9.6      1.438      5.675
REMARK  Name = 101789466
REMARK  3 active torsions:
REMARK  status: ('A' for Active; 'I' for Inactive)
REMARK    1  A    between atoms: O_2  and  C_15
REMARK    2  A    between atoms: O_2  and  C_17
REMARK    3  A    between atoms: C_18  and  C_26
REMARK                            x       y       z     vdW  Elec       q    Type
REMARK                         _______ _______ _______ _____ _____    ______ ____
ROOT
ATOM      1  O   UNL     1     111.117 128.549 136.489  0.00  0.00    +0.000 OA
ATOM      2  O   UNL     1     113.749 128.567 135.300  0.00  0.00    +0.000 OA
ATOM      3  O   UNL     1     112.699 129.418 134.797  0.00  0.00    +0.000 OA
ATOM      4  C   UNL     1     112.943 127.374 137.016  0.00  0.00    +0.000 A 
ATOM      5  C   UNL     1     110.869 129.121 135.949  0.00  0.00    +0.000 C 
ATOM      6  C   UNL     1     111.396 129.410 135.384  0.00  0.00    +0.000 C 
ATOM      7  C   UNL     1     111.891 128.267 136.467  0.00  0.00    +0.000 A 
ATOM      8  C   UNL     1     112.419 128.557 135.902  0.00  0.00    +0.000 A 
ATOM      9  C   UNL     1     112.137 127.672 137.035  0.00  0.00    +0.000 A 
ATOM     10  C   UNL     1     112.171 129.128 135.361  0.00  0.00    +0.000 C 
ATOM     11  C   UNL     1     113.493 127.676 136.428  0.00  0.00    +0.000 A 
ATOM     12  C   UNL     1     113.229 128.271 135.868  0.00  0.00    +0.000 A 
ENDROOT
BRANCH   5  15
ATOM     13  O   UNL     1     108.058 128.657 135.712  0.00  0.00    +0.000 OA
ATOM     14  O   UNL     1     107.769 130.248 136.040  0.00  0.00    +0.000 OA
ATOM     15  C   UNL     1     110.094 129.403 135.972  0.00  0.00    +0.000 A 
ATOM     16  C   UNL     1     109.464 128.888 135.830  0.00  0.00    +0.000 A 
ATOM     17  C   UNL     1     109.949 130.198 136.136  0.00  0.00    +0.000 A 
ATOM     18  C   UNL     1     108.689 129.170 135.853  0.00  0.00    +0.000 A 
ATOM     19  C   UNL     1     109.174 130.479 136.159  0.00  0.00    +0.000 A 
ATOM     20  C   UNL     1     108.544 129.966 136.017  0.00  0.00    +0.000 A 
ENDBRANCH   5  15
BRANCH   4  21
ATOM     21  O   UNL     1     113.187 126.802 137.559  0.00  0.00    +0.000 OA
BRANCH  21  30
ATOM     22  O   UNL     1     112.536 125.681 136.958  0.00  0.00    +0.000 OA
ATOM     23  O   UNL     1     114.495 124.262 137.481  0.00  0.00    +0.000 OA
ATOM     24  O   UNL     1     113.190 123.614 136.706  0.00  0.00    +0.000 OA
ATOM     25  O   UNL     1     114.494 125.856 137.907  0.00  0.00    +0.000 OA
ATOM     26  C   UNL     1     113.842 124.735 137.307  0.00  0.00    +0.000 C 
ATOM     27  C   UNL     1     113.189 124.412 136.919  0.00  0.00    +0.000 C 
ATOM     28  C   UNL     1     113.841 125.532 137.519  0.00  0.00    +0.000 C 
ATOM     29  C   UNL     1     112.536 124.885 136.745  0.00  0.00    +0.000 C 
ATOM     30  C   UNL     1     113.187 126.005 137.345  0.00  0.00    +0.000 C 
ATOM     31  C   UNL     1     111.884 124.560 136.358  0.00  0.00    +0.000 C 
ENDBRANCH  21  30
ENDBRANCH   4  21
TORSDOF 3
ENDMDL
MODEL 6
REMARK VINA RESULT:      -9.6      1.539      2.144
REMARK  Name = 101789466
REMARK  3 active torsions:
REMARK  status: ('A' for Active; 'I' for Inactive)
REMARK    1  A    between atoms: O_2  and  C_15
REMARK    2  A    between atoms: O_2  and  C_17
REMARK    3  A    between atoms: C_18  and  C_26
REMARK                            x       y       z     vdW  Elec       q    Type
REMARK                         _______ _______ _______ _____ _____    ______ ____
ROOT
ATOM      1  O   UNL     1     111.535 127.045 136.168  0.00  0.00    +0.000 OA
ATOM      2  O   UNL     1     113.326 129.269 135.728  0.00  0.00    +0.000 OA
ATOM      3  O   UNL     1     113.812 128.010 136.239  0.00  0.00    +0.000 OA
ATOM      4  C   UNL     1     111.116 129.101 135.399  0.00  0.00    +0.000 A 
ATOM      5  C   UNL     1     112.168 126.588 136.433  0.00  0.00    +0.000 C 
ATOM      6  C   UNL     1     112.927 126.910 136.457  0.00  0.00    +0.000 C 
ATOM      7  C   UNL     1     111.660 127.823 135.926  0.00  0.00    +0.000 A 
ATOM      8  C   UNL     1     112.419 128.145 135.949  0.00  0.00    +0.000 A 
ATOM      9  C   UNL     1     110.992 128.290 135.652  0.00  0.00    +0.000 A 
ATOM     10  C   UNL     1     113.053 127.689 136.215  0.00  0.00    +0.000 C 
ATOM     11  C   UNL     1     111.908 129.436 135.423  0.00  0.00    +0.000 A 
ATOM     12  C   UNL     1     112.563 128.956 135.700  0.00  0.00    +0.000 A 
ENDROOT
BRANCH   5  15
ATOM     13  O   UNL     1     111.250 124.723 138.395  0.00  0.00    +0.000 OA
ATOM     14  O   UNL     1     111.666 123.473 137.401  0.00  0.00    +0.000 OA
ATOM     15  C   UNL     1     112.043 125.809 136.675  0.00  0.00    +0.000 A 
ATOM     16  C   UNL     1     111.709 125.656 137.414  0.00  0.00    +0.000 A 
ATOM     17  C   UNL     1     112.251 125.184 136.178  0.00  0.00    +0.000 A 
ATOM     18  C   UNL     1     111.583 124.877 137.656  0.00  0.00    +0.000 A 
ATOM     19  C   UNL     1     112.125 124.406 136.420  0.00  0.00    +0.000 A 
ATOM     20  C   UNL     1     111.791 124.252 137.159  0.00  0.00    +0.000 A 
ENDBRANCH   5  15
BRANCH   4  21
ATOM     21  O   UNL     1     110.480 129.556 135.134  0.00  0.00    +0.000 OA
BRANCH  21  30
ATOM     22  O   UNL     1     110.236 130.266 136.350  0.00  0.00    +0.000 OA
ATOM     23  O   UNL     1     107.798 130.091 135.962  0.00  0.00    +0.000 OA
ATOM     24  O   UNL     1     108.366 130.859 137.307  0.00  0.00    +0.000 OA
ATOM     25  O   UNL     1     108.855 129.439 134.875  0.00  0.00    +0.000 OA
ATOM     26  C   UNL     1     108.611 130.149 136.091  0.00  0.00    +0.000 C 
ATOM     27  C   UNL     1     108.895 130.533 136.763  0.00  0.00    +0.000 C 
ATOM     28  C   UNL     1     109.140 129.824 135.548  0.00  0.00    +0.000 C 
ATOM     29  C   UNL     1     109.708 130.591 136.892  0.00  0.00    +0.000 C 
ATOM     30  C   UNL     1     109.952 129.882 135.678  0.00  0.00    +0.000 C 
ATOM     31  C   UNL     1     109.992 130.976 137.565  0.00  0.00    +0.000 C 
ENDBRANCH  21  30
ENDBRANCH   4  21
TORSDOF 3
ENDMDL
MODEL 7
REMARK VINA RESULT:      -9.6      1.914      3.080
REMARK  Name = 101789466
REMARK  3 active torsions:
REMARK  status: ('A' for Active; 'I' for Inactive)
REMARK    1  A    between atoms: O_2  and  C_15
REMARK    2  A    between atoms: O_2  and  C_17
REMARK    3  A    between atoms: C_18  and  C_26
REMARK                            x       y       z     vdW  Elec       q    Type
REMARK                         _______ _______ _______ _____ _____    ______ ____
ROOT
ATOM      1  O   UNL     1     110.327 127.887 136.043  0.00  0.00    +0.000 OA
ATOM      2  O   UNL     1     107.880 129.404 135.804  0.00  0.00    +0.000 OA
ATOM      3  O   UNL     1     107.873 127.963 135.738  0.00  0.00    +0.000 OA
ATOM      4  C   UNL     1     109.991 130.095 136.100  0.00  0.00    +0.000 A 
ATOM      5  C   UNL     1     109.901 127.186 135.958  0.00  0.00    +0.000 C 
ATOM      6  C   UNL     1     109.082 127.212 135.857  0.00  0.00    +0.000 C 
ATOM      7  C   UNL     1     109.937 128.613 136.027  0.00  0.00    +0.000 A 
ATOM      8  C   UNL     1     109.119 128.638 135.925  0.00  0.00    +0.000 A 
ATOM      9  C   UNL     1     110.392 129.336 136.116  0.00  0.00    +0.000 A 
ATOM     10  C   UNL     1     108.691 127.938 135.840  0.00  0.00    +0.000 C 
ATOM     11  C   UNL     1     109.138 130.122 135.994  0.00  0.00    +0.000 A 
ATOM     12  C   UNL     1     108.699 129.389 135.906  0.00  0.00    +0.000 A 
ENDROOT
BRANCH   5  15
ATOM     13  O   UNL     1     111.140 125.075 137.434  0.00  0.00    +0.000 OA
ATOM     14  O   UNL     1     111.465 124.281 136.025  0.00  0.00    +0.000 OA
ATOM     15  C   UNL     1     110.292 126.459 135.975  0.00  0.00    +0.000 A 
ATOM     16  C   UNL     1     110.520 126.131 136.697  0.00  0.00    +0.000 A 
ATOM     17  C   UNL     1     110.454 126.062 135.270  0.00  0.00    +0.000 A 
ATOM     18  C   UNL     1     110.911 125.404 136.713  0.00  0.00    +0.000 A 
ATOM     19  C   UNL     1     110.845 125.336 135.287  0.00  0.00    +0.000 A 
ATOM     20  C   UNL     1     111.074 125.007 136.009  0.00  0.00    +0.000 A 
ENDBRANCH   5  15
BRANCH   4  21
ATOM     21  O   UNL     1     110.421 130.794 136.185  0.00  0.00    +0.000 OA
BRANCH  21  30
ATOM     22  O   UNL     1     110.566 130.755 137.606  0.00  0.00    +0.000 OA
ATOM     23  O   UNL     1     110.224 133.204 137.710  0.00  0.00    +0.000 OA
ATOM     24  O   UNL     1     110.483 132.348 139.096  0.00  0.00    +0.000 OA
ATOM     25  O   UNL     1     110.193 132.427 136.254  0.00  0.00    +0.000 OA
ATOM     26  C   UNL     1     110.338 132.387 137.675  0.00  0.00    +0.000 C 
ATOM     27  C   UNL     1     110.468 131.959 138.368  0.00  0.00    +0.000 C 
ATOM     28  C   UNL     1     110.323 131.999 136.948  0.00  0.00    +0.000 C 
ATOM     29  C   UNL     1     110.581 131.142 138.333  0.00  0.00    +0.000 C 
ATOM     30  C   UNL     1     110.437 131.182 136.913  0.00  0.00    +0.000 C 
ATOM     31  C   UNL     1     110.711 130.715 139.027  0.00  0.00    +0.000 C 
ENDBRANCH  21  30
ENDBRANCH   4  21
TORSDOF 3
ENDMDL
MODEL 8
REMARK VINA RESULT:      -9.6      1.309      5.127
REMARK  Name = 101789466
REMARK  3 active torsions:
REMARK  status: ('A' for Active; 'I' for Inactive)
REMARK    1  A    between atoms: O_2  and  C_15
REMARK    2  A    between atoms: O_2  and  C_17
REMARK    3  A    between atoms: C_18  and  C_26
REMARK                            x       y       z     vdW  Elec       q    Type
REMARK                         _______ _______ _______ _____ _____    ______ ____
ROOT
ATOM      1  O   UNL     1     110.129 127.430 136.442  0.00  0.00    +0.000 OA
ATOM      2  O   UNL     1     110.814 124.783 135.507  0.00  0.00    +0.000 OA
ATOM      3  O   UNL     1     110.253 125.767 134.613  0.00  0.00    +0.000 OA
ATOM      4  C   UNL     1     111.002 125.694 137.546  0.00  0.00    +0.000 A 
ATOM      5  C   UNL     1     109.873 127.631 135.684  0.00  0.00    +0.000 C 
ATOM      6  C   UNL     1     109.914 127.076 135.075  0.00  0.00    +0.000 C 
ATOM      7  C   UNL     1     110.427 126.676 136.591  0.00  0.00    +0.000 A 
ATOM      8  C   UNL     1     110.468 126.121 135.982  0.00  0.00    +0.000 A 
ATOM      9  C   UNL     1     110.691 126.478 137.384  0.00  0.00    +0.000 A 
ATOM     10  C   UNL     1     110.212 126.321 135.224  0.00  0.00    +0.000 C 
ATOM     11  C   UNL     1     111.045 125.116 136.911  0.00  0.00    +0.000 A 
ATOM     12  C   UNL     1     110.777 125.331 136.123  0.00  0.00    +0.000 A 
ENDROOT
BRANCH   5  15
ATOM     13  O   UNL     1     107.836 129.603 136.045  0.00  0.00    +0.000 OA
ATOM     14  O   UNL     1     108.681 130.650 135.090  0.00  0.00    +0.000 OA
ATOM     15  C   UNL     1     109.575 128.386 135.536  0.00  0.00    +0.000 A 
ATOM     16  C   UNL     1     108.854 128.617 135.865  0.00  0.00    +0.000 A 
ATOM     17  C   UNL     1     109.997 128.909 135.058  0.00  0.00    +0.000 A 
ATOM     18  C   UNL     1     108.556 129.372 135.716  0.00  0.00    +0.000 A 
ATOM     19  C   UNL     1     109.699 129.664 134.910  0.00  0.00    +0.000 A 
ATOM     20  C   UNL     1     108.979 129.895 135.239  0.00  0.00    +0.000 A 
ENDBRANCH   5  15
BRANCH   4  21
ATOM     21  O   UNL     1     111.257 125.496 138.305  0.00  0.00    +0.000 OA
BRANCH  21  30
ATOM     22  O   UNL     1     112.658 125.710 138.121  0.00  0.00    +0.000 OA
ATOM     23  O   UNL     1     112.787 126.781 140.349  0.00  0.00    +0.000 OA
ATOM     24  O   UNL     1     114.145 126.638 139.423  0.00  0.00    +0.000 OA
ATOM     25  O   UNL     1     111.343 126.210 139.790  0.00  0.00    +0.000 OA
ATOM     26  C   UNL     1     112.744 126.424 139.606  0.00  0.00    +0.000 C 
ATOM     27  C   UNL     1     113.423 126.352 139.143  0.00  0.00    +0.000 C 
ATOM     28  C   UNL     1     112.023 126.138 139.326  0.00  0.00    +0.000 C 
ATOM     29  C   UNL     1     113.380 125.995 138.400  0.00  0.00    +0.000 C 
ATOM     30  C   UNL     1     111.980 125.781 138.584  0.00  0.00    +0.000 C 
ATOM     31  C   UNL     1     114.059 125.923 137.938  0.00  0.00    +0.000 C 
ENDBRANCH  21  30
ENDBRANCH   4  21
TORSDOF 3
ENDMDL
MODEL 9
REMARK VINA RESULT:      -9.5      1.798      5.338
REMARK  Name = 101789466
REMARK  3 active torsions:
REMARK  status: ('A' for Active; 'I' for Inactive)
REMARK    1  A    between atoms: O_2  and  C_15
REMARK    2  A    between atoms: O_2  and  C_17
REMARK    3  A    between atoms: C_18  and  C_26
REMARK                            x       y       z     vdW  Elec       q    Type
REMARK                         _______ _______ _______ _____ _____    ______ ____
ROOT
ATOM      1  O   UNL     1     110.100 130.145 136.614  0.00  0.00    +0.000 OA
ATOM      2  O   UNL     1     108.038 128.398 135.593  0.00  0.00    +0.000 OA
ATOM      3  O   UNL     1     107.719 129.709 136.104  0.00  0.00    +0.000 OA
ATOM      4  C   UNL     1     110.250 128.084 135.763  0.00  0.00    +0.000 A 
ATOM      5  C   UNL     1     109.532 130.720 136.779  0.00  0.00    +0.000 C 
ATOM      6  C   UNL     1     108.738 130.574 136.609  0.00  0.00    +0.000 C 
ATOM      7  C   UNL     1     109.876 129.426 136.279  0.00  0.00    +0.000 A 
ATOM      8  C   UNL     1     109.082 129.280 136.109  0.00  0.00    +0.000 A 
ATOM      9  C   UNL     1     110.478 128.835 136.112  0.00  0.00    +0.000 A 
ATOM     10  C   UNL     1     108.513 129.854 136.274  0.00  0.00    +0.000 C 
ATOM     11  C   UNL     1     109.423 127.932 135.586  0.00  0.00    +0.000 A 
ATOM     12  C   UNL     1     108.835 128.534 135.760  0.00  0.00    +0.000 A 
ENDROOT
BRANCH   5  15
ATOM     13  O   UNL     1     110.128 132.296 139.087  0.00  0.00    +0.000 OA
ATOM     14  O   UNL     1     110.431 133.598 138.119  0.00  0.00    +0.000 OA
ATOM     15  C   UNL     1     109.757 131.439 137.114  0.00  0.00    +0.000 A 
ATOM     16  C   UNL     1     109.830 131.507 137.933  0.00  0.00    +0.000 A 
ATOM     17  C   UNL     1     109.908 132.090 136.630  0.00  0.00    +0.000 A 
ATOM     18  C   UNL     1     110.055 132.227 138.268  0.00  0.00    +0.000 A 
ATOM     19  C   UNL     1     110.133 132.809 136.965  0.00  0.00    +0.000 A 
ATOM     20  C   UNL     1     110.206 132.878 137.784  0.00  0.00    +0.000 A 
ENDBRANCH   5  15
BRANCH   4  21
ATOM     21  O   UNL     1     110.822 127.512 135.599  0.00  0.00    +0.000 OA
BRANCH  21  30
ATOM     22  O   UNL     1     110.906 126.947 136.909  0.00  0.00    +0.000 OA
ATOM     23  O   UNL     1     111.106 124.686 135.921  0.00  0.00    +0.000 OA
ATOM     24  O   UNL     1     111.124 124.874 137.560  0.00  0.00    +0.000 OA
ATOM     25  O   UNL     1     110.955 126.005 134.940  0.00  0.00    +0.000 OA
ATOM     26  C   UNL     1     111.039 125.440 136.250  0.00  0.00    +0.000 C 
ATOM     27  C   UNL     1     111.048 125.534 137.069  0.00  0.00    +0.000 C 
ATOM     28  C   UNL     1     110.964 126.099 135.761  0.00  0.00    +0.000 C 
ATOM     29  C   UNL     1     110.982 126.288 137.399  0.00  0.00    +0.000 C 
ATOM     30  C   UNL     1     110.897 126.853 136.090  0.00  0.00    +0.000 C 
ATOM     31  C   UNL     1     110.991 126.381 138.219  0.00  0.00    +0.000 C 
ENDBRANCH  21  30
ENDBRANCH   4  21
TORSDOF 3
ENDMDL
MODEL 10
REMARK VINA RESULT:      -9.5      2.533      4.255
REMARK  Name = 101789466
REMARK  3 active torsions:
REMARK  status: ('A' for Active; 'I' for Inactive)
REMARK    1  A    between atoms: O_2  and  C_15
REMARK    2  A    between atoms: O_2  and  C_17
REMARK    3  A    between atoms: C_18  and  C_26
REMARK                            x       y       z     vdW  Elec       q    Type
REMARK                         _______ _______ _______ _____ _____    ______ ____
ROOT
ATOM      1  O   UNL     1     112.634 128.295 135.537  0.00  0.00    +0.000 OA
ATOM      2  O   UNL     1     109.869 128.393 134.705  0.00  0.00    +0.000 OA
ATOM      3  O   UNL     1     110.717 129.557 134.612  0.00  0.00    +0.000 OA
ATOM      4  C   UNL     1     111.070 126.699 135.548  0.00  0.00    +0.000 A 
ATOM      5  C   UNL     1     112.724 129.089 135.331  0.00  0.00    +0.000 C 
ATOM      6  C   UNL     1     112.085 129.510 135.023  0.00  0.00    +0.000 C 
ATOM      7  C   UNL     1     111.907 127.922 135.434  0.00  0.00    +0.000 A 
ATOM      8  C   UNL     1     111.267 128.342 135.126  0.00  0.00    +0.000 A 
ATOM      9  C   UNL     1     111.826 127.094 135.652  0.00  0.00    +0.000 A 
ATOM     10  C   UNL     1     111.356 129.136 134.921  0.00  0.00    +0.000 C 
ATOM     11  C   UNL     1     110.404 127.138 135.227  0.00  0.00    +0.000 A 
ATOM     12  C   UNL     1     110.503 127.964 135.014  0.00  0.00    +0.000 A 
ENDROOT
BRANCH   5  15
ATOM     13  O   UNL     1     114.532 130.580 136.967  0.00  0.00    +0.000 OA
ATOM     14  O   UNL     1     115.637 130.584 135.742  0.00  0.00    +0.000 OA
ATOM     15  C   UNL     1     113.453 129.463 135.434  0.00  0.00    +0.000 A 
ATOM     16  C   UNL     1     113.628 129.835 136.149  0.00  0.00    +0.000 A 
ATOM     17  C   UNL     1     114.005 129.465 134.821  0.00  0.00    +0.000 A 
ATOM     18  C   UNL     1     114.356 130.209 136.252  0.00  0.00    +0.000 A 
ATOM     19  C   UNL     1     114.733 129.839 134.924  0.00  0.00    +0.000 A 
ATOM     20  C   UNL     1     114.909 130.211 135.639  0.00  0.00    +0.000 A 
ENDBRANCH   5  15
BRANCH   4  21
ATOM     21  O   UNL     1     110.985 125.905 135.754  0.00  0.00    +0.000 OA
BRANCH  21  30
ATOM     22  O   UNL     1     110.518 126.140 137.084  0.00  0.00    +0.000 OA
ATOM     23  O   UNL     1     111.727 124.126 137.864  0.00  0.00    +0.000 OA
ATOM     24  O   UNL     1     110.857 125.032 138.934  0.00  0.00    +0.000 OA
ATOM     25  O   UNL     1     111.790 124.563 136.274  0.00  0.00    +0.000 OA
ATOM     26  C   UNL     1     111.324 124.798 137.604  0.00  0.00    +0.000 C 
ATOM     27  C   UNL     1     110.889 125.251 138.139  0.00  0.00    +0.000 C 
ATOM     28  C   UNL     1     111.355 125.016 136.810  0.00  0.00    +0.000 C 
ATOM     29  C   UNL     1     110.486 125.922 137.879  0.00  0.00    +0.000 C 
ATOM     30  C   UNL     1     110.952 125.688 136.550  0.00  0.00    +0.000 C 
ATOM     31  C   UNL     1     110.051 126.375 138.414  0.00  0.00    +0.000 C 
ENDBRANCH  21  30
ENDBRANCH   4  21
TORSDOF 3
ENDMDL
