MODEL 1
REMARK VINA RESULT:     -10.2      0.000      0.000
REMARK  Name = 131752325
REMARK  12 active torsions:
REMARK  status: ('A' for Active; 'I' for Inactive)
REMARK    1  A    between atoms: O_1  and  C_21
REMARK    2  A    between atoms: O_1  and  C_23
REMARK    3  A    between atoms: O_4  and  C_24
REMARK    4  A    between atoms: O_4  and  C_34
REMARK    5  A    between atoms: O_6  and  C_27
REMARK    6  A    between atoms: O_6  and  C_33
REMARK    7  A    between atoms: O_17  and  C_50
REMARK    8  A    between atoms: C_29  and  C_31
REMARK    9  A    between atoms: C_30  and  C_32
REMARK   10  A    between atoms: C_34  and  C_37
REMARK   11  A    between atoms: C_40  and  C_42
REMARK   12  A    between atoms: C_41  and  C_43
REMARK                            x       y       z     vdW  Elec       q    Type
REMARK                         _______ _______ _______ _____ _____    ______ ____
ROOT
ATOM      1  O   UNL     1     109.500 129.364 137.725  0.00  0.00    +0.000 OA
ATOM      2  O   UNL     1     109.895 131.691 138.468  0.00  0.00    +0.000 OA
ATOM      3  O   UNL     1     109.167 131.401 137.017  0.00  0.00    +0.000 OA
ATOM      4  C   UNL     1     109.996 130.285 138.700  0.00  0.00    +0.000 C 
ATOM      5  C   UNL     1     109.764 130.915 138.221  0.00  0.00    +0.000 C 
ATOM      6  C   UNL     1     109.400 130.771 137.495  0.00  0.00    +0.000 C 
ATOM      7  C   UNL     1     109.864 129.509 138.452  0.00  0.00    +0.000 C 
ATOM      8  C   UNL     1     109.268 129.995 137.248  0.00  0.00    +0.000 C 
ENDROOT
BRANCH   8  11
ATOM      9  O   UNL     1     109.351 129.856 135.828  0.00  0.00    +0.000 OA
ATOM     10  O   UNL     1     108.094 129.697 136.490  0.00  0.00    +0.000 OA
ATOM     11  C   UNL     1     108.904 129.849 136.522  0.00  0.00    +0.000 C 
ENDBRANCH   8  11
BRANCH   4  12
ATOM     12  O   UNL     1     110.360 130.430 139.425  0.00  0.00    +0.000 OA
BRANCH  12  16
ATOM     13  O   UNL     1     109.090 130.441 140.079  0.00  0.00    +0.000 OA
ATOM     14  O   UNL     1     110.149 131.355 142.121  0.00  0.00    +0.000 OA
ATOM     15  O   UNL     1     108.525 131.062 142.094  0.00  0.00    +0.000 OA
ATOM     16  C   UNL     1     109.901 130.588 140.092  0.00  0.00    +0.000 C 
ATOM     17  C   UNL     1     110.255 130.893 140.773  0.00  0.00    +0.000 C 
ATOM     18  C   UNL     1     109.796 131.051 141.441  0.00  0.00    +0.000 C 
ATOM     19  C   UNL     1     108.984 130.904 141.427  0.00  0.00    +0.000 C 
ATOM     20  C   UNL     1     108.631 130.599 140.747  0.00  0.00    +0.000 C 
BRANCH  20  23
ATOM     21  O   UNL     1     107.535 129.695 140.893  0.00  0.00    +0.000 OA
ATOM     22  O   UNL     1     107.292 131.062 140.558  0.00  0.00    +0.000 OA
ATOM     23  C   UNL     1     107.819 130.452 140.733  0.00  0.00    +0.000 C 
ENDBRANCH  20  23
BRANCH  17  24
ATOM     24  O   UNL     1     111.066 131.039 140.786  0.00  0.00    +0.000 OA
BRANCH  24  26
ATOM     25  O   UNL     1     111.557 130.826 142.112  0.00  0.00    +0.000 OA
ATOM     26  C   UNL     1     111.551 130.626 141.311  0.00  0.00    +0.000 C 
BRANCH  26  27
ATOM     27  C   UNL     1     112.030 130.014 141.035  0.00  0.00    +0.000 C 
ATOM     28  C   UNL     1     112.589 129.669 141.536  0.00  0.00    +0.000 C 
BRANCH  28  30
ATOM     29  O   UNL     1     114.505 127.221 140.429  0.00  0.00    +0.000 OA
ATOM     30  C   UNL     1     113.067 129.057 141.259  0.00  0.00    +0.000 A 
ATOM     31  C   UNL     1     112.849 128.272 141.389  0.00  0.00    +0.000 A 
ATOM     32  C   UNL     1     113.765 129.230 140.853  0.00  0.00    +0.000 A 
ATOM     33  C   UNL     1     113.329 127.660 141.112  0.00  0.00    +0.000 A 
ATOM     34  C   UNL     1     114.243 128.618 140.576  0.00  0.00    +0.000 A 
ATOM     35  C   UNL     1     114.025 127.833 140.706  0.00  0.00    +0.000 A 
BRANCH  33  36
ATOM     36  O   UNL     1     113.111 126.875 141.242  0.00  0.00    +0.000 OA
ATOM     37  C   UNL     1     112.340 126.693 141.471  0.00  0.00    +0.000 C 
ENDBRANCH  33  36
ENDBRANCH  28  30
ENDBRANCH  26  27
ENDBRANCH  24  26
ENDBRANCH  17  24
ENDBRANCH  12  16
ENDBRANCH   4  12
BRANCH   7  38
ATOM     38  O   UNL     1     110.097 128.878 138.930  0.00  0.00    +0.000 OA
BRANCH  38  39
ATOM     39  C   UNL     1     110.488 128.232 138.599  0.00  0.00    +0.000 A 
ATOM     40  C   UNL     1     111.209 128.340 138.211  0.00  0.00    +0.000 A 
ATOM     41  C   UNL     1     110.159 127.478 138.655  0.00  0.00    +0.000 A 
ATOM     42  C   UNL     1     111.600 127.694 137.880  0.00  0.00    +0.000 A 
ATOM     43  C   UNL     1     110.551 126.831 138.324  0.00  0.00    +0.000 A 
ATOM     44  C   UNL     1     111.271 126.939 137.937  0.00  0.00    +0.000 A 
BRANCH  44  49
ATOM     45  O   UNL     1     112.457 126.157 137.783  0.00  0.00    +0.000 OA
ATOM     46  O   UNL     1     111.249 124.625 136.259  0.00  0.00    +0.000 OA
ATOM     47  O   UNL     1     112.432 123.818 136.086  0.00  0.00    +0.000 OA
ATOM     48  O   UNL     1     114.884 124.574 137.481  0.00  0.00    +0.000 OA
ATOM     49  C   UNL     1     111.663 126.292 137.606  0.00  0.00    +0.000 A 
ATOM     50  C   UNL     1     111.260 125.783 137.098  0.00  0.00    +0.000 A 
ATOM     51  C   UNL     1     112.849 125.511 137.452  0.00  0.00    +0.000 A 
ATOM     52  C   UNL     1     111.652 125.136 136.767  0.00  0.00    +0.000 A 
ATOM     53  C   UNL     1     112.446 125.000 136.944  0.00  0.00    +0.000 A 
ATOM     54  C   UNL     1     113.676 125.380 137.645  0.00  0.00    +0.000 A 
ATOM     55  C   UNL     1     112.843 124.323 136.593  0.00  0.00    +0.000 A 
ATOM     56  C   UNL     1     114.089 124.708 137.302  0.00  0.00    +0.000 A 
ATOM     57  C   UNL     1     113.670 124.177 136.774  0.00  0.00    +0.000 A 
ENDBRANCH  44  49
ENDBRANCH  38  39
ENDBRANCH   7  38
TORSDOF 12
ENDMDL
MODEL 2
REMARK VINA RESULT:     -10.1      5.793      9.494
REMARK  Name = 131752325
REMARK  12 active torsions:
REMARK  status: ('A' for Active; 'I' for Inactive)
REMARK    1  A    between atoms: O_1  and  C_21
REMARK    2  A    between atoms: O_1  and  C_23
REMARK    3  A    between atoms: O_4  and  C_24
REMARK    4  A    between atoms: O_4  and  C_34
REMARK    5  A    between atoms: O_6  and  C_27
REMARK    6  A    between atoms: O_6  and  C_33
REMARK    7  A    between atoms: O_17  and  C_50
REMARK    8  A    between atoms: C_29  and  C_31
REMARK    9  A    between atoms: C_30  and  C_32
REMARK   10  A    between atoms: C_34  and  C_37
REMARK   11  A    between atoms: C_40  and  C_42
REMARK   12  A    between atoms: C_41  and  C_43
REMARK                            x       y       z     vdW  Elec       q    Type
REMARK                         _______ _______ _______ _____ _____    ______ ____
ROOT
ATOM      1  O   UNL     1     106.222 129.079 141.996  0.00  0.00    +0.000 OA
ATOM      2  O   UNL     1     107.789 127.505 143.090  0.00  0.00    +0.000 OA
ATOM      3  O   UNL     1     108.372 128.756 142.187  0.00  0.00    +0.000 OA
ATOM      4  C   UNL     1     106.453 127.928 142.813  0.00  0.00    +0.000 C 
ATOM      5  C   UNL     1     107.267 128.030 142.725  0.00  0.00    +0.000 C 
ATOM      6  C   UNL     1     107.559 128.655 142.274  0.00  0.00    +0.000 C 
ATOM      7  C   UNL     1     105.930 128.452 142.448  0.00  0.00    +0.000 C 
ATOM      8  C   UNL     1     107.036 129.179 141.910  0.00  0.00    +0.000 C 
ENDROOT
BRANCH   8  11
ATOM      9  O   UNL     1     107.470 129.700 140.651  0.00  0.00    +0.000 OA
ATOM     10  O   UNL     1     107.476 130.535 141.811  0.00  0.00    +0.000 OA
ATOM     11  C   UNL     1     107.328 129.805 141.458  0.00  0.00    +0.000 C 
ENDBRANCH   8  11
BRANCH   4  12
ATOM     12  O   UNL     1     106.161 127.303 143.264  0.00  0.00    +0.000 OA
BRANCH  12  16
ATOM     13  O   UNL     1     105.968 126.448 142.135  0.00  0.00    +0.000 OA
ATOM     14  O   UNL     1     106.291 124.465 143.580  0.00  0.00    +0.000 OA
ATOM     15  O   UNL     1     105.991 124.272 141.969  0.00  0.00    +0.000 OA
ATOM     16  C   UNL     1     106.118 126.545 142.940  0.00  0.00    +0.000 C 
ATOM     17  C   UNL     1     106.226 125.883 143.422  0.00  0.00    +0.000 C 
ATOM     18  C   UNL     1     106.183 125.126 143.099  0.00  0.00    +0.000 C 
ATOM     19  C   UNL     1     106.033 125.030 142.293  0.00  0.00    +0.000 C 
ATOM     20  C   UNL     1     105.926 125.690 141.811  0.00  0.00    +0.000 C 
BRANCH  20  23
ATOM     21  O   UNL     1     106.404 125.549 140.472  0.00  0.00    +0.000 OA
ATOM     22  O   UNL     1     105.000 125.544 140.733  0.00  0.00    +0.000 OA
ATOM     23  C   UNL     1     105.776 125.594 141.006  0.00  0.00    +0.000 C 
ENDBRANCH  20  23
BRANCH  17  24
ATOM     24  O   UNL     1     106.376 125.981 144.228  0.00  0.00    +0.000 OA
BRANCH  24  26
ATOM     25  O   UNL     1     105.014 125.826 144.637  0.00  0.00    +0.000 OA
ATOM     26  C   UNL     1     105.820 125.727 144.784  0.00  0.00    +0.000 C 
BRANCH  26  27
ATOM     27  C   UNL     1     106.072 125.375 145.486  0.00  0.00    +0.000 C 
ATOM     28  C   UNL     1     105.947 125.758 146.207  0.00  0.00    +0.000 C 
BRANCH  28  30
ATOM     29  O   UNL     1     106.956 124.349 149.015  0.00  0.00    +0.000 OA
ATOM     30  C   UNL     1     106.199 125.406 146.909  0.00  0.00    +0.000 A 
ATOM     31  C   UNL     1     105.645 125.112 147.446  0.00  0.00    +0.000 A 
ATOM     32  C   UNL     1     107.005 125.347 147.074  0.00  0.00    +0.000 A 
ATOM     33  C   UNL     1     105.898 124.760 148.148  0.00  0.00    +0.000 A 
ATOM     34  C   UNL     1     107.257 124.995 147.777  0.00  0.00    +0.000 A 
ATOM     35  C   UNL     1     106.703 124.701 148.313  0.00  0.00    +0.000 A 
BRANCH  33  36
ATOM     36  O   UNL     1     105.344 124.467 148.684  0.00  0.00    +0.000 OA
ATOM     37  C   UNL     1     104.606 124.827 148.754  0.00  0.00    +0.000 C 
ENDBRANCH  33  36
ENDBRANCH  28  30
ENDBRANCH  26  27
ENDBRANCH  24  26
ENDBRANCH  17  24
ENDBRANCH  12  16
ENDBRANCH   4  12
BRANCH   7  38
ATOM     38  O   UNL     1     105.116 128.352 142.535  0.00  0.00    +0.000 OA
BRANCH  38  39
ATOM     39  C   UNL     1     104.607 128.992 142.428  0.00  0.00    +0.000 A 
ATOM     40  C   UNL     1     104.460 129.510 143.054  0.00  0.00    +0.000 A 
ATOM     41  C   UNL     1     104.246 129.114 141.697  0.00  0.00    +0.000 A 
ATOM     42  C   UNL     1     103.951 130.151 142.947  0.00  0.00    +0.000 A 
ATOM     43  C   UNL     1     103.737 129.754 141.591  0.00  0.00    +0.000 A 
ATOM     44  C   UNL     1     103.589 130.273 142.215  0.00  0.00    +0.000 A 
BRANCH  44  49
ATOM     45  O   UNL     1     103.385 131.652 141.904  0.00  0.00    +0.000 OA
ATOM     46  O   UNL     1     100.944 131.356 142.196  0.00  0.00    +0.000 OA
ATOM     47  O   UNL     1     100.710 132.745 141.886  0.00  0.00    +0.000 OA
ATOM     48  O   UNL     1     102.986 134.467 141.267  0.00  0.00    +0.000 OA
ATOM     49  C   UNL     1     103.080 130.913 142.108  0.00  0.00    +0.000 A 
ATOM     50  C   UNL     1     102.267 130.814 142.206  0.00  0.00    +0.000 A 
ATOM     51  C   UNL     1     102.876 132.293 141.797  0.00  0.00    +0.000 A 
ATOM     52  C   UNL     1     101.758 131.455 142.099  0.00  0.00    +0.000 A 
ATOM     53  C   UNL     1     102.062 132.194 141.894  0.00  0.00    +0.000 A 
ATOM     54  C   UNL     1     103.205 133.058 141.584  0.00  0.00    +0.000 A 
ATOM     55  C   UNL     1     101.522 132.853 141.786  0.00  0.00    +0.000 A 
ATOM     56  C   UNL     1     102.679 133.729 141.472  0.00  0.00    +0.000 A 
ATOM     57  C   UNL     1     101.833 133.625 141.573  0.00  0.00    +0.000 A 
ENDBRANCH  44  49
ENDBRANCH  38  39
ENDBRANCH   7  38
TORSDOF 12
ENDMDL
MODEL 3
REMARK VINA RESULT:     -10.1      3.300      6.990
REMARK  Name = 131752325
REMARK  12 active torsions:
REMARK  status: ('A' for Active; 'I' for Inactive)
REMARK    1  A    between atoms: O_1  and  C_21
REMARK    2  A    between atoms: O_1  and  C_23
REMARK    3  A    between atoms: O_4  and  C_24
REMARK    4  A    between atoms: O_4  and  C_34
REMARK    5  A    between atoms: O_6  and  C_27
REMARK    6  A    between atoms: O_6  and  C_33
REMARK    7  A    between atoms: O_17  and  C_50
REMARK    8  A    between atoms: C_29  and  C_31
REMARK    9  A    between atoms: C_30  and  C_32
REMARK   10  A    between atoms: C_34  and  C_37
REMARK   11  A    between atoms: C_40  and  C_42
REMARK   12  A    between atoms: C_41  and  C_43
REMARK                            x       y       z     vdW  Elec       q    Type
REMARK                         _______ _______ _______ _____ _____    ______ ____
ROOT
ATOM      1  O   UNL     1     107.860 130.213 142.879  0.00  0.00    +0.000 OA
ATOM      2  O   UNL     1     107.918 129.280 140.588  0.00  0.00    +0.000 OA
ATOM      3  O   UNL     1     106.834 130.462 140.970  0.00  0.00    +0.000 OA
ATOM      4  C   UNL     1     108.422 129.310 141.924  0.00  0.00    +0.000 C 
ATOM      5  C   UNL     1     107.899 129.591 141.352  0.00  0.00    +0.000 C 
ATOM      6  C   UNL     1     107.356 130.182 141.542  0.00  0.00    +0.000 C 
ATOM      7  C   UNL     1     108.403 129.621 142.688  0.00  0.00    +0.000 C 
ATOM      8  C   UNL     1     107.337 130.493 142.306  0.00  0.00    +0.000 C 
ENDROOT
BRANCH   8  11
ATOM      9  O   UNL     1     106.069 130.883 142.836  0.00  0.00    +0.000 OA
ATOM     10  O   UNL     1     106.977 131.875 142.350  0.00  0.00    +0.000 OA
ATOM     11  C   UNL     1     106.795 131.084 142.497  0.00  0.00    +0.000 C 
ENDBRANCH   8  11
BRANCH   4  12
ATOM     12  O   UNL     1     108.965 128.719 141.734  0.00  0.00    +0.000 OA
BRANCH  12  16
ATOM     13  O   UNL     1     108.020 127.705 142.083  0.00  0.00    +0.000 OA
ATOM     14  O   UNL     1     109.424 126.008 140.955  0.00  0.00    +0.000 OA
ATOM     15  O   UNL     1     108.012 125.560 141.681  0.00  0.00    +0.000 OA
ATOM     16  C   UNL     1     108.726 127.929 141.721  0.00  0.00    +0.000 C 
ATOM     17  C   UNL     1     109.195 127.363 141.344  0.00  0.00    +0.000 C 
ATOM     18  C   UNL     1     108.956 126.573 141.331  0.00  0.00    +0.000 C 
ATOM     19  C   UNL     1     108.250 126.350 141.694  0.00  0.00    +0.000 C 
ATOM     20  C   UNL     1     107.782 126.915 142.070  0.00  0.00    +0.000 C 
BRANCH  20  23
ATOM     21  O   UNL     1     106.373 126.688 142.001  0.00  0.00    +0.000 OA
ATOM     22  O   UNL     1     107.071 126.472 143.228  0.00  0.00    +0.000 OA
ATOM     23  C   UNL     1     107.076 126.692 142.433  0.00  0.00    +0.000 C 
ENDBRANCH  20  23
BRANCH  17  24
ATOM     24  O   UNL     1     109.901 127.587 140.981  0.00  0.00    +0.000 OA
BRANCH  24  26
ATOM     25  O   UNL     1     110.665 126.927 141.993  0.00  0.00    +0.000 OA
ATOM     26  C   UNL     1     110.620 127.462 141.367  0.00  0.00    +0.000 C 
BRANCH  26  27
ATOM     27  C   UNL     1     111.294 127.872 141.125  0.00  0.00    +0.000 C 
ATOM     28  C   UNL     1     111.967 127.877 141.602  0.00  0.00    +0.000 C 
BRANCH  28  30
ATOM     29  O   UNL     1     114.661 129.519 140.634  0.00  0.00    +0.000 OA
ATOM     30  C   UNL     1     112.641 128.286 141.360  0.00  0.00    +0.000 A 
ATOM     31  C   UNL     1     113.317 127.872 141.133  0.00  0.00    +0.000 A 
ATOM     32  C   UNL     1     112.638 129.112 141.345  0.00  0.00    +0.000 A 
ATOM     33  C   UNL     1     113.990 128.284 140.891  0.00  0.00    +0.000 A 
ATOM     34  C   UNL     1     113.311 129.522 141.103  0.00  0.00    +0.000 A 
ATOM     35  C   UNL     1     113.988 129.108 140.876  0.00  0.00    +0.000 A 
BRANCH  33  36
ATOM     36  O   UNL     1     114.667 127.869 140.664  0.00  0.00    +0.000 OA
ATOM     37  C   UNL     1     114.747 127.071 140.858  0.00  0.00    +0.000 C 
ENDBRANCH  33  36
ENDBRANCH  28  30
ENDBRANCH  26  27
ENDBRANCH  24  26
ENDBRANCH  17  24
ENDBRANCH  12  16
ENDBRANCH   4  12
BRANCH   7  38
ATOM     38  O   UNL     1     108.926 129.341 143.262  0.00  0.00    +0.000 OA
BRANCH  38  39
ATOM     39  C   UNL     1     109.301 129.870 143.771  0.00  0.00    +0.000 A 
ATOM     40  C   UNL     1     109.887 130.375 143.483  0.00  0.00    +0.000 A 
ATOM     41  C   UNL     1     109.091 129.894 144.568  0.00  0.00    +0.000 A 
ATOM     42  C   UNL     1     110.263 130.903 143.993  0.00  0.00    +0.000 A 
ATOM     43  C   UNL     1     109.467 130.423 145.078  0.00  0.00    +0.000 A 
ATOM     44  C   UNL     1     110.053 130.928 144.791  0.00  0.00    +0.000 A 
BRANCH  44  49
ATOM     45  O   UNL     1     111.205 131.316 145.540  0.00  0.00    +0.000 OA
ATOM     46  O   UNL     1     110.002 133.322 146.350  0.00  0.00    +0.000 OA
ATOM     47  O   UNL     1     111.151 133.738 147.116  0.00  0.00    +0.000 OA
ATOM     48  O   UNL     1     113.564 132.094 147.063  0.00  0.00    +0.000 OA
ATOM     49  C   UNL     1     110.428 131.456 145.301  0.00  0.00    +0.000 A 
ATOM     50  C   UNL     1     110.027 132.124 145.570  0.00  0.00    +0.000 A 
ATOM     51  C   UNL     1     111.581 131.845 146.050  0.00  0.00    +0.000 A 
ATOM     52  C   UNL     1     110.403 132.653 146.080  0.00  0.00    +0.000 A 
ATOM     53  C   UNL     1     111.180 132.514 146.320  0.00  0.00    +0.000 A 
ATOM     54  C   UNL     1     112.390 131.688 146.293  0.00  0.00    +0.000 A 
ATOM     55  C   UNL     1     111.560 133.072 146.851  0.00  0.00    +0.000 A 
ATOM     56  C   UNL     1     112.787 132.236 146.824  0.00  0.00    +0.000 A 
ATOM     57  C   UNL     1     112.369 132.932 147.105  0.00  0.00    +0.000 A 
ENDBRANCH  44  49
ENDBRANCH  38  39
ENDBRANCH   7  38
TORSDOF 12
ENDMDL
MODEL 4
REMARK VINA RESULT:     -10.1      1.876      2.800
REMARK  Name = 131752325
REMARK  12 active torsions:
REMARK  status: ('A' for Active; 'I' for Inactive)
REMARK    1  A    between atoms: O_1  and  C_21
REMARK    2  A    between atoms: O_1  and  C_23
REMARK    3  A    between atoms: O_4  and  C_24
REMARK    4  A    between atoms: O_4  and  C_34
REMARK    5  A    between atoms: O_6  and  C_27
REMARK    6  A    between atoms: O_6  and  C_33
REMARK    7  A    between atoms: O_17  and  C_50
REMARK    8  A    between atoms: C_29  and  C_31
REMARK    9  A    between atoms: C_30  and  C_32
REMARK   10  A    between atoms: C_34  and  C_37
REMARK   11  A    between atoms: C_40  and  C_42
REMARK   12  A    between atoms: C_41  and  C_43
REMARK                            x       y       z     vdW  Elec       q    Type
REMARK                         _______ _______ _______ _____ _____    ______ ____
ROOT
ATOM      1  O   UNL     1     108.713 126.778 140.633  0.00  0.00    +0.000 OA
ATOM      2  O   UNL     1     108.595 127.692 142.930  0.00  0.00    +0.000 OA
ATOM      3  O   UNL     1     107.659 126.402 142.506  0.00  0.00    +0.000 OA
ATOM      4  C   UNL     1     109.142 127.729 141.610  0.00  0.00    +0.000 C 
ATOM      5  C   UNL     1     108.635 127.387 142.164  0.00  0.00    +0.000 C 
ATOM      6  C   UNL     1     108.167 126.742 141.953  0.00  0.00    +0.000 C 
ATOM      7  C   UNL     1     109.182 127.424 140.845  0.00  0.00    +0.000 C 
ATOM      8  C   UNL     1     108.206 126.438 141.187  0.00  0.00    +0.000 C 
ENDROOT
BRANCH   8  11
ATOM      9  O   UNL     1     107.973 125.028 141.180  0.00  0.00    +0.000 OA
ATOM     10  O   UNL     1     107.036 125.910 140.558  0.00  0.00    +0.000 OA
ATOM     11  C   UNL     1     107.738 125.792 140.975  0.00  0.00    +0.000 C 
ENDBRANCH   8  11
BRANCH   4  12
ATOM     12  O   UNL     1     109.610 128.374 141.822  0.00  0.00    +0.000 OA
BRANCH  12  16
ATOM     13  O   UNL     1     108.567 129.284 141.467  0.00  0.00    +0.000 OA
ATOM     14  O   UNL     1     109.726 131.092 142.696  0.00  0.00    +0.000 OA
ATOM     15  O   UNL     1     108.296 131.399 141.931  0.00  0.00    +0.000 OA
ATOM     16  C   UNL     1     109.282 129.130 141.849  0.00  0.00    +0.000 C 
ATOM     17  C   UNL     1     109.668 129.734 142.259  0.00  0.00    +0.000 C 
ATOM     18  C   UNL     1     109.340 130.490 142.287  0.00  0.00    +0.000 C 
ATOM     19  C   UNL     1     108.625 130.643 141.904  0.00  0.00    +0.000 C 
ATOM     20  C   UNL     1     108.239 130.040 141.495  0.00  0.00    +0.000 C 
BRANCH  20  23
ATOM     21  O   UNL     1     107.523 130.453 140.329  0.00  0.00    +0.000 OA
ATOM     22  O   UNL     1     106.811 130.086 141.511  0.00  0.00    +0.000 OA
ATOM     23  C   UNL     1     107.524 130.193 141.112  0.00  0.00    +0.000 C 
ENDBRANCH  20  23
BRANCH  17  24
ATOM     24  O   UNL     1     110.383 129.580 142.641  0.00  0.00    +0.000 OA
BRANCH  24  26
ATOM     25  O   UNL     1     111.297 130.649 142.897  0.00  0.00    +0.000 OA
ATOM     26  C   UNL     1     111.060 130.006 142.437  0.00  0.00    +0.000 C 
BRANCH  26  27
ATOM     27  C   UNL     1     111.498 129.789 141.773  0.00  0.00    +0.000 C 
ATOM     28  C   UNL     1     112.323 129.822 141.795  0.00  0.00    +0.000 C 
BRANCH  28  30
ATOM     29  O   UNL     1     114.076 128.956 139.137  0.00  0.00    +0.000 OA
ATOM     30  C   UNL     1     112.762 129.605 141.131  0.00  0.00    +0.000 A 
ATOM     31  C   UNL     1     113.357 129.037 141.196  0.00  0.00    +0.000 A 
ATOM     32  C   UNL     1     112.604 129.956 140.400  0.00  0.00    +0.000 A 
ATOM     33  C   UNL     1     113.795 128.821 140.531  0.00  0.00    +0.000 A 
ATOM     34  C   UNL     1     113.043 129.739 139.736  0.00  0.00    +0.000 A 
ATOM     35  C   UNL     1     113.638 129.172 139.802  0.00  0.00    +0.000 A 
BRANCH  33  36
ATOM     36  O   UNL     1     114.390 128.254 140.596  0.00  0.00    +0.000 OA
ATOM     37  C   UNL     1     114.251 127.555 141.013  0.00  0.00    +0.000 C 
ENDBRANCH  33  36
ENDBRANCH  28  30
ENDBRANCH  26  27
ENDBRANCH  24  26
ENDBRANCH  17  24
ENDBRANCH  12  16
ENDBRANCH   4  12
BRANCH   7  38
ATOM     38  O   UNL     1     109.689 127.764 140.290  0.00  0.00    +0.000 OA
BRANCH  38  39
ATOM     39  C   UNL     1     110.172 127.285 139.823  0.00  0.00    +0.000 A 
ATOM     40  C   UNL     1     110.708 126.770 140.179  0.00  0.00    +0.000 A 
ATOM     41  C   UNL     1     110.117 127.322 139.002  0.00  0.00    +0.000 A 
ATOM     42  C   UNL     1     111.191 126.290 139.712  0.00  0.00    +0.000 A 
ATOM     43  C   UNL     1     110.600 126.843 138.534  0.00  0.00    +0.000 A 
ATOM     44  C   UNL     1     111.137 126.327 138.889  0.00  0.00    +0.000 A 
BRANCH  44  49
ATOM     45  O   UNL     1     112.438 125.954 138.432  0.00  0.00    +0.000 OA
ATOM     46  O   UNL     1     111.431 124.200 137.003  0.00  0.00    +0.000 OA
ATOM     47  O   UNL     1     112.732 123.803 136.524  0.00  0.00    +0.000 OA
ATOM     48  O   UNL     1     115.097 125.205 137.509  0.00  0.00    +0.000 OA
ATOM     49  C   UNL     1     111.619 125.848 138.422  0.00  0.00    +0.000 A 
ATOM     50  C   UNL     1     111.284 125.264 137.946  0.00  0.00    +0.000 A 
ATOM     51  C   UNL     1     112.920 125.475 137.964  0.00  0.00    +0.000 A 
ATOM     52  C   UNL     1     111.767 124.785 137.479  0.00  0.00    +0.000 A 
ATOM     53  C   UNL     1     112.585 124.890 137.488  0.00  0.00    +0.000 A 
ATOM     54  C   UNL     1     113.771 125.594 137.983  0.00  0.00    +0.000 A 
ATOM     55  C   UNL     1     113.077 124.385 136.997  0.00  0.00    +0.000 A 
ATOM     56  C   UNL     1     114.279 125.098 137.498  0.00  0.00    +0.000 A 
ATOM     57  C   UNL     1     113.929 124.490 137.002  0.00  0.00    +0.000 A 
ENDBRANCH  44  49
ENDBRANCH  38  39
ENDBRANCH   7  38
TORSDOF 12
ENDMDL
MODEL 5
REMARK VINA RESULT:     -10.0      1.251      2.482
REMARK  Name = 131752325
REMARK  12 active torsions:
REMARK  status: ('A' for Active; 'I' for Inactive)
REMARK    1  A    between atoms: O_1  and  C_21
REMARK    2  A    between atoms: O_1  and  C_23
REMARK    3  A    between atoms: O_4  and  C_24
REMARK    4  A    between atoms: O_4  and  C_34
REMARK    5  A    between atoms: O_6  and  C_27
REMARK    6  A    between atoms: O_6  and  C_33
REMARK    7  A    between atoms: O_17  and  C_50
REMARK    8  A    between atoms: C_29  and  C_31
REMARK    9  A    between atoms: C_30  and  C_32
REMARK   10  A    between atoms: C_34  and  C_37
REMARK   11  A    between atoms: C_40  and  C_42
REMARK   12  A    between atoms: C_41  and  C_43
REMARK                            x       y       z     vdW  Elec       q    Type
REMARK                         _______ _______ _______ _____ _____    ______ ____
ROOT
ATOM      1  O   UNL     1     110.071 129.153 136.336  0.00  0.00    +0.000 OA
ATOM      2  O   UNL     1     108.345 130.424 137.575  0.00  0.00    +0.000 OA
ATOM      3  O   UNL     1     107.960 129.678 136.155  0.00  0.00    +0.000 OA
ATOM      4  C   UNL     1     109.688 129.950 137.460  0.00  0.00    +0.000 C 
ATOM      5  C   UNL     1     108.920 130.000 137.162  0.00  0.00    +0.000 C 
ATOM      6  C   UNL     1     108.728 129.628 136.453  0.00  0.00    +0.000 C 
ATOM      7  C   UNL     1     110.264 129.527 137.047  0.00  0.00    +0.000 C 
ATOM      8  C   UNL     1     109.303 129.204 136.040  0.00  0.00    +0.000 C 
ENDROOT
BRANCH   8  11
ATOM      9  O   UNL     1     109.218 129.227 134.614  0.00  0.00    +0.000 OA
ATOM     10  O   UNL     1     108.812 128.062 135.335  0.00  0.00    +0.000 OA
ATOM     11  C   UNL     1     109.111 128.831 135.330  0.00  0.00    +0.000 C 
ENDBRANCH   8  11
BRANCH   4  12
ATOM     12  O   UNL     1     109.881 130.323 138.169  0.00  0.00    +0.000 OA
BRANCH  12  16
ATOM     13  O   UNL     1     110.180 131.539 137.480  0.00  0.00    +0.000 OA
ATOM     14  O   UNL     1     110.151 132.766 139.628  0.00  0.00    +0.000 OA
ATOM     15  O   UNL     1     110.459 133.572 138.221  0.00  0.00    +0.000 OA
ATOM     16  C   UNL     1     110.026 131.135 138.182  0.00  0.00    +0.000 C 
ATOM     17  C   UNL     1     110.016 131.545 138.899  0.00  0.00    +0.000 C 
ATOM     18  C   UNL     1     110.160 132.357 138.912  0.00  0.00    +0.000 C 
ATOM     19  C   UNL     1     110.315 132.760 138.208  0.00  0.00    +0.000 C 
ATOM     20  C   UNL     1     110.325 132.351 137.493  0.00  0.00    +0.000 C 
BRANCH  20  23
ATOM     21  O   UNL     1     111.255 132.829 136.519  0.00  0.00    +0.000 OA
ATOM     22  O   UNL     1     109.858 133.080 136.355  0.00  0.00    +0.000 OA
ATOM     23  C   UNL     1     110.479 132.753 136.789  0.00  0.00    +0.000 C 
ENDBRANCH  20  23
BRANCH  17  24
ATOM     24  O   UNL     1     109.861 131.142 139.602  0.00  0.00    +0.000 OA
BRANCH  24  26
ATOM     25  O   UNL     1     110.608 131.754 140.657  0.00  0.00    +0.000 OA
ATOM     26  C   UNL     1     110.442 131.096 140.187  0.00  0.00    +0.000 C 
BRANCH  26  27
ATOM     27  C   UNL     1     110.857 130.392 140.302  0.00  0.00    +0.000 C 
ATOM     28  C   UNL     1     111.332 130.298 140.970  0.00  0.00    +0.000 C 
BRANCH  28  30
ATOM     29  O   UNL     1     112.988 127.481 141.430  0.00  0.00    +0.000 OA
ATOM     30  C   UNL     1     111.746 129.594 141.085  0.00  0.00    +0.000 A 
ATOM     31  C   UNL     1     112.538 129.539 140.860  0.00  0.00    +0.000 A 
ATOM     32  C   UNL     1     111.368 128.944 141.425  0.00  0.00    +0.000 A 
ATOM     33  C   UNL     1     112.951 128.835 140.975  0.00  0.00    +0.000 A 
ATOM     34  C   UNL     1     111.782 128.240 141.540  0.00  0.00    +0.000 A 
ATOM     35  C   UNL     1     112.574 128.185 141.315  0.00  0.00    +0.000 A 
BRANCH  33  36
ATOM     36  O   UNL     1     113.743 128.780 140.749  0.00  0.00    +0.000 OA
ATOM     37  C   UNL     1     114.171 129.464 140.577  0.00  0.00    +0.000 C 
ENDBRANCH  33  36
ENDBRANCH  28  30
ENDBRANCH  26  27
ENDBRANCH  24  26
ENDBRANCH  17  24
ENDBRANCH  12  16
ENDBRANCH   4  12
BRANCH   7  38
ATOM     38  O   UNL     1     111.032 129.476 137.344  0.00  0.00    +0.000 OA
BRANCH  38  39
ATOM     39  C   UNL     1     111.430 128.754 137.337  0.00  0.00    +0.000 A 
ATOM     40  C   UNL     1     112.073 128.643 136.832  0.00  0.00    +0.000 A 
ATOM     41  C   UNL     1     111.186 128.144 137.834  0.00  0.00    +0.000 A 
ATOM     42  C   UNL     1     112.472 127.921 136.825  0.00  0.00    +0.000 A 
ATOM     43  C   UNL     1     111.585 127.422 137.827  0.00  0.00    +0.000 A 
ATOM     44  C   UNL     1     112.228 127.310 137.323  0.00  0.00    +0.000 A 
BRANCH  44  49
ATOM     45  O   UNL     1     112.234 125.902 137.077  0.00  0.00    +0.000 OA
ATOM     46  O   UNL     1     114.607 125.792 137.773  0.00  0.00    +0.000 OA
ATOM     47  O   UNL     1     114.640 124.370 137.533  0.00  0.00    +0.000 OA
ATOM     48  O   UNL     1     112.229 123.034 136.570  0.00  0.00    +0.000 OA
ATOM     49  C   UNL     1     112.626 126.587 137.316  0.00  0.00    +0.000 A 
ATOM     50  C   UNL     1     113.417 126.551 137.548  0.00  0.00    +0.000 A 
ATOM     51  C   UNL     1     112.632 125.180 137.070  0.00  0.00    +0.000 A 
ATOM     52  C   UNL     1     113.815 125.829 137.541  0.00  0.00    +0.000 A 
ATOM     53  C   UNL     1     113.424 125.143 137.302  0.00  0.00    +0.000 A 
ATOM     54  C   UNL     1     112.213 124.473 136.819  0.00  0.00    +0.000 A 
ATOM     55  C   UNL     1     113.850 124.397 137.299  0.00  0.00    +0.000 A 
ATOM     56  C   UNL     1     112.623 123.718 136.810  0.00  0.00    +0.000 A 
ATOM     57  C   UNL     1     113.447 123.680 137.051  0.00  0.00    +0.000 A 
ENDBRANCH  44  49
ENDBRANCH  38  39
ENDBRANCH   7  38
TORSDOF 12
ENDMDL
MODEL 6
REMARK VINA RESULT:      -9.9      1.920      5.459
REMARK  Name = 131752325
REMARK  12 active torsions:
REMARK  status: ('A' for Active; 'I' for Inactive)
REMARK    1  A    between atoms: O_1  and  C_21
REMARK    2  A    between atoms: O_1  and  C_23
REMARK    3  A    between atoms: O_4  and  C_24
REMARK    4  A    between atoms: O_4  and  C_34
REMARK    5  A    between atoms: O_6  and  C_27
REMARK    6  A    between atoms: O_6  and  C_33
REMARK    7  A    between atoms: O_17  and  C_50
REMARK    8  A    between atoms: C_29  and  C_31
REMARK    9  A    between atoms: C_30  and  C_32
REMARK   10  A    between atoms: C_34  and  C_37
REMARK   11  A    between atoms: C_40  and  C_42
REMARK   12  A    between atoms: C_41  and  C_43
REMARK                            x       y       z     vdW  Elec       q    Type
REMARK                         _______ _______ _______ _____ _____    ______ ____
ROOT
ATOM      1  O   UNL     1     110.267 131.202 138.495  0.00  0.00    +0.000 OA
ATOM      2  O   UNL     1     111.486 130.934 136.357  0.00  0.00    +0.000 OA
ATOM      3  O   UNL     1     110.792 132.381 136.735  0.00  0.00    +0.000 OA
ATOM      4  C   UNL     1     111.021 130.388 137.593  0.00  0.00    +0.000 C 
ATOM      5  C   UNL     1     111.080 131.023 137.070  0.00  0.00    +0.000 C 
ATOM      6  C   UNL     1     110.733 131.747 137.258  0.00  0.00    +0.000 C 
ATOM      7  C   UNL     1     110.615 130.477 138.305  0.00  0.00    +0.000 C 
ATOM      8  C   UNL     1     110.327 131.836 137.971  0.00  0.00    +0.000 C 
ENDROOT
BRANCH   8  11
ATOM      9  O   UNL     1     110.441 133.170 138.471  0.00  0.00    +0.000 OA
ATOM     10  O   UNL     1     109.172 132.675 138.039  0.00  0.00    +0.000 OA
ATOM     11  C   UNL     1     109.980 132.560 138.160  0.00  0.00    +0.000 C 
ENDBRANCH   8  11
BRANCH   4  12
ATOM     12  O   UNL     1     111.368 129.664 137.404  0.00  0.00    +0.000 OA
BRANCH  12  16
ATOM     13  O   UNL     1     110.189 129.264 136.703  0.00  0.00    +0.000 OA
ATOM     14  O   UNL     1     111.408 127.330 135.755  0.00  0.00    +0.000 OA
ATOM     15  O   UNL     1     109.822 127.575 135.370  0.00  0.00    +0.000 OA
ATOM     16  C   UNL     1     110.981 129.142 136.896  0.00  0.00    +0.000 C 
ATOM     17  C   UNL     1     111.388 128.497 136.579  0.00  0.00    +0.000 C 
ATOM     18  C   UNL     1     111.002 127.974 136.071  0.00  0.00    +0.000 C 
ATOM     19  C   UNL     1     110.209 128.097 135.879  0.00  0.00    +0.000 C 
ATOM     20  C   UNL     1     109.802 128.742 136.194  0.00  0.00    +0.000 C 
BRANCH  20  23
ATOM     21  O   UNL     1     108.811 129.296 135.327  0.00  0.00    +0.000 OA
ATOM     22  O   UNL     1     108.415 128.557 136.484  0.00  0.00    +0.000 OA
ATOM     23  C   UNL     1     109.009 128.865 136.002  0.00  0.00    +0.000 C 
ENDBRANCH  20  23
BRANCH  17  24
ATOM     24  O   UNL     1     112.181 128.375 136.772  0.00  0.00    +0.000 OA
BRANCH  24  26
ATOM     25  O   UNL     1     112.565 126.999 136.710  0.00  0.00    +0.000 OA
ATOM     26  C   UNL     1     112.410 127.678 137.152  0.00  0.00    +0.000 C 
BRANCH  26  27
ATOM     27  C   UNL     1     112.485 127.662 137.973  0.00  0.00    +0.000 C 
ATOM     28  C   UNL     1     112.897 127.047 138.338  0.00  0.00    +0.000 C 
BRANCH  28  30
ATOM     29  O   UNL     1     113.198 126.985 141.623  0.00  0.00    +0.000 OA
ATOM     30  C   UNL     1     112.972 127.031 139.159  0.00  0.00    +0.000 A 
ATOM     31  C   UNL     1     112.378 126.693 139.621  0.00  0.00    +0.000 A 
ATOM     32  C   UNL     1     113.642 127.354 139.518  0.00  0.00    +0.000 A 
ATOM     33  C   UNL     1     112.454 126.677 140.443  0.00  0.00    +0.000 A 
ATOM     34  C   UNL     1     113.716 127.338 140.340  0.00  0.00    +0.000 A 
ATOM     35  C   UNL     1     113.122 127.000 140.802  0.00  0.00    +0.000 A 
BRANCH  33  36
ATOM     36  O   UNL     1     111.860 126.339 140.905  0.00  0.00    +0.000 OA
ATOM     37  C   UNL     1     111.070 126.414 140.682  0.00  0.00    +0.000 C 
ENDBRANCH  33  36
ENDBRANCH  28  30
ENDBRANCH  26  27
ENDBRANCH  24  26
ENDBRANCH  17  24
ENDBRANCH  12  16
ENDBRANCH   4  12
BRANCH   7  38
ATOM     38  O   UNL     1     110.556 129.843 138.829  0.00  0.00    +0.000 OA
BRANCH  38  39
ATOM     39  C   UNL     1     110.669 129.963 139.638  0.00  0.00    +0.000 A 
ATOM     40  C   UNL     1     110.048 129.834 140.165  0.00  0.00    +0.000 A 
ATOM     41  C   UNL     1     111.404 130.211 139.918  0.00  0.00    +0.000 A 
ATOM     42  C   UNL     1     110.162 129.953 140.973  0.00  0.00    +0.000 A 
ATOM     43  C   UNL     1     111.518 130.331 140.726  0.00  0.00    +0.000 A 
ATOM     44  C   UNL     1     110.897 130.202 141.254  0.00  0.00    +0.000 A 
BRANCH  44  49
ATOM     45  O   UNL     1     111.206 129.685 142.550  0.00  0.00    +0.000 OA
ATOM     46  O   UNL     1     110.963 131.953 143.512  0.00  0.00    +0.000 OA
ATOM     47  O   UNL     1     111.272 131.458 144.831  0.00  0.00    +0.000 OA
ATOM     48  O   UNL     1     111.837 128.615 145.184  0.00  0.00    +0.000 OA
ATOM     49  C   UNL     1     111.011 130.322 142.062  0.00  0.00    +0.000 A 
ATOM     50  C   UNL     1     110.930 131.077 142.383  0.00  0.00    +0.000 A 
ATOM     51  C   UNL     1     111.320 129.805 143.358  0.00  0.00    +0.000 A 
ATOM     52  C   UNL     1     111.044 131.197 143.191  0.00  0.00    +0.000 A 
ATOM     53  C   UNL     1     111.239 130.561 143.679  0.00  0.00    +0.000 A 
ATOM     54  C   UNL     1     111.523 129.134 143.856  0.00  0.00    +0.000 A 
ATOM     55  C   UNL     1     111.355 130.699 144.519  0.00  0.00    +0.000 A 
ATOM     56  C   UNL     1     111.643 129.253 144.699  0.00  0.00    +0.000 A 
ATOM     57  C   UNL     1     111.558 130.040 145.032  0.00  0.00    +0.000 A 
ENDBRANCH  44  49
ENDBRANCH  38  39
ENDBRANCH   7  38
TORSDOF 12
ENDMDL
MODEL 7
REMARK VINA RESULT:      -9.8      3.553      5.265
REMARK  Name = 131752325
REMARK  12 active torsions:
REMARK  status: ('A' for Active; 'I' for Inactive)
REMARK    1  A    between atoms: O_1  and  C_21
REMARK    2  A    between atoms: O_1  and  C_23
REMARK    3  A    between atoms: O_4  and  C_24
REMARK    4  A    between atoms: O_4  and  C_34
REMARK    5  A    between atoms: O_6  and  C_27
REMARK    6  A    between atoms: O_6  and  C_33
REMARK    7  A    between atoms: O_17  and  C_50
REMARK    8  A    between atoms: C_29  and  C_31
REMARK    9  A    between atoms: C_30  and  C_32
REMARK   10  A    between atoms: C_34  and  C_37
REMARK   11  A    between atoms: C_40  and  C_42
REMARK   12  A    between atoms: C_41  and  C_43
REMARK                            x       y       z     vdW  Elec       q    Type
REMARK                         _______ _______ _______ _____ _____    ______ ____
ROOT
ATOM      1  O   UNL     1     107.360 128.934 142.248  0.00  0.00    +0.000 OA
ATOM      2  O   UNL     1     109.232 130.492 141.807  0.00  0.00    +0.000 OA
ATOM      3  O   UNL     1     107.674 131.011 141.657  0.00  0.00    +0.000 OA
ATOM      4  C   UNL     1     108.764 129.193 142.176  0.00  0.00    +0.000 C 
ATOM      5  C   UNL     1     108.608 129.973 141.954  0.00  0.00    +0.000 C 
ATOM      6  C   UNL     1     107.829 130.233 141.879  0.00  0.00    +0.000 C 
ATOM      7  C   UNL     1     108.140 128.674 142.323  0.00  0.00    +0.000 C 
ATOM      8  C   UNL     1     107.205 129.713 142.026  0.00  0.00    +0.000 C 
ENDROOT
BRANCH   8  11
ATOM      9  O   UNL     1     106.031 130.286 142.605  0.00  0.00    +0.000 OA
ATOM     10  O   UNL     1     106.041 129.919 141.223  0.00  0.00    +0.000 OA
ATOM     11  C   UNL     1     106.426 129.973 141.951  0.00  0.00    +0.000 C 
ENDBRANCH   8  11
BRANCH   4  12
ATOM     12  O   UNL     1     109.543 128.934 142.251  0.00  0.00    +0.000 OA
BRANCH  12  16
ATOM     13  O   UNL     1     109.581 129.338 143.621  0.00  0.00    +0.000 OA
ATOM     14  O   UNL     1     112.052 129.200 143.593  0.00  0.00    +0.000 OA
ATOM     15  O   UNL     1     111.266 129.650 144.972  0.00  0.00    +0.000 OA
ATOM     16  C   UNL     1     109.973 129.113 142.931  0.00  0.00    +0.000 C 
ATOM     17  C   UNL     1     110.798 129.067 142.922  0.00  0.00    +0.000 C 
ATOM     18  C   UNL     1     111.229 129.246 143.603  0.00  0.00    +0.000 C 
ATOM     19  C   UNL     1     110.835 129.471 144.292  0.00  0.00    +0.000 C 
ATOM     20  C   UNL     1     110.012 129.517 144.301  0.00  0.00    +0.000 C 
BRANCH  20  23
ATOM     21  O   UNL     1     109.531 130.543 145.173  0.00  0.00    +0.000 OA
ATOM     22  O   UNL     1     109.312 129.169 145.498  0.00  0.00    +0.000 OA
ATOM     23  C   UNL     1     109.618 129.743 144.991  0.00  0.00    +0.000 C 
ENDBRANCH  20  23
BRANCH  17  24
ATOM     24  O   UNL     1     111.190 128.841 142.233  0.00  0.00    +0.000 OA
BRANCH  24  26
ATOM     25  O   UNL     1     111.409 127.539 142.780  0.00  0.00    +0.000 OA
ATOM     26  C   UNL     1     111.526 128.089 142.177  0.00  0.00    +0.000 C 
BRANCH  26  27
ATOM     27  C   UNL     1     111.979 127.889 141.517  0.00  0.00    +0.000 C 
ATOM     28  C   UNL     1     111.945 127.122 141.211  0.00  0.00    +0.000 C 
BRANCH  28  30
ATOM     29  O   UNL     1     113.760 126.321 138.574  0.00  0.00    +0.000 OA
ATOM     30  C   UNL     1     112.398 126.922 140.552  0.00  0.00    +0.000 A 
ATOM     31  C   UNL     1     112.035 126.605 139.882  0.00  0.00    +0.000 A 
ATOM     32  C   UNL     1     113.216 127.039 140.562  0.00  0.00    +0.000 A 
ATOM     33  C   UNL     1     112.490 126.404 139.223  0.00  0.00    +0.000 A 
ATOM     34  C   UNL     1     113.669 126.838 139.903  0.00  0.00    +0.000 A 
ATOM     35  C   UNL     1     113.306 126.521 139.233  0.00  0.00    +0.000 A 
BRANCH  33  36
ATOM     36  O   UNL     1     112.127 126.087 138.554  0.00  0.00    +0.000 OA
ATOM     37  C   UNL     1     111.407 125.690 138.623  0.00  0.00    +0.000 C 
ENDBRANCH  33  36
ENDBRANCH  28  30
ENDBRANCH  26  27
ENDBRANCH  24  26
ENDBRANCH  17  24
ENDBRANCH  12  16
ENDBRANCH   4  12
BRANCH   7  38
ATOM     38  O   UNL     1     108.295 127.895 142.545  0.00  0.00    +0.000 OA
BRANCH  38  39
ATOM     39  C   UNL     1     107.891 127.274 142.182  0.00  0.00    +0.000 A 
ATOM     40  C   UNL     1     107.232 126.940 142.550  0.00  0.00    +0.000 A 
ATOM     41  C   UNL     1     108.145 126.988 141.452  0.00  0.00    +0.000 A 
ATOM     42  C   UNL     1     106.827 126.319 142.187  0.00  0.00    +0.000 A 
ATOM     43  C   UNL     1     107.740 126.367 141.089  0.00  0.00    +0.000 A 
ATOM     44  C   UNL     1     107.082 126.032 141.456  0.00  0.00    +0.000 A 
BRANCH  44  49
ATOM     45  O   UNL     1     106.032 125.570 140.605  0.00  0.00    +0.000 OA
ATOM     46  O   UNL     1     106.756 123.233 140.983  0.00  0.00    +0.000 OA
ATOM     47  O   UNL     1     105.704 122.739 140.127  0.00  0.00    +0.000 OA
ATOM     48  O   UNL     1     103.886 124.644 138.866  0.00  0.00    +0.000 OA
ATOM     49  C   UNL     1     106.678 125.411 141.093  0.00  0.00    +0.000 A 
ATOM     50  C   UNL     1     106.919 124.633 141.220  0.00  0.00    +0.000 A 
ATOM     51  C   UNL     1     105.628 124.949 140.242  0.00  0.00    +0.000 A 
ATOM     52  C   UNL     1     106.514 124.012 140.857  0.00  0.00    +0.000 A 
ATOM     53  C   UNL     1     105.869 124.169 140.368  0.00  0.00    +0.000 A 
ATOM     54  C   UNL     1     104.957 125.127 139.735  0.00  0.00    +0.000 A 
ATOM     55  C   UNL     1     105.456 123.514 139.996  0.00  0.00    +0.000 A 
ATOM     56  C   UNL     1     104.531 124.483 139.354  0.00  0.00    +0.000 A 
ATOM     57  C   UNL     1     104.783 123.673 139.486  0.00  0.00    +0.000 A 
ENDBRANCH  44  49
ENDBRANCH  38  39
ENDBRANCH   7  38
TORSDOF 12
ENDMDL
MODEL 8
REMARK VINA RESULT:      -9.8      1.198      3.964
REMARK  Name = 131752325
REMARK  12 active torsions:
REMARK  status: ('A' for Active; 'I' for Inactive)
REMARK    1  A    between atoms: O_1  and  C_21
REMARK    2  A    between atoms: O_1  and  C_23
REMARK    3  A    between atoms: O_4  and  C_24
REMARK    4  A    between atoms: O_4  and  C_34
REMARK    5  A    between atoms: O_6  and  C_27
REMARK    6  A    between atoms: O_6  and  C_33
REMARK    7  A    between atoms: O_17  and  C_50
REMARK    8  A    between atoms: C_29  and  C_31
REMARK    9  A    between atoms: C_30  and  C_32
REMARK   10  A    between atoms: C_34  and  C_37
REMARK   11  A    between atoms: C_40  and  C_42
REMARK   12  A    between atoms: C_41  and  C_43
REMARK                            x       y       z     vdW  Elec       q    Type
REMARK                         _______ _______ _______ _____ _____    ______ ____
ROOT
ATOM      1  O   UNL     1     111.682 129.088 140.694  0.00  0.00    +0.000 OA
ATOM      2  O   UNL     1     111.166 131.491 140.405  0.00  0.00    +0.000 OA
ATOM      3  O   UNL     1     112.317 131.019 141.488  0.00  0.00    +0.000 OA
ATOM      4  C   UNL     1     110.934 130.126 140.056  0.00  0.00    +0.000 C 
ATOM      5  C   UNL     1     111.338 130.690 140.501  0.00  0.00    +0.000 C 
ATOM      6  C   UNL     1     111.913 130.455 141.043  0.00  0.00    +0.000 C 
ATOM      7  C   UNL     1     111.106 129.325 140.152  0.00  0.00    +0.000 C 
ATOM      8  C   UNL     1     112.085 129.654 141.139  0.00  0.00    +0.000 C 
ENDROOT
BRANCH   8  11
ATOM      9  O   UNL     1     112.442 129.208 142.449  0.00  0.00    +0.000 OA
ATOM     10  O   UNL     1     113.453 129.389 141.455  0.00  0.00    +0.000 OA
ATOM     11  C   UNL     1     112.660 129.417 141.681  0.00  0.00    +0.000 C 
ENDBRANCH   8  11
BRANCH   4  12
ATOM     12  O   UNL     1     110.359 130.361 139.514  0.00  0.00    +0.000 OA
BRANCH  12  16
ATOM     13  O   UNL     1     109.357 130.334 140.534  0.00  0.00    +0.000 OA
ATOM     14  O   UNL     1     107.803 131.550 139.042  0.00  0.00    +0.000 OA
ATOM     15  O   UNL     1     107.321 131.116 140.559  0.00  0.00    +0.000 OA
ATOM     16  C   UNL     1     109.599 130.550 139.775  0.00  0.00    +0.000 C 
ATOM     17  C   UNL     1     109.080 130.956 139.278  0.00  0.00    +0.000 C 
ATOM     18  C   UNL     1     108.321 131.144 139.539  0.00  0.00    +0.000 C 
ATOM     19  C   UNL     1     108.080 130.927 140.298  0.00  0.00    +0.000 C 
ATOM     20  C   UNL     1     108.598 130.522 140.795  0.00  0.00    +0.000 C 
BRANCH  20  23
ATOM     21  O   UNL     1     108.053 129.550 141.689  0.00  0.00    +0.000 OA
ATOM     22  O   UNL     1     108.422 130.841 142.177  0.00  0.00    +0.000 OA
ATOM     23  C   UNL     1     108.358 130.305 141.554  0.00  0.00    +0.000 C 
ENDBRANCH  20  23
BRANCH  17  24
ATOM     24  O   UNL     1     109.322 131.172 138.519  0.00  0.00    +0.000 OA
BRANCH  24  26
ATOM     25  O   UNL     1     108.224 131.343 137.620  0.00  0.00    +0.000 OA
ATOM     26  C   UNL     1     108.890 130.921 137.862  0.00  0.00    +0.000 C 
BRANCH  26  27
ATOM     27  C   UNL     1     109.125 130.248 137.447  0.00  0.00    +0.000 C 
ATOM     28  C   UNL     1     109.048 130.222 136.626  0.00  0.00    +0.000 C 
BRANCH  28  30
ATOM     29  O   UNL     1     109.987 127.527 134.969  0.00  0.00    +0.000 OA
ATOM     30  C   UNL     1     109.283 129.548 136.211  0.00  0.00    +0.000 A 
ATOM     31  C   UNL     1     109.962 129.568 135.743  0.00  0.00    +0.000 A 
ATOM     32  C   UNL     1     108.838 128.855 136.266  0.00  0.00    +0.000 A 
ATOM     33  C   UNL     1     110.196 128.894 135.329  0.00  0.00    +0.000 A 
ATOM     34  C   UNL     1     109.074 128.181 135.851  0.00  0.00    +0.000 A 
ATOM     35  C   UNL     1     109.753 128.201 135.383  0.00  0.00    +0.000 A 
BRANCH  33  36
ATOM     36  O   UNL     1     110.875 128.913 134.861  0.00  0.00    +0.000 OA
ATOM     37  C   UNL     1     111.499 129.415 135.059  0.00  0.00    +0.000 C 
ENDBRANCH  33  36
ENDBRANCH  28  30
ENDBRANCH  26  27
ENDBRANCH  24  26
ENDBRANCH  17  24
ENDBRANCH  12  16
ENDBRANCH   4  12
BRANCH   7  38
ATOM     38  O   UNL     1     110.702 128.759 139.707  0.00  0.00    +0.000 OA
BRANCH  38  39
ATOM     39  C   UNL     1     111.117 128.142 139.350  0.00  0.00    +0.000 A 
ATOM     40  C   UNL     1     111.041 127.373 139.640  0.00  0.00    +0.000 A 
ATOM     41  C   UNL     1     111.607 128.293 138.704  0.00  0.00    +0.000 A 
ATOM     42  C   UNL     1     111.456 126.755 139.283  0.00  0.00    +0.000 A 
ATOM     43  C   UNL     1     112.021 127.676 138.347  0.00  0.00    +0.000 A 
ATOM     44  C   UNL     1     111.947 126.907 138.636  0.00  0.00    +0.000 A 
BRANCH  44  49
ATOM     45  O   UNL     1     111.960 125.740 137.812  0.00  0.00    +0.000 OA
ATOM     46  O   UNL     1     114.406 125.537 138.142  0.00  0.00    +0.000 OA
ATOM     47  O   UNL     1     114.448 124.356 137.314  0.00  0.00    +0.000 OA
ATOM     48  O   UNL     1     111.971 123.361 136.130  0.00  0.00    +0.000 OA
ATOM     49  C   UNL     1     112.361 126.289 138.279  0.00  0.00    +0.000 A 
ATOM     50  C   UNL     1     113.175 126.222 138.389  0.00  0.00    +0.000 A 
ATOM     51  C   UNL     1     112.375 125.122 137.455  0.00  0.00    +0.000 A 
ATOM     52  C   UNL     1     113.590 125.605 138.032  0.00  0.00    +0.000 A 
ATOM     53  C   UNL     1     113.191 125.054 137.565  0.00  0.00    +0.000 A 
ATOM     54  C   UNL     1     111.947 124.556 136.971  0.00  0.00    +0.000 A 
ATOM     55  C   UNL     1     113.633 124.416 137.199  0.00  0.00    +0.000 A 
ATOM     56  C   UNL     1     112.374 123.910 136.597  0.00  0.00    +0.000 A 
ATOM     57  C   UNL     1     113.222 123.840 136.711  0.00  0.00    +0.000 A 
ENDBRANCH  44  49
ENDBRANCH  38  39
ENDBRANCH   7  38
TORSDOF 12
ENDMDL
MODEL 9
REMARK VINA RESULT:      -9.8      5.427      9.695
REMARK  Name = 131752325
REMARK  12 active torsions:
REMARK  status: ('A' for Active; 'I' for Inactive)
REMARK    1  A    between atoms: O_1  and  C_21
REMARK    2  A    between atoms: O_1  and  C_23
REMARK    3  A    between atoms: O_4  and  C_24
REMARK    4  A    between atoms: O_4  and  C_34
REMARK    5  A    between atoms: O_6  and  C_27
REMARK    6  A    between atoms: O_6  and  C_33
REMARK    7  A    between atoms: O_17  and  C_50
REMARK    8  A    between atoms: C_29  and  C_31
REMARK    9  A    between atoms: C_30  and  C_32
REMARK   10  A    between atoms: C_34  and  C_37
REMARK   11  A    between atoms: C_40  and  C_42
REMARK   12  A    between atoms: C_41  and  C_43
REMARK                            x       y       z     vdW  Elec       q    Type
REMARK                         _______ _______ _______ _____ _____    ______ ____
ROOT
ATOM      1  O   UNL     1     106.177 127.553 143.309  0.00  0.00    +0.000 OA
ATOM      2  O   UNL     1     106.596 125.117 143.182  0.00  0.00    +0.000 OA
ATOM      3  O   UNL     1     106.727 125.903 144.626  0.00  0.00    +0.000 OA
ATOM      4  C   UNL     1     106.251 126.347 142.544  0.00  0.00    +0.000 C 
ATOM      5  C   UNL     1     106.456 125.929 143.225  0.00  0.00    +0.000 C 
ATOM      6  C   UNL     1     106.522 126.321 143.947  0.00  0.00    +0.000 C 
ATOM      7  C   UNL     1     106.111 127.159 142.586  0.00  0.00    +0.000 C 
ATOM      8  C   UNL     1     106.382 127.133 143.989  0.00  0.00    +0.000 C 
ENDROOT
BRANCH   8  11
ATOM      9  O   UNL     1     107.174 127.840 144.945  0.00  0.00    +0.000 OA
ATOM     10  O   UNL     1     105.787 127.607 145.199  0.00  0.00    +0.000 OA
ATOM     11  C   UNL     1     106.447 127.526 144.711  0.00  0.00    +0.000 C 
ENDBRANCH   8  11
BRANCH   4  12
ATOM     12  O   UNL     1     106.186 125.955 141.822  0.00  0.00    +0.000 OA
BRANCH  12  16
ATOM     13  O   UNL     1     107.591 126.095 141.603  0.00  0.00    +0.000 OA
ATOM     14  O   UNL     1     107.307 125.314 139.272  0.00  0.00    +0.000 OA
ATOM     15  O   UNL     1     108.807 125.715 139.831  0.00  0.00    +0.000 OA
ATOM     16  C   UNL     1     106.841 125.895 141.324  0.00  0.00    +0.000 C 
ATOM     17  C   UNL     1     106.746 125.634 140.546  0.00  0.00    +0.000 C 
ATOM     18  C   UNL     1     107.402 125.574 140.049  0.00  0.00    +0.000 C 
ATOM     19  C   UNL     1     108.151 125.775 140.329  0.00  0.00    +0.000 C 
ATOM     20  C   UNL     1     108.246 126.035 141.105  0.00  0.00    +0.000 C 
BRANCH  20  23
ATOM     21  O   UNL     1     109.490 125.652 141.695  0.00  0.00    +0.000 OA
ATOM     22  O   UNL     1     109.252 127.019 141.356  0.00  0.00    +0.000 OA
ATOM     23  C   UNL     1     108.996 126.236 141.385  0.00  0.00    +0.000 C 
ENDBRANCH  20  23
BRANCH  17  24
ATOM     24  O   UNL     1     105.996 125.434 140.268  0.00  0.00    +0.000 OA
BRANCH  24  26
ATOM     25  O   UNL     1     106.180 124.029 140.461  0.00  0.00    +0.000 OA
ATOM     26  C   UNL     1     105.832 124.654 140.050  0.00  0.00    +0.000 C 
BRANCH  26  27
ATOM     27  C   UNL     1     105.320 124.501 139.422  0.00  0.00    +0.000 C 
ATOM     28  C   UNL     1     104.714 123.946 139.510  0.00  0.00    +0.000 C 
BRANCH  28  30
ATOM     29  O   UNL     1     102.666 123.333 136.996  0.00  0.00    +0.000 OA
ATOM     30  C   UNL     1     104.202 123.793 138.882  0.00  0.00    +0.000 A 
ATOM     31  C   UNL     1     103.386 123.787 139.007  0.00  0.00    +0.000 A 
ATOM     32  C   UNL     1     104.506 123.646 138.129  0.00  0.00    +0.000 A 
ATOM     33  C   UNL     1     102.875 123.634 138.378  0.00  0.00    +0.000 A 
ATOM     34  C   UNL     1     103.993 123.492 137.501  0.00  0.00    +0.000 A 
ATOM     35  C   UNL     1     103.178 123.487 137.625  0.00  0.00    +0.000 A 
BRANCH  33  36
ATOM     36  O   UNL     1     102.059 123.628 138.502  0.00  0.00    +0.000 OA
ATOM     37  C   UNL     1     101.732 123.130 139.072  0.00  0.00    +0.000 C 
ENDBRANCH  33  36
ENDBRANCH  28  30
ENDBRANCH  26  27
ENDBRANCH  24  26
ENDBRANCH  17  24
ENDBRANCH  12  16
ENDBRANCH   4  12
BRANCH   7  38
ATOM     38  O   UNL     1     105.906 127.579 141.906  0.00  0.00    +0.000 OA
BRANCH  38  39
ATOM     39  C   UNL     1     105.339 128.177 141.945  0.00  0.00    +0.000 A 
ATOM     40  C   UNL     1     104.536 127.984 141.943  0.00  0.00    +0.000 A 
ATOM     41  C   UNL     1     105.574 128.966 141.987  0.00  0.00    +0.000 A 
ATOM     42  C   UNL     1     103.969 128.582 141.982  0.00  0.00    +0.000 A 
ATOM     43  C   UNL     1     105.007 129.564 142.026  0.00  0.00    +0.000 A 
ATOM     44  C   UNL     1     104.205 129.373 142.024  0.00  0.00    +0.000 A 
BRANCH  44  49
ATOM     45  O   UNL     1     103.439 130.303 142.792  0.00  0.00    +0.000 OA
ATOM     46  O   UNL     1     102.336 131.100 140.724  0.00  0.00    +0.000 OA
ATOM     47  O   UNL     1     101.550 132.048 141.475  0.00  0.00    +0.000 OA
ATOM     48  O   UNL     1     101.885 132.193 144.372  0.00  0.00    +0.000 OA
ATOM     49  C   UNL     1     103.638 129.971 142.063  0.00  0.00    +0.000 A 
ATOM     50  C   UNL     1     103.271 130.236 141.374  0.00  0.00    +0.000 A 
ATOM     51  C   UNL     1     102.872 130.901 142.831  0.00  0.00    +0.000 A 
ATOM     52  C   UNL     1     102.704 130.834 141.413  0.00  0.00    +0.000 A 
ATOM     53  C   UNL     1     102.504 131.167 142.141  0.00  0.00    +0.000 A 
ATOM     54  C   UNL     1     102.673 131.239 143.596  0.00  0.00    +0.000 A 
ATOM     55  C   UNL     1     101.912 131.789 142.169  0.00  0.00    +0.000 A 
ATOM     56  C   UNL     1     102.082 131.862 143.642  0.00  0.00    +0.000 A 
ATOM     57  C   UNL     1     101.700 132.139 142.925  0.00  0.00    +0.000 A 
ENDBRANCH  44  49
ENDBRANCH  38  39
ENDBRANCH   7  38
TORSDOF 12
ENDMDL
MODEL 10
REMARK VINA RESULT:      -9.8      2.646      4.491
REMARK  Name = 131752325
REMARK  12 active torsions:
REMARK  status: ('A' for Active; 'I' for Inactive)
REMARK    1  A    between atoms: O_1  and  C_21
REMARK    2  A    between atoms: O_1  and  C_23
REMARK    3  A    between atoms: O_4  and  C_24
REMARK    4  A    between atoms: O_4  and  C_34
REMARK    5  A    between atoms: O_6  and  C_27
REMARK    6  A    between atoms: O_6  and  C_33
REMARK    7  A    between atoms: O_17  and  C_50
REMARK    8  A    between atoms: C_29  and  C_31
REMARK    9  A    between atoms: C_30  and  C_32
REMARK   10  A    between atoms: C_34  and  C_37
REMARK   11  A    between atoms: C_40  and  C_42
REMARK   12  A    between atoms: C_41  and  C_43
REMARK                            x       y       z     vdW  Elec       q    Type
REMARK                         _______ _______ _______ _____ _____    ______ ____
ROOT
ATOM      1  O   UNL     1     110.682 130.382 139.636  0.00  0.00    +0.000 OA
ATOM      2  O   UNL     1     108.348 129.567 139.746  0.00  0.00    +0.000 OA
ATOM      3  O   UNL     1     108.663 131.182 139.843  0.00  0.00    +0.000 OA
ATOM      4  C   UNL     1     109.747 129.301 139.624  0.00  0.00    +0.000 C 
ATOM      5  C   UNL     1     109.126 129.838 139.709  0.00  0.00    +0.000 C 
ATOM      6  C   UNL     1     109.283 130.646 139.758  0.00  0.00    +0.000 C 
ATOM      7  C   UNL     1     110.525 129.573 139.587  0.00  0.00    +0.000 C 
ATOM      8  C   UNL     1     110.061 130.918 139.721  0.00  0.00    +0.000 C 
ENDROOT
BRANCH   8  11
ATOM      9  O   UNL     1     110.437 132.061 140.493  0.00  0.00    +0.000 OA
ATOM     10  O   UNL     1     110.160 132.200 139.097  0.00  0.00    +0.000 OA
ATOM     11  C   UNL     1     110.219 131.726 139.770  0.00  0.00    +0.000 C 
ENDBRANCH   8  11
BRANCH   4  12
ATOM     12  O   UNL     1     109.590 128.493 139.575  0.00  0.00    +0.000 OA
BRANCH  12  16
ATOM     13  O   UNL     1     109.602 128.388 141.001  0.00  0.00    +0.000 OA
ATOM     14  O   UNL     1     108.665 126.104 140.841  0.00  0.00    +0.000 OA
ATOM     15  O   UNL     1     108.990 126.761 142.320  0.00  0.00    +0.000 OA
ATOM     16  C   UNL     1     109.440 128.060 140.261  0.00  0.00    +0.000 C 
ATOM     17  C   UNL     1     109.127 127.298 140.209  0.00  0.00    +0.000 C 
ATOM     18  C   UNL     1     108.977 126.865 140.895  0.00  0.00    +0.000 C 
ATOM     19  C   UNL     1     109.140 127.194 141.634  0.00  0.00    +0.000 C 
ATOM     20  C   UNL     1     109.452 127.955 141.687  0.00  0.00    +0.000 C 
BRANCH  20  23
ATOM     21  O   UNL     1     109.004 128.609 142.876  0.00  0.00    +0.000 OA
ATOM     22  O   UNL     1     110.387 128.290 142.714  0.00  0.00    +0.000 OA
ATOM     23  C   UNL     1     109.615 128.285 142.426  0.00  0.00    +0.000 C 
ENDBRANCH  20  23
BRANCH  17  24
ATOM     24  O   UNL     1     108.965 126.970 139.469  0.00  0.00    +0.000 OA
BRANCH  24  26
ATOM     25  O   UNL     1     109.750 125.784 139.619  0.00  0.00    +0.000 OA
ATOM     26  C   UNL     1     109.474 126.404 139.149  0.00  0.00    +0.000 C 
BRANCH  26  27
ATOM     27  C   UNL     1     109.705 126.458 138.359  0.00  0.00    +0.000 C 
ATOM     28  C   UNL     1     110.123 125.838 138.009  0.00  0.00    +0.000 C 
BRANCH  28  30
ATOM     29  O   UNL     1     111.047 126.055 134.848  0.00  0.00    +0.000 OA
ATOM     30  C   UNL     1     110.355 125.892 137.219  0.00  0.00    +0.000 A 
ATOM     31  C   UNL     1     111.118 125.672 136.996  0.00  0.00    +0.000 A 
ATOM     32  C   UNL     1     109.822 126.167 136.651  0.00  0.00    +0.000 A 
ATOM     33  C   UNL     1     111.348 125.726 136.206  0.00  0.00    +0.000 A 
ATOM     34  C   UNL     1     110.053 126.221 135.862  0.00  0.00    +0.000 A 
ATOM     35  C   UNL     1     110.816 126.001 135.639  0.00  0.00    +0.000 A 
BRANCH  33  36
ATOM     36  O   UNL     1     112.111 125.506 135.983  0.00  0.00    +0.000 OA
ATOM     37  C   UNL     1     112.532 124.958 136.434  0.00  0.00    +0.000 C 
ENDBRANCH  33  36
ENDBRANCH  28  30
ENDBRANCH  26  27
ENDBRANCH  24  26
ENDBRANCH  17  24
ENDBRANCH  12  16
ENDBRANCH   4  12
BRANCH   7  38
ATOM     38  O   UNL     1     111.146 129.037 139.502  0.00  0.00    +0.000 OA
BRANCH  38  39
ATOM     39  C   UNL     1     111.674 129.113 138.873  0.00  0.00    +0.000 A 
ATOM     40  C   UNL     1     111.389 129.253 138.111  0.00  0.00    +0.000 A 
ATOM     41  C   UNL     1     112.485 129.049 139.005  0.00  0.00    +0.000 A 
ATOM     42  C   UNL     1     111.917 129.330 137.482  0.00  0.00    +0.000 A 
ATOM     43  C   UNL     1     113.013 129.125 138.376  0.00  0.00    +0.000 A 
ATOM     44  C   UNL     1     112.730 129.266 137.614  0.00  0.00    +0.000 A 
BRANCH  44  49
ATOM     45  O   UNL     1     113.597 130.076 136.818  0.00  0.00    +0.000 OA
ATOM     46  O   UNL     1     114.164 128.104 135.432  0.00  0.00    +0.000 OA
ATOM     47  O   UNL     1     115.045 128.899 134.612  0.00  0.00    +0.000 OA
ATOM     48  O   UNL     1     115.359 131.741 135.204  0.00  0.00    +0.000 OA
ATOM     49  C   UNL     1     113.258 129.342 136.985  0.00  0.00    +0.000 A 
ATOM     50  C   UNL     1     113.447 128.685 136.524  0.00  0.00    +0.000 A 
ATOM     51  C   UNL     1     114.124 130.152 136.188  0.00  0.00    +0.000 A 
ATOM     52  C   UNL     1     113.975 128.762 135.894  0.00  0.00    +0.000 A 
ATOM     53  C   UNL     1     114.314 129.494 135.726  0.00  0.00    +0.000 A 
ATOM     54  C   UNL     1     114.471 130.921 136.024  0.00  0.00    +0.000 A 
ATOM     55  C   UNL     1     114.862 129.561 135.068  0.00  0.00    +0.000 A 
ATOM     56  C   UNL     1     115.022 131.007 135.369  0.00  0.00    +0.000 A 
ATOM     57  C   UNL     1     115.218 130.322 134.889  0.00  0.00    +0.000 A 
ENDBRANCH  44  49
ENDBRANCH  38  39
ENDBRANCH   7  38
TORSDOF 12
ENDMDL
