MODEL 1
REMARK VINA RESULT:     -10.2      0.000      0.000
REMARK  Name = 74978069
REMARK  6 active torsions:
REMARK  status: ('A' for Active; 'I' for Inactive)
REMARK    1  A    between atoms: O_1  and  C_16
REMARK    2  A    between atoms: O_1  and  C_18
REMARK    3  A    between atoms: O_4  and  C_22
REMARK    4  A    between atoms: O_4  and  C_28
REMARK    5  A    between atoms: C_25  and  C_26
REMARK    6  A    between atoms: C_29  and  C_32
REMARK                            x       y       z     vdW  Elec       q    Type
REMARK                         _______ _______ _______ _____ _____    ______ ____
ROOT
ATOM      1  O   UNL     1     112.062 127.119 137.546  0.00  0.00    +0.000 OA
ENDROOT
BRANCH   1   6
ATOM      2  O   UNL     1     113.347 126.138 139.011  0.00  0.00    +0.000 OA
ATOM      3  O   UNL     1     112.502 128.403 138.484  0.00  0.00    +0.000 OA
ATOM      4  O   UNL     1     113.221 128.963 139.602  0.00  0.00    +0.000 OA
ATOM      5  O   UNL     1     114.825 127.199 141.286  0.00  0.00    +0.000 OA
ATOM      6  C   UNL     1     112.564 127.006 138.191  0.00  0.00    +0.000 A 
ATOM      7  C   UNL     1     112.845 126.251 138.366  0.00  0.00    +0.000 A 
ATOM      8  C   UNL     1     112.783 127.649 138.659  0.00  0.00    +0.000 A 
ATOM      9  C   UNL     1     113.285 127.536 139.304  0.00  0.00    +0.000 A 
ATOM     10  C   UNL     1     113.567 126.780 139.481  0.00  0.00    +0.000 A 
ATOM     11  C   UNL     1     113.507 128.212 139.786  0.00  0.00    +0.000 A 
ATOM     12  C   UNL     1     114.090 126.649 140.150  0.00  0.00    +0.000 A 
ATOM     13  C   UNL     1     114.030 128.101 140.459  0.00  0.00    +0.000 A 
ATOM     14  C   UNL     1     114.323 127.314 140.642  0.00  0.00    +0.000 A 
BRANCH   7  16
ATOM     15  O   UNL     1     111.969 123.681 136.491  0.00  0.00    +0.000 OA
ATOM     16  C   UNL     1     112.625 125.608 137.898  0.00  0.00    +0.000 A 
ATOM     17  C   UNL     1     113.135 125.335 137.309  0.00  0.00    +0.000 A 
ATOM     18  C   UNL     1     111.898 125.240 138.017  0.00  0.00    +0.000 A 
ATOM     19  C   UNL     1     112.916 124.692 136.840  0.00  0.00    +0.000 A 
ATOM     20  C   UNL     1     111.678 124.597 137.549  0.00  0.00    +0.000 A 
ATOM     21  C   UNL     1     112.187 124.323 136.960  0.00  0.00    +0.000 A 
ENDBRANCH   7  16
ENDBRANCH   1   6
BRANCH   1  28
ATOM     22  O   UNL     1     113.037 127.720 136.691  0.00  0.00    +0.000 OA
ATOM     23  O   UNL     1     111.294 129.199 135.743  0.00  0.00    +0.000 OA
ATOM     24  O   UNL     1     112.851 129.307 135.205  0.00  0.00    +0.000 OA
ATOM     25  C   UNL     1     111.678 128.160 136.644  0.00  0.00    +0.000 C 
ATOM     26  C   UNL     1     111.875 128.706 136.059  0.00  0.00    +0.000 C 
ATOM     27  C   UNL     1     112.653 128.760 135.790  0.00  0.00    +0.000 C 
ATOM     28  C   UNL     1     112.259 127.666 136.960  0.00  0.00    +0.000 C 
ATOM     29  C   UNL     1     113.234 128.267 136.106  0.00  0.00    +0.000 C 
ATOM     30  C   UNL     1     114.012 128.321 135.837  0.00  0.00    +0.000 C 
BRANCH  25  31
ATOM     31  O   UNL     1     110.900 128.105 136.913  0.00  0.00    +0.000 OA
BRANCH  31  36
ATOM     32  O   UNL     1     110.556 127.331 135.762  0.00  0.00    +0.000 OA
ATOM     33  O   UNL     1     109.329 128.057 137.416  0.00  0.00    +0.000 OA
ATOM     34  O   UNL     1     108.200 127.258 136.517  0.00  0.00    +0.000 OA
ATOM     35  O   UNL     1     108.641 126.508 135.115  0.00  0.00    +0.000 OA
ATOM     36  C   UNL     1     110.335 127.706 136.464  0.00  0.00    +0.000 C 
ATOM     37  C   UNL     1     109.550 127.681 136.714  0.00  0.00    +0.000 C 
ATOM     38  C   UNL     1     108.985 127.282 136.265  0.00  0.00    +0.000 C 
ATOM     39  C   UNL     1     109.206 126.907 135.564  0.00  0.00    +0.000 C 
ATOM     40  C   UNL     1     109.991 126.931 135.312  0.00  0.00    +0.000 C 
BRANCH  40  42
ATOM     41  O   UNL     1     110.447 125.766 134.623  0.00  0.00    +0.000 OA
ATOM     42  C   UNL     1     110.212 126.557 134.612  0.00  0.00    +0.000 C 
ENDBRANCH  40  42
ENDBRANCH  31  36
ENDBRANCH  25  31
ENDBRANCH   1  28
TORSDOF 6
ENDMDL
MODEL 2
REMARK VINA RESULT:     -10.1      1.513      4.913
REMARK  Name = 74978069
REMARK  6 active torsions:
REMARK  status: ('A' for Active; 'I' for Inactive)
REMARK    1  A    between atoms: O_1  and  C_16
REMARK    2  A    between atoms: O_1  and  C_18
REMARK    3  A    between atoms: O_4  and  C_22
REMARK    4  A    between atoms: O_4  and  C_28
REMARK    5  A    between atoms: C_25  and  C_26
REMARK    6  A    between atoms: C_29  and  C_32
REMARK                            x       y       z     vdW  Elec       q    Type
REMARK                         _______ _______ _______ _____ _____    ______ ____
ROOT
ATOM      1  O   UNL     1     111.459 128.002 136.529  0.00  0.00    +0.000 OA
ENDROOT
BRANCH   1   6
ATOM      2  O   UNL     1     111.004 129.866 135.489  0.00  0.00    +0.000 OA
ATOM      3  O   UNL     1     109.823 128.081 136.731  0.00  0.00    +0.000 OA
ATOM      4  O   UNL     1     108.556 128.742 136.531  0.00  0.00    +0.000 OA
ATOM      5  O   UNL     1     108.483 131.255 135.047  0.00  0.00    +0.000 OA
ATOM      6  C   UNL     1     111.035 128.637 136.216  0.00  0.00    +0.000 A 
ATOM      7  C   UNL     1     111.428 129.231 135.802  0.00  0.00    +0.000 A 
ATOM      8  C   UNL     1     110.217 128.676 136.317  0.00  0.00    +0.000 A 
ATOM      9  C   UNL     1     109.793 129.311 136.004  0.00  0.00    +0.000 A 
ATOM     10  C   UNL     1     110.187 129.906 135.590  0.00  0.00    +0.000 A 
ATOM     11  C   UNL     1     108.941 129.342 136.115  0.00  0.00    +0.000 A 
ATOM     12  C   UNL     1     109.756 130.572 135.259  0.00  0.00    +0.000 A 
ATOM     13  C   UNL     1     108.494 130.000 135.792  0.00  0.00    +0.000 A 
ATOM     14  C   UNL     1     108.904 130.619 135.361  0.00  0.00    +0.000 A 
BRANCH   7  16
ATOM     15  O   UNL     1     114.699 129.074 135.394  0.00  0.00    +0.000 OA
ATOM     16  C   UNL     1     112.246 129.192 135.701  0.00  0.00    +0.000 A 
ATOM     17  C   UNL     1     112.561 128.909 134.992  0.00  0.00    +0.000 A 
ATOM     18  C   UNL     1     112.750 129.436 136.306  0.00  0.00    +0.000 A 
ATOM     19  C   UNL     1     113.378 128.869 134.890  0.00  0.00    +0.000 A 
ATOM     20  C   UNL     1     113.568 129.397 136.205  0.00  0.00    +0.000 A 
ATOM     21  C   UNL     1     113.882 129.113 135.497  0.00  0.00    +0.000 A 
ENDBRANCH   7  16
ENDBRANCH   1   6
BRANCH   1  28
ATOM     22  O   UNL     1     111.004 127.044 135.571  0.00  0.00    +0.000 OA
ATOM     23  O   UNL     1     111.079 125.277 137.302  0.00  0.00    +0.000 OA
ATOM     24  O   UNL     1     110.600 124.908 135.767  0.00  0.00    +0.000 OA
ATOM     25  C   UNL     1     111.268 126.639 136.915  0.00  0.00    +0.000 C 
ATOM     26  C   UNL     1     111.054 125.866 136.725  0.00  0.00    +0.000 C 
ATOM     27  C   UNL     1     110.815 125.681 135.958  0.00  0.00    +0.000 C 
ATOM     28  C   UNL     1     111.244 127.228 136.338  0.00  0.00    +0.000 C 
ATOM     29  C   UNL     1     110.790 126.270 135.381  0.00  0.00    +0.000 C 
ATOM     30  C   UNL     1     110.550 126.086 134.612  0.00  0.00    +0.000 C 
BRANCH  25  31
ATOM     31  O   UNL     1     111.508 126.824 137.683  0.00  0.00    +0.000 OA
BRANCH  31  36
ATOM     32  O   UNL     1     112.779 126.219 137.432  0.00  0.00    +0.000 OA
ATOM     33  O   UNL     1     111.959 127.124 139.242  0.00  0.00    +0.000 OA
ATOM     34  O   UNL     1     113.454 126.670 139.770  0.00  0.00    +0.000 OA
ATOM     35  O   UNL     1     114.499 125.915 138.740  0.00  0.00    +0.000 OA
ATOM     36  C   UNL     1     112.256 126.597 137.947  0.00  0.00    +0.000 C 
ATOM     37  C   UNL     1     112.482 126.747 138.726  0.00  0.00    +0.000 C 
ATOM     38  C   UNL     1     113.229 126.519 138.991  0.00  0.00    +0.000 C 
ATOM     39  C   UNL     1     113.751 126.142 138.476  0.00  0.00    +0.000 C 
ATOM     40  C   UNL     1     113.527 125.992 137.696  0.00  0.00    +0.000 C 
BRANCH  40  42
ATOM     41  O   UNL     1     114.362 126.024 136.539  0.00  0.00    +0.000 OA
ATOM     42  C   UNL     1     114.048 125.615 137.181  0.00  0.00    +0.000 C 
ENDBRANCH  40  42
ENDBRANCH  31  36
ENDBRANCH  25  31
ENDBRANCH   1  28
TORSDOF 6
ENDMDL
MODEL 3
REMARK VINA RESULT:      -9.9      1.771      3.842
REMARK  Name = 74978069
REMARK  6 active torsions:
REMARK  status: ('A' for Active; 'I' for Inactive)
REMARK    1  A    between atoms: O_1  and  C_16
REMARK    2  A    between atoms: O_1  and  C_18
REMARK    3  A    between atoms: O_4  and  C_22
REMARK    4  A    between atoms: O_4  and  C_28
REMARK    5  A    between atoms: C_25  and  C_26
REMARK    6  A    between atoms: C_29  and  C_32
REMARK                            x       y       z     vdW  Elec       q    Type
REMARK                         _______ _______ _______ _____ _____    ______ ____
ROOT
ATOM      1  O   UNL     1     111.248 127.821 136.968  0.00  0.00    +0.000 OA
ENDROOT
BRANCH   1   6
ATOM      2  O   UNL     1     112.868 126.508 136.327  0.00  0.00    +0.000 OA
ATOM      3  O   UNL     1     110.722 126.369 137.550  0.00  0.00    +0.000 OA
ATOM      4  O   UNL     1     110.889 124.949 137.740  0.00  0.00    +0.000 OA
ATOM      5  O   UNL     1     113.273 123.645 136.671  0.00  0.00    +0.000 OA
ATOM      6  C   UNL     1     111.701 127.141 136.851  0.00  0.00    +0.000 A 
ATOM      7  C   UNL     1     112.416 127.188 136.444  0.00  0.00    +0.000 A 
ATOM      8  C   UNL     1     111.437 126.416 137.142  0.00  0.00    +0.000 A 
ATOM      9  C   UNL     1     111.890 125.736 137.025  0.00  0.00    +0.000 A 
ATOM     10  C   UNL     1     112.606 125.782 136.617  0.00  0.00    +0.000 A 
ATOM     11  C   UNL     1     111.606 124.985 137.333  0.00  0.00    +0.000 A 
ATOM     12  C   UNL     1     113.086 125.081 136.489  0.00  0.00    +0.000 A 
ATOM     13  C   UNL     1     112.073 124.274 137.214  0.00  0.00    +0.000 A 
ATOM     14  C   UNL     1     112.818 124.323 136.790  0.00  0.00    +0.000 A 
BRANCH   7  16
ATOM     15  O   UNL     1     113.467 130.090 135.277  0.00  0.00    +0.000 OA
ATOM     16  C   UNL     1     112.679 127.914 136.152  0.00  0.00    +0.000 A 
ATOM     17  C   UNL     1     112.370 128.211 135.448  0.00  0.00    +0.000 A 
ATOM     18  C   UNL     1     113.251 128.341 136.565  0.00  0.00    +0.000 A 
ATOM     19  C   UNL     1     112.632 128.937 135.156  0.00  0.00    +0.000 A 
ATOM     20  C   UNL     1     113.514 129.067 136.273  0.00  0.00    +0.000 A 
ATOM     21  C   UNL     1     113.205 129.365 135.569  0.00  0.00    +0.000 A 
ENDBRANCH   7  16
ENDBRANCH   1   6
BRANCH   1  28
ATOM     22  O   UNL     1     111.579 127.996 138.347  0.00  0.00    +0.000 OA
ATOM     23  O   UNL     1     109.290 128.824 138.792  0.00  0.00    +0.000 OA
ATOM     24  O   UNL     1     110.384 128.723 140.023  0.00  0.00    +0.000 OA
ATOM     25  C   UNL     1     110.268 128.323 137.881  0.00  0.00    +0.000 C 
ATOM     26  C   UNL     1     110.053 128.548 138.644  0.00  0.00    +0.000 C 
ATOM     27  C   UNL     1     110.599 128.497 139.259  0.00  0.00    +0.000 C 
ATOM     28  C   UNL     1     111.031 128.047 137.732  0.00  0.00    +0.000 C 
ATOM     29  C   UNL     1     111.363 128.221 139.111  0.00  0.00    +0.000 C 
ATOM     30  C   UNL     1     111.910 128.171 139.726  0.00  0.00    +0.000 C 
BRANCH  25  31
ATOM     31  O   UNL     1     109.721 128.373 137.265  0.00  0.00    +0.000 OA
BRANCH  31  36
ATOM     32  O   UNL     1     109.938 129.784 137.186  0.00  0.00    +0.000 OA
ATOM     33  O   UNL     1     108.529 128.492 136.131  0.00  0.00    +0.000 OA
ATOM     34  O   UNL     1     108.149 129.962 135.485  0.00  0.00    +0.000 OA
ATOM     35  O   UNL     1     108.961 131.313 135.973  0.00  0.00    +0.000 OA
ATOM     36  C   UNL     1     109.531 129.108 136.942  0.00  0.00    +0.000 C 
ATOM     37  C   UNL     1     108.935 129.168 136.375  0.00  0.00    +0.000 C 
ATOM     38  C   UNL     1     108.745 129.903 136.052  0.00  0.00    +0.000 C 
ATOM     39  C   UNL     1     109.151 130.578 136.296  0.00  0.00    +0.000 C 
ATOM     40  C   UNL     1     109.748 130.519 136.863  0.00  0.00    +0.000 C 
BRANCH  40  42
ATOM     41  O   UNL     1     110.946 131.295 136.902  0.00  0.00    +0.000 OA
ATOM     42  C   UNL     1     110.154 131.193 137.107  0.00  0.00    +0.000 C 
ENDBRANCH  40  42
ENDBRANCH  31  36
ENDBRANCH  25  31
ENDBRANCH   1  28
TORSDOF 6
ENDMDL
MODEL 4
REMARK VINA RESULT:      -9.9      2.393      4.234
REMARK  Name = 74978069
REMARK  6 active torsions:
REMARK  status: ('A' for Active; 'I' for Inactive)
REMARK    1  A    between atoms: O_1  and  C_16
REMARK    2  A    between atoms: O_1  and  C_18
REMARK    3  A    between atoms: O_4  and  C_22
REMARK    4  A    between atoms: O_4  and  C_28
REMARK    5  A    between atoms: C_25  and  C_26
REMARK    6  A    between atoms: C_29  and  C_32
REMARK                            x       y       z     vdW  Elec       q    Type
REMARK                         _______ _______ _______ _____ _____    ______ ____
ROOT
ATOM      1  O   UNL     1     111.528 126.381 138.985  0.00  0.00    +0.000 OA
ENDROOT
BRANCH   1   6
ATOM      2  O   UNL     1     113.679 126.210 138.659  0.00  0.00    +0.000 OA
ATOM      3  O   UNL     1     111.574 125.234 137.800  0.00  0.00    +0.000 OA
ATOM      4  O   UNL     1     112.304 124.393 136.882  0.00  0.00    +0.000 OA
ATOM      5  O   UNL     1     115.219 124.543 136.833  0.00  0.00    +0.000 OA
ATOM      6  C   UNL     1     112.253 126.133 138.679  0.00  0.00    +0.000 A 
ATOM      7  C   UNL     1     112.954 126.458 138.965  0.00  0.00    +0.000 A 
ATOM      8  C   UNL     1     112.275 125.559 138.086  0.00  0.00    +0.000 A 
ATOM      9  C   UNL     1     113.000 125.311 137.780  0.00  0.00    +0.000 A 
ATOM     10  C   UNL     1     113.702 125.637 138.066  0.00  0.00    +0.000 A 
ATOM     11  C   UNL     1     113.011 124.713 137.163  0.00  0.00    +0.000 A 
ATOM     12  C   UNL     1     114.463 125.386 137.755  0.00  0.00    +0.000 A 
ATOM     13  C   UNL     1     113.763 124.451 136.840  0.00  0.00    +0.000 A 
ATOM     14  C   UNL     1     114.493 124.790 137.138  0.00  0.00    +0.000 A 
BRANCH   7  16
ATOM     15  O   UNL     1     112.866 128.750 141.338  0.00  0.00    +0.000 OA
ATOM     16  C   UNL     1     112.932 127.032 139.558  0.00  0.00    +0.000 A 
ATOM     17  C   UNL     1     112.881 126.804 140.349  0.00  0.00    +0.000 A 
ATOM     18  C   UNL     1     112.962 127.831 139.360  0.00  0.00    +0.000 A 
ATOM     19  C   UNL     1     112.858 127.377 140.943  0.00  0.00    +0.000 A 
ATOM     20  C   UNL     1     112.940 128.405 139.953  0.00  0.00    +0.000 A 
ATOM     21  C   UNL     1     112.888 128.178 140.744  0.00  0.00    +0.000 A 
ENDBRANCH   7  16
ENDBRANCH   1   6
BRANCH   1  28
ATOM     22  O   UNL     1     111.144 127.151 137.845  0.00  0.00    +0.000 OA
ATOM     23  O   UNL     1     108.777 126.538 138.229  0.00  0.00    +0.000 OA
ATOM     24  O   UNL     1     109.181 127.512 136.960  0.00  0.00    +0.000 OA
ATOM     25  C   UNL     1     110.152 126.459 138.607  0.00  0.00    +0.000 C 
ATOM     26  C   UNL     1     109.566 126.742 138.101  0.00  0.00    +0.000 C 
ATOM     27  C   UNL     1     109.768 127.229 137.467  0.00  0.00    +0.000 C 
ATOM     28  C   UNL     1     110.941 126.664 138.479  0.00  0.00    +0.000 C 
ATOM     29  C   UNL     1     110.557 127.434 137.339  0.00  0.00    +0.000 C 
ATOM     30  C   UNL     1     110.759 127.921 136.704  0.00  0.00    +0.000 C 
BRANCH  25  31
ATOM     31  O   UNL     1     109.950 125.972 139.241  0.00  0.00    +0.000 OA
BRANCH  31  36
ATOM     32  O   UNL     1     109.601 127.120 140.019  0.00  0.00    +0.000 OA
ATOM     33  O   UNL     1     109.356 124.989 140.425  0.00  0.00    +0.000 OA
ATOM     34  O   UNL     1     108.710 125.644 141.795  0.00  0.00    +0.000 OA
ATOM     35  O   UNL     1     108.658 127.283 141.980  0.00  0.00    +0.000 OA
ATOM     36  C   UNL     1     109.627 126.300 139.926  0.00  0.00    +0.000 C 
ATOM     37  C   UNL     1     109.330 125.809 140.518  0.00  0.00    +0.000 C 
ATOM     38  C   UNL     1     109.007 126.137 141.203  0.00  0.00    +0.000 C 
ATOM     39  C   UNL     1     108.981 126.955 141.295  0.00  0.00    +0.000 C 
ATOM     40  C   UNL     1     109.278 127.448 140.703  0.00  0.00    +0.000 C 
BRANCH  40  42
ATOM     41  O   UNL     1     108.682 128.709 140.397  0.00  0.00    +0.000 OA
ATOM     42  C   UNL     1     109.252 128.266 140.796  0.00  0.00    +0.000 C 
ENDBRANCH  40  42
ENDBRANCH  31  36
ENDBRANCH  25  31
ENDBRANCH   1  28
TORSDOF 6
ENDMDL
MODEL 5
REMARK VINA RESULT:      -9.9      2.515      4.597
REMARK  Name = 74978069
REMARK  6 active torsions:
REMARK  status: ('A' for Active; 'I' for Inactive)
REMARK    1  A    between atoms: O_1  and  C_16
REMARK    2  A    between atoms: O_1  and  C_18
REMARK    3  A    between atoms: O_4  and  C_22
REMARK    4  A    between atoms: O_4  and  C_28
REMARK    5  A    between atoms: C_25  and  C_26
REMARK    6  A    between atoms: C_29  and  C_32
REMARK                            x       y       z     vdW  Elec       q    Type
REMARK                         _______ _______ _______ _____ _____    ______ ____
ROOT
ATOM      1  O   UNL     1     111.237 129.221 136.933  0.00  0.00    +0.000 OA
ENDROOT
BRANCH   1   6
ATOM      2  O   UNL     1     110.689 127.492 135.721  0.00  0.00    +0.000 OA
ATOM      3  O   UNL     1     112.160 128.045 137.632  0.00  0.00    +0.000 OA
ATOM      4  O   UNL     1     112.614 126.678 137.715  0.00  0.00    +0.000 OA
ATOM      5  O   UNL     1     111.558 124.715 135.830  0.00  0.00    +0.000 OA
ATOM      6  C   UNL     1     111.208 128.449 136.645  0.00  0.00    +0.000 A 
ATOM      7  C   UNL     1     110.718 128.264 136.009  0.00  0.00    +0.000 A 
ATOM      8  C   UNL     1     111.670 127.861 136.995  0.00  0.00    +0.000 A 
ATOM      9  C   UNL     1     111.641 127.088 136.707  0.00  0.00    +0.000 A 
ATOM     10  C   UNL     1     111.150 126.904 136.069  0.00  0.00    +0.000 A 
ATOM     11  C   UNL     1     112.126 126.484 137.078  0.00  0.00    +0.000 A 
ATOM     12  C   UNL     1     111.111 126.103 135.760  0.00  0.00    +0.000 A 
ATOM     13  C   UNL     1     112.100 125.678 136.783  0.00  0.00    +0.000 A 
ATOM     14  C   UNL     1     111.589 125.486 136.120  0.00  0.00    +0.000 A 
BRANCH   7  16
ATOM     15  O   UNL     1     108.869 130.614 134.613  0.00  0.00    +0.000 OA
ATOM     16  C   UNL     1     110.256 128.852 135.659  0.00  0.00    +0.000 A 
ATOM     17  C   UNL     1     109.532 129.061 135.995  0.00  0.00    +0.000 A 
ATOM     18  C   UNL     1     110.517 129.230 134.975  0.00  0.00    +0.000 A 
ATOM     19  C   UNL     1     109.069 129.649 135.647  0.00  0.00    +0.000 A 
ATOM     20  C   UNL     1     110.055 129.818 134.625  0.00  0.00    +0.000 A 
ATOM     21  C   UNL     1     109.331 130.027 134.961  0.00  0.00    +0.000 A 
ENDBRANCH   7  16
ENDBRANCH   1   6
BRANCH   1  28
ATOM     22  O   UNL     1     112.515 129.529 136.374  0.00  0.00    +0.000 OA
ATOM     23  O   UNL     1     113.011 130.988 138.311  0.00  0.00    +0.000 OA
ATOM     24  O   UNL     1     114.124 130.810 137.107  0.00  0.00    +0.000 OA
ATOM     25  C   UNL     1     112.124 130.105 137.623  0.00  0.00    +0.000 C 
ATOM     26  C   UNL     1     112.846 130.502 137.666  0.00  0.00    +0.000 C 
ATOM     27  C   UNL     1     113.402 130.413 137.064  0.00  0.00    +0.000 C 
ATOM     28  C   UNL     1     111.959 129.619 136.977  0.00  0.00    +0.000 C 
ATOM     29  C   UNL     1     113.237 129.927 136.418  0.00  0.00    +0.000 C 
ATOM     30  C   UNL     1     113.794 129.838 135.815  0.00  0.00    +0.000 C 
BRANCH  25  31
ATOM     31  O   UNL     1     111.567 130.194 138.225  0.00  0.00    +0.000 OA
BRANCH  31  36
ATOM     32  O   UNL     1     111.202 131.471 137.697  0.00  0.00    +0.000 OA
ATOM     33  O   UNL     1     110.454 130.373 139.429  0.00  0.00    +0.000 OA
ATOM     34  O   UNL     1     109.532 131.739 139.504  0.00  0.00    +0.000 OA
ATOM     35  O   UNL     1     109.724 132.927 138.375  0.00  0.00    +0.000 OA
ATOM     36  C   UNL     1     111.106 130.877 138.262  0.00  0.00    +0.000 C 
ATOM     37  C   UNL     1     110.550 130.967 138.864  0.00  0.00    +0.000 C 
ATOM     38  C   UNL     1     110.089 131.650 138.902  0.00  0.00    +0.000 C 
ATOM     39  C   UNL     1     110.185 132.244 138.338  0.00  0.00    +0.000 C 
ATOM     40  C   UNL     1     110.741 132.155 137.735  0.00  0.00    +0.000 C 
BRANCH  40  42
ATOM     41  O   UNL     1     110.447 132.695 136.446  0.00  0.00    +0.000 OA
ATOM     42  C   UNL     1     110.837 132.748 137.171  0.00  0.00    +0.000 C 
ENDBRANCH  40  42
ENDBRANCH  31  36
ENDBRANCH  25  31
ENDBRANCH   1  28
TORSDOF 6
ENDMDL
MODEL 6
REMARK VINA RESULT:      -9.8      1.804      3.617
REMARK  Name = 74978069
REMARK  6 active torsions:
REMARK  status: ('A' for Active; 'I' for Inactive)
REMARK    1  A    between atoms: O_1  and  C_16
REMARK    2  A    between atoms: O_1  and  C_18
REMARK    3  A    between atoms: O_4  and  C_22
REMARK    4  A    between atoms: O_4  and  C_28
REMARK    5  A    between atoms: C_25  and  C_26
REMARK    6  A    between atoms: C_29  and  C_32
REMARK                            x       y       z     vdW  Elec       q    Type
REMARK                         _______ _______ _______ _____ _____    ______ ____
ROOT
ATOM      1  O   UNL     1     111.541 127.383 136.950  0.00  0.00    +0.000 OA
ENDROOT
BRANCH   1   6
ATOM      2  O   UNL     1     113.644 126.832 136.757  0.00  0.00    +0.000 OA
ATOM      3  O   UNL     1     111.487 125.790 137.379  0.00  0.00    +0.000 OA
ATOM      4  O   UNL     1     112.134 124.521 137.609  0.00  0.00    +0.000 OA
ATOM      5  O   UNL     1     115.016 124.303 137.203  0.00  0.00    +0.000 OA
ATOM      6  C   UNL     1     112.233 126.934 136.957  0.00  0.00    +0.000 A 
ATOM      7  C   UNL     1     112.952 127.281 136.750  0.00  0.00    +0.000 A 
ATOM      8  C   UNL     1     112.206 126.138 137.172  0.00  0.00    +0.000 A 
ATOM      9  C   UNL     1     112.898 125.689 137.179  0.00  0.00    +0.000 A 
ATOM     10  C   UNL     1     113.617 126.036 136.971  0.00  0.00    +0.000 A 
ATOM     11  C   UNL     1     112.858 124.860 137.403  0.00  0.00    +0.000 A 
ATOM     12  C   UNL     1     114.345 125.579 136.975  0.00  0.00    +0.000 A 
ATOM     13  C   UNL     1     113.574 124.387 137.413  0.00  0.00    +0.000 A 
ATOM     14  C   UNL     1     114.323 124.749 137.197  0.00  0.00    +0.000 A 
BRANCH   7  16
ATOM     15  O   UNL     1     113.063 130.467 135.895  0.00  0.00    +0.000 OA
ATOM     16  C   UNL     1     112.979 128.077 136.536  0.00  0.00    +0.000 A 
ATOM     17  C   UNL     1     113.027 128.659 137.118  0.00  0.00    +0.000 A 
ATOM     18  C   UNL     1     112.959 128.292 135.740  0.00  0.00    +0.000 A 
ATOM     19  C   UNL     1     113.055 129.456 136.905  0.00  0.00    +0.000 A 
ATOM     20  C   UNL     1     112.987 129.088 135.525  0.00  0.00    +0.000 A 
ATOM     21  C   UNL     1     113.035 129.670 136.108  0.00  0.00    +0.000 A 
ENDBRANCH   7  16
ENDBRANCH   1   6
BRANCH   1  28
ATOM     22  O   UNL     1     110.990 126.773 135.781  0.00  0.00    +0.000 OA
ATOM     23  O   UNL     1     108.713 127.053 136.708  0.00  0.00    +0.000 OA
ATOM     24  O   UNL     1     108.921 126.350 135.230  0.00  0.00    +0.000 OA
ATOM     25  C   UNL     1     110.126 127.218 136.829  0.00  0.00    +0.000 C 
ATOM     26  C   UNL     1     109.472 126.960 136.399  0.00  0.00    +0.000 C 
ATOM     27  C   UNL     1     109.576 126.608 135.661  0.00  0.00    +0.000 C 
ATOM     28  C   UNL     1     110.886 127.125 136.520  0.00  0.00    +0.000 C 
ATOM     29  C   UNL     1     110.335 126.515 135.352  0.00  0.00    +0.000 C 
ATOM     30  C   UNL     1     110.440 126.163 134.612  0.00  0.00    +0.000 C 
BRANCH  25  31
ATOM     31  O   UNL     1     110.023 127.570 137.568  0.00  0.00    +0.000 OA
BRANCH  31  36
ATOM     32  O   UNL     1     109.598 128.778 136.933  0.00  0.00    +0.000 OA
ATOM     33  O   UNL     1     109.880 128.295 139.043  0.00  0.00    +0.000 OA
ATOM     34  O   UNL     1     109.385 129.865 139.146  0.00  0.00    +0.000 OA
ATOM     35  O   UNL     1     109.032 130.711 137.774  0.00  0.00    +0.000 OA
ATOM     36  C   UNL     1     109.775 128.355 137.620  0.00  0.00    +0.000 C 
ATOM     37  C   UNL     1     109.703 128.718 138.357  0.00  0.00    +0.000 C 
ATOM     38  C   UNL     1     109.456 129.503 138.408  0.00  0.00    +0.000 C 
ATOM     39  C   UNL     1     109.279 129.925 137.722  0.00  0.00    +0.000 C 
ATOM     40  C   UNL     1     109.350 129.563 136.984  0.00  0.00    +0.000 C 
BRANCH  40  42
ATOM     41  O   UNL     1     109.778 130.205 135.783  0.00  0.00    +0.000 OA
ATOM     42  C   UNL     1     109.174 129.985 136.299  0.00  0.00    +0.000 C 
ENDBRANCH  40  42
ENDBRANCH  31  36
ENDBRANCH  25  31
ENDBRANCH   1  28
TORSDOF 6
ENDMDL
MODEL 7
REMARK VINA RESULT:      -9.8      1.533      3.651
REMARK  Name = 74978069
REMARK  6 active torsions:
REMARK  status: ('A' for Active; 'I' for Inactive)
REMARK    1  A    between atoms: O_1  and  C_16
REMARK    2  A    between atoms: O_1  and  C_18
REMARK    3  A    between atoms: O_4  and  C_22
REMARK    4  A    between atoms: O_4  and  C_28
REMARK    5  A    between atoms: C_25  and  C_26
REMARK    6  A    between atoms: C_29  and  C_32
REMARK                            x       y       z     vdW  Elec       q    Type
REMARK                         _______ _______ _______ _____ _____    ______ ____
ROOT
ATOM      1  O   UNL     1     112.667 127.750 138.301  0.00  0.00    +0.000 OA
ENDROOT
BRANCH   1   6
ATOM      2  O   UNL     1     113.543 129.748 138.282  0.00  0.00    +0.000 OA
ATOM      3  O   UNL     1     113.193 127.875 139.860  0.00  0.00    +0.000 OA
ATOM      4  O   UNL     1     113.838 128.610 140.921  0.00  0.00    +0.000 OA
ATOM      5  O   UNL     1     114.856 131.291 140.374  0.00  0.00    +0.000 OA
ATOM      6  C   UNL     1     113.047 128.437 138.554  0.00  0.00    +0.000 A 
ATOM      7  C   UNL     1     113.163 129.061 138.029  0.00  0.00    +0.000 A 
ATOM      8  C   UNL     1     113.310 128.499 139.334  0.00  0.00    +0.000 A 
ATOM      9  C   UNL     1     113.689 129.186 139.587  0.00  0.00    +0.000 A 
ATOM     10  C   UNL     1     113.806 129.812 139.061  0.00  0.00    +0.000 A 
ATOM     11  C   UNL     1     113.959 129.240 140.401  0.00  0.00    +0.000 A 
ATOM     12  C   UNL     1     114.200 130.532 139.313  0.00  0.00    +0.000 A 
ATOM     13  C   UNL     1     114.355 129.953 140.671  0.00  0.00    +0.000 A 
ATOM     14  C   UNL     1     114.477 130.603 140.123  0.00  0.00    +0.000 A 
BRANCH   7  16
ATOM     15  O   UNL     1     112.114 128.813 134.910  0.00  0.00    +0.000 OA
ATOM     16  C   UNL     1     112.900 128.999 137.249  0.00  0.00    +0.000 A 
ATOM     17  C   UNL     1     113.360 128.604 136.689  0.00  0.00    +0.000 A 
ATOM     18  C   UNL     1     112.179 129.332 137.029  0.00  0.00    +0.000 A 
ATOM     19  C   UNL     1     113.098 128.541 135.910  0.00  0.00    +0.000 A 
ATOM     20  C   UNL     1     111.916 129.270 136.249  0.00  0.00    +0.000 A 
ATOM     21  C   UNL     1     112.375 128.875 135.689  0.00  0.00    +0.000 A 
ENDBRANCH   7  16
ENDBRANCH   1   6
BRANCH   1  28
ATOM     22  O   UNL     1     111.436 128.008 138.980  0.00  0.00    +0.000 OA
ATOM     23  O   UNL     1     111.135 125.580 139.356  0.00  0.00    +0.000 OA
ATOM     24  O   UNL     1     110.005 126.647 139.910  0.00  0.00    +0.000 OA
ATOM     25  C   UNL     1     111.900 126.665 138.829  0.00  0.00    +0.000 C 
ATOM     26  C   UNL     1     111.235 126.389 139.231  0.00  0.00    +0.000 C 
ATOM     27  C   UNL     1     110.671 126.922 139.508  0.00  0.00    +0.000 C 
ATOM     28  C   UNL     1     112.001 127.474 138.704  0.00  0.00    +0.000 C 
ATOM     29  C   UNL     1     110.771 127.732 139.382  0.00  0.00    +0.000 C 
ATOM     30  C   UNL     1     110.206 128.266 139.659  0.00  0.00    +0.000 C 
BRANCH  25  31
ATOM     31  O   UNL     1     112.466 126.132 138.551  0.00  0.00    +0.000 OA
BRANCH  31  36
ATOM     32  O   UNL     1     111.599 125.776 137.472  0.00  0.00    +0.000 OA
ATOM     33  O   UNL     1     113.609 125.089 137.978  0.00  0.00    +0.000 OA
ATOM     34  O   UNL     1     113.314 124.211 136.612  0.00  0.00    +0.000 OA
ATOM     35  O   UNL     1     111.876 124.377 135.820  0.00  0.00    +0.000 OA
ATOM     36  C   UNL     1     112.319 125.693 137.869  0.00  0.00    +0.000 C 
ATOM     37  C   UNL     1     112.889 125.171 137.581  0.00  0.00    +0.000 C 
ATOM     38  C   UNL     1     112.742 124.733 136.899  0.00  0.00    +0.000 C 
ATOM     39  C   UNL     1     112.024 124.815 136.503  0.00  0.00    +0.000 C 
ATOM     40  C   UNL     1     111.452 125.337 136.789  0.00  0.00    +0.000 C 
BRANCH  40  42
ATOM     41  O   UNL     1     110.575 126.106 135.965  0.00  0.00    +0.000 OA
ATOM     42  C   UNL     1     110.733 125.420 136.393  0.00  0.00    +0.000 C 
ENDBRANCH  40  42
ENDBRANCH  31  36
ENDBRANCH  25  31
ENDBRANCH   1  28
TORSDOF 6
ENDMDL
MODEL 8
REMARK VINA RESULT:      -9.8      1.895      4.115
REMARK  Name = 74978069
REMARK  6 active torsions:
REMARK  status: ('A' for Active; 'I' for Inactive)
REMARK    1  A    between atoms: O_1  and  C_16
REMARK    2  A    between atoms: O_1  and  C_18
REMARK    3  A    between atoms: O_4  and  C_22
REMARK    4  A    between atoms: O_4  and  C_28
REMARK    5  A    between atoms: C_25  and  C_26
REMARK    6  A    between atoms: C_29  and  C_32
REMARK                            x       y       z     vdW  Elec       q    Type
REMARK                         _______ _______ _______ _____ _____    ______ ____
ROOT
ATOM      1  O   UNL     1     111.615 128.104 137.123  0.00  0.00    +0.000 OA
ENDROOT
BRANCH   1   6
ATOM      2  O   UNL     1     113.180 126.752 136.428  0.00  0.00    +0.000 OA
ATOM      3  O   UNL     1     110.998 126.647 137.590  0.00  0.00    +0.000 OA
ATOM      4  O   UNL     1     111.086 125.209 137.684  0.00  0.00    +0.000 OA
ATOM      5  O   UNL     1     113.425 123.854 136.582  0.00  0.00    +0.000 OA
ATOM      6  C   UNL     1     112.034 127.411 136.969  0.00  0.00    +0.000 A 
ATOM      7  C   UNL     1     112.761 127.446 136.582  0.00  0.00    +0.000 A 
ATOM      8  C   UNL     1     111.725 126.682 137.203  0.00  0.00    +0.000 A 
ATOM      9  C   UNL     1     112.145 125.988 137.049  0.00  0.00    +0.000 A 
ATOM     10  C   UNL     1     112.873 126.023 136.661  0.00  0.00    +0.000 A 
ATOM     11  C   UNL     1     111.814 125.235 137.297  0.00  0.00    +0.000 A 
ATOM     12  C   UNL     1     113.319 125.308 136.496  0.00  0.00    +0.000 A 
ATOM     13  C   UNL     1     112.246 124.509 137.140  0.00  0.00    +0.000 A 
ATOM     14  C   UNL     1     113.003 124.546 136.737  0.00  0.00    +0.000 A 
BRANCH   7  16
ATOM     15  O   UNL     1     113.996 130.360 135.648  0.00  0.00    +0.000 OA
ATOM     16  C   UNL     1     113.070 128.174 136.348  0.00  0.00    +0.000 A 
ATOM     17  C   UNL     1     113.473 128.645 136.892  0.00  0.00    +0.000 A 
ATOM     18  C   UNL     1     112.975 128.433 135.571  0.00  0.00    +0.000 A 
ATOM     19  C   UNL     1     113.782 129.373 136.660  0.00  0.00    +0.000 A 
ATOM     20  C   UNL     1     113.284 129.161 135.337  0.00  0.00    +0.000 A 
ATOM     21  C   UNL     1     113.687 129.632 135.881  0.00  0.00    +0.000 A 
ENDBRANCH   7  16
ENDBRANCH   1   6
BRANCH   1  28
ATOM     22  O   UNL     1     110.627 127.902 136.110  0.00  0.00    +0.000 OA
ATOM     23  O   UNL     1     108.931 128.989 137.548  0.00  0.00    +0.000 OA
ATOM     24  O   UNL     1     108.508 128.425 136.056  0.00  0.00    +0.000 OA
ATOM     25  C   UNL     1     110.272 128.547 137.336  0.00  0.00    +0.000 C 
ATOM     26  C   UNL     1     109.496 128.627 137.069  0.00  0.00    +0.000 C 
ATOM     27  C   UNL     1     109.285 128.345 136.324  0.00  0.00    +0.000 C 
ATOM     28  C   UNL     1     110.837 128.184 136.856  0.00  0.00    +0.000 C 
ATOM     29  C   UNL     1     109.850 127.983 135.844  0.00  0.00    +0.000 C 
ATOM     30  C   UNL     1     109.639 127.700 135.098  0.00  0.00    +0.000 C 
BRANCH  25  31
ATOM     31  O   UNL     1     110.484 128.829 138.082  0.00  0.00    +0.000 OA
BRANCH  31  36
ATOM     32  O   UNL     1     110.495 130.164 137.572  0.00  0.00    +0.000 OA
ATOM     33  O   UNL     1     110.948 129.389 139.563  0.00  0.00    +0.000 OA
ATOM     34  O   UNL     1     111.191 131.004 139.794  0.00  0.00    +0.000 OA
ATOM     35  O   UNL     1     110.971 132.059 138.545  0.00  0.00    +0.000 OA
ATOM     36  C   UNL     1     110.606 129.636 138.197  0.00  0.00    +0.000 C 
ATOM     37  C   UNL     1     110.838 129.917 138.938  0.00  0.00    +0.000 C 
ATOM     38  C   UNL     1     110.959 130.725 139.053  0.00  0.00    +0.000 C 
ATOM     39  C   UNL     1     110.849 131.252 138.429  0.00  0.00    +0.000 C 
ATOM     40  C   UNL     1     110.617 130.972 137.688  0.00  0.00    +0.000 C 
BRANCH  40  42
ATOM     41  O   UNL     1     111.003 131.470 136.407  0.00  0.00    +0.000 OA
ATOM     42  C   UNL     1     110.506 131.499 137.064  0.00  0.00    +0.000 C 
ENDBRANCH  40  42
ENDBRANCH  31  36
ENDBRANCH  25  31
ENDBRANCH   1  28
TORSDOF 6
ENDMDL
MODEL 9
REMARK VINA RESULT:      -9.8      1.685      2.794
REMARK  Name = 74978069
REMARK  6 active torsions:
REMARK  status: ('A' for Active; 'I' for Inactive)
REMARK    1  A    between atoms: O_1  and  C_16
REMARK    2  A    between atoms: O_1  and  C_18
REMARK    3  A    between atoms: O_4  and  C_22
REMARK    4  A    between atoms: O_4  and  C_28
REMARK    5  A    between atoms: C_25  and  C_26
REMARK    6  A    between atoms: C_29  and  C_32
REMARK                            x       y       z     vdW  Elec       q    Type
REMARK                         _______ _______ _______ _____ _____    ______ ____
ROOT
ATOM      1  O   UNL     1     111.688 127.473 136.711  0.00  0.00    +0.000 OA
ENDROOT
BRANCH   1   6
ATOM      2  O   UNL     1     112.273 125.393 136.401  0.00  0.00    +0.000 OA
ATOM      3  O   UNL     1     113.086 127.408 137.585  0.00  0.00    +0.000 OA
ATOM      4  O   UNL     1     114.233 126.688 138.083  0.00  0.00    +0.000 OA
ATOM      5  O   UNL     1     114.563 123.876 137.369  0.00  0.00    +0.000 OA
ATOM      6  C   UNL     1     112.116 126.769 136.754  0.00  0.00    +0.000 A 
ATOM      7  C   UNL     1     111.845 126.097 136.359  0.00  0.00    +0.000 A 
ATOM      8  C   UNL     1     112.815 126.737 137.191  0.00  0.00    +0.000 A 
ATOM      9  C   UNL     1     113.243 126.033 137.233  0.00  0.00    +0.000 A 
ATOM     10  C   UNL     1     112.972 125.360 136.838  0.00  0.00    +0.000 A 
ATOM     11  C   UNL     1     113.969 126.011 137.691  0.00  0.00    +0.000 A 
ATOM     12  C   UNL     1     113.408 124.621 136.875  0.00  0.00    +0.000 A 
ATOM     13  C   UNL     1     114.420 125.281 137.739  0.00  0.00    +0.000 A 
ATOM     14  C   UNL     1     114.137 124.581 137.328  0.00  0.00    +0.000 A 
BRANCH   7  16
ATOM     15  O   UNL     1     109.048 126.224 134.613  0.00  0.00    +0.000 OA
ATOM     16  C   UNL     1     111.146 126.129 135.922  0.00  0.00    +0.000 A 
ATOM     17  C   UNL     1     110.418 126.059 136.304  0.00  0.00    +0.000 A 
ATOM     18  C   UNL     1     111.174 126.231 135.104  0.00  0.00    +0.000 A 
ATOM     19  C   UNL     1     109.718 126.090 135.868  0.00  0.00    +0.000 A 
ATOM     20  C   UNL     1     110.475 126.263 134.667  0.00  0.00    +0.000 A 
ATOM     21  C   UNL     1     109.747 126.193 135.049  0.00  0.00    +0.000 A 
ENDBRANCH   7  16
ENDBRANCH   1   6
BRANCH   1  28
ATOM     22  O   UNL     1     112.596 128.150 135.840  0.00  0.00    +0.000 OA
ATOM     23  O   UNL     1     112.106 130.286 136.989  0.00  0.00    +0.000 OA
ATOM     24  O   UNL     1     113.176 130.251 135.734  0.00  0.00    +0.000 OA
ATOM     25  C   UNL     1     111.897 128.880 136.850  0.00  0.00    +0.000 C 
ATOM     26  C   UNL     1     112.269 129.574 136.606  0.00  0.00    +0.000 C 
ATOM     27  C   UNL     1     112.804 129.557 135.979  0.00  0.00    +0.000 C 
ATOM     28  C   UNL     1     112.061 128.168 136.467  0.00  0.00    +0.000 C 
ATOM     29  C   UNL     1     112.967 128.845 135.596  0.00  0.00    +0.000 C 
ATOM     30  C   UNL     1     113.503 128.827 134.968  0.00  0.00    +0.000 C 
BRANCH  25  31
ATOM     31  O   UNL     1     111.361 128.897 137.477  0.00  0.00    +0.000 OA
BRANCH  31  36
ATOM     32  O   UNL     1     110.357 129.427 136.609  0.00  0.00    +0.000 OA
ATOM     33  O   UNL     1     110.349 129.088 138.766  0.00  0.00    +0.000 OA
ATOM     34  O   UNL     1     108.839 129.714 138.543  0.00  0.00    +0.000 OA
ATOM     35  O   UNL     1     108.340 130.148 137.031  0.00  0.00    +0.000 OA
ATOM     36  C   UNL     1     110.606 129.210 137.366  0.00  0.00    +0.000 C 
ATOM     37  C   UNL     1     110.100 129.306 138.010  0.00  0.00    +0.000 C 
ATOM     38  C   UNL     1     109.344 129.618 137.898  0.00  0.00    +0.000 C 
ATOM     39  C   UNL     1     109.096 129.835 137.143  0.00  0.00    +0.000 C 
ATOM     40  C   UNL     1     109.601 129.740 136.498  0.00  0.00    +0.000 C 
BRANCH  40  42
ATOM     41  O   UNL     1     109.178 129.376 135.183  0.00  0.00    +0.000 OA
ATOM     42  C   UNL     1     109.353 129.957 135.742  0.00  0.00    +0.000 C 
ENDBRANCH  40  42
ENDBRANCH  31  36
ENDBRANCH  25  31
ENDBRANCH   1  28
TORSDOF 6
ENDMDL
MODEL 10
REMARK VINA RESULT:      -9.8      1.545      3.648
REMARK  Name = 74978069
REMARK  6 active torsions:
REMARK  status: ('A' for Active; 'I' for Inactive)
REMARK    1  A    between atoms: O_1  and  C_16
REMARK    2  A    between atoms: O_1  and  C_18
REMARK    3  A    between atoms: O_4  and  C_22
REMARK    4  A    between atoms: O_4  and  C_28
REMARK    5  A    between atoms: C_25  and  C_26
REMARK    6  A    between atoms: C_29  and  C_32
REMARK                            x       y       z     vdW  Elec       q    Type
REMARK                         _______ _______ _______ _____ _____    ______ ____
ROOT
ATOM      1  O   UNL     1     111.448 127.690 137.325  0.00  0.00    +0.000 OA
ENDROOT
BRANCH   1   6
ATOM      2  O   UNL     1     112.135 125.767 138.097  0.00  0.00    +0.000 OA
ATOM      3  O   UNL     1     111.096 126.699 136.054  0.00  0.00    +0.000 OA
ATOM      4  O   UNL     1     111.078 125.396 135.434  0.00  0.00    +0.000 OA
ATOM      5  O   UNL     1     112.131 123.108 136.910  0.00  0.00    +0.000 OA
ATOM      6  C   UNL     1     111.619 126.884 137.371  0.00  0.00    +0.000 A 
ATOM      7  C   UNL     1     111.965 126.573 138.052  0.00  0.00    +0.000 A 
ATOM      8  C   UNL     1     111.442 126.389 136.735  0.00  0.00    +0.000 A 
ATOM      9  C   UNL     1     111.612 125.583 136.780  0.00  0.00    +0.000 A 
ATOM     10  C   UNL     1     111.959 125.272 137.462  0.00  0.00    +0.000 A 
ATOM     11  C   UNL     1     111.424 125.077 136.112  0.00  0.00    +0.000 A 
ATOM     12  C   UNL     1     112.141 124.434 137.521  0.00  0.00    +0.000 A 
ATOM     13  C   UNL     1     111.599 124.236 136.153  0.00  0.00    +0.000 A 
ATOM     14  C   UNL     1     111.960 123.914 136.862  0.00  0.00    +0.000 A 
BRANCH   7  16
ATOM     15  O   UNL     1     112.668 128.552 140.597  0.00  0.00    +0.000 OA
ATOM     16  C   UNL     1     112.141 127.068 138.688  0.00  0.00    +0.000 A 
ATOM     17  C   UNL     1     111.551 127.275 139.225  0.00  0.00    +0.000 A 
ATOM     18  C   UNL     1     112.907 127.357 138.787  0.00  0.00    +0.000 A 
ATOM     19  C   UNL     1     111.726 127.769 139.862  0.00  0.00    +0.000 A 
ATOM     20  C   UNL     1     113.084 127.852 139.423  0.00  0.00    +0.000 A 
ATOM     21  C   UNL     1     112.493 128.058 139.961  0.00  0.00    +0.000 A 
ENDBRANCH   7  16
ENDBRANCH   1   6
BRANCH   1  28
ATOM     22  O   UNL     1     112.536 128.027 136.462  0.00  0.00    +0.000 OA
ATOM     23  O   UNL     1     111.125 129.731 135.352  0.00  0.00    +0.000 OA
ATOM     24  O   UNL     1     112.683 129.500 134.858  0.00  0.00    +0.000 OA
ATOM     25  C   UNL     1     111.287 128.711 136.338  0.00  0.00    +0.000 C 
ATOM     26  C   UNL     1     111.596 129.163 135.722  0.00  0.00    +0.000 C 
ATOM     27  C   UNL     1     112.374 129.048 135.475  0.00  0.00    +0.000 C 
ATOM     28  C   UNL     1     111.757 128.143 136.708  0.00  0.00    +0.000 C 
ATOM     29  C   UNL     1     112.844 128.480 135.845  0.00  0.00    +0.000 C 
ATOM     30  C   UNL     1     113.623 128.364 135.598  0.00  0.00    +0.000 C 
BRANCH  25  31
ATOM     31  O   UNL     1     110.508 128.826 136.585  0.00  0.00    +0.000 OA
BRANCH  31  36
ATOM     32  O   UNL     1     110.906 130.006 137.287  0.00  0.00    +0.000 OA
ATOM     33  O   UNL     1     108.961 129.029 137.122  0.00  0.00    +0.000 OA
ATOM     34  O   UNL     1     108.585 130.310 138.091  0.00  0.00    +0.000 OA
ATOM     35  O   UNL     1     109.756 131.389 138.524  0.00  0.00    +0.000 OA
ATOM     36  C   UNL     1     110.320 129.467 137.070  0.00  0.00    +0.000 C 
ATOM     37  C   UNL     1     109.547 129.569 137.338  0.00  0.00    +0.000 C 
ATOM     38  C   UNL     1     109.359 130.209 137.823  0.00  0.00    +0.000 C 
ATOM     39  C   UNL     1     109.944 130.748 138.039  0.00  0.00    +0.000 C 
ATOM     40  C   UNL     1     110.718 130.647 137.771  0.00  0.00    +0.000 C 
BRANCH  40  42
ATOM     41  O   UNL     1     111.879 130.971 138.537  0.00  0.00    +0.000 OA
ATOM     42  C   UNL     1     111.304 131.186 137.987  0.00  0.00    +0.000 C 
ENDBRANCH  40  42
ENDBRANCH  31  36
ENDBRANCH  25  31
ENDBRANCH   1  28
TORSDOF 6
ENDMDL
