MODEL 1
REMARK VINA RESULT:     -11.1      0.000      0.000
REMARK  Name = 5351495
REMARK  9 active torsions:
REMARK  status: ('A' for Active; 'I' for Inactive)
REMARK    1  A    between atoms: O_1  and  C_21
REMARK    2  A    between atoms: O_1  and  C_26
REMARK    3  A    between atoms: O_3  and  C_24
REMARK    4  A    between atoms: O_3  and  C_34
REMARK    5  A    between atoms: O_13  and  C_36
REMARK    6  A    between atoms: O_13  and  C_39
REMARK    7  A    between atoms: O_18  and  C_50
REMARK    8  A    between atoms: C_29  and  C_34
REMARK    9  A    between atoms: C_40  and  C_43
REMARK                            x       y       z     vdW  Elec       q    Type
REMARK                         _______ _______ _______ _____ _____    ______ ____
ROOT
ATOM      1  O   UNL     1     113.075 129.344 139.084  0.00  0.00    +0.000 OA
ATOM      2  O   UNL     1     113.962 128.759 140.992  0.00  0.00    +0.000 OA
ATOM      3  O   UNL     1     114.812 130.134 140.661  0.00  0.00    +0.000 OA
ATOM      4  O   UNL     1     114.505 130.982 139.280  0.00  0.00    +0.000 OA
ATOM      5  C   UNL     1     113.229 128.920 139.775  0.00  0.00    +0.000 C 
ATOM      6  C   UNL     1     113.808 129.183 140.301  0.00  0.00    +0.000 C 
ATOM      7  C   UNL     1     114.233 129.871 140.135  0.00  0.00    +0.000 C 
ATOM      8  C   UNL     1     114.079 130.294 139.444  0.00  0.00    +0.000 C 
ATOM      9  C   UNL     1     113.501 130.031 138.919  0.00  0.00    +0.000 C 
ENDROOT
BRANCH   9  10
ATOM     10  O   UNL     1     113.347 130.455 138.228  0.00  0.00    +0.000 OA
BRANCH  10  14
ATOM     11  O   UNL     1     111.631 130.304 136.888  0.00  0.00    +0.000 OA
ATOM     12  O   UNL     1     112.153 131.080 139.180  0.00  0.00    +0.000 OA
ATOM     13  O   UNL     1     110.777 131.459 139.395  0.00  0.00    +0.000 OA
ATOM     14  C   UNL     1     112.576 130.509 137.940  0.00  0.00    +0.000 A 
ATOM     15  C   UNL     1     112.402 130.250 137.176  0.00  0.00    +0.000 A 
ATOM     16  C   UNL     1     111.979 130.821 138.416  0.00  0.00    +0.000 A 
ATOM     17  C   UNL     1     111.207 130.875 138.127  0.00  0.00    +0.000 A 
ATOM     18  C   UNL     1     111.033 130.617 137.364  0.00  0.00    +0.000 A 
ATOM     19  C   UNL     1     110.594 131.202 138.632  0.00  0.00    +0.000 A 
ATOM     20  C   UNL     1     110.235 130.667 137.052  0.00  0.00    +0.000 A 
ATOM     21  C   UNL     1     109.789 131.261 138.338  0.00  0.00    +0.000 A 
ATOM     22  C   UNL     1     109.608 130.992 137.543  0.00  0.00    +0.000 A 
BRANCH  15  25
ATOM     23  O   UNL     1     113.642 128.007 135.911  0.00  0.00    +0.000 OA
ATOM     24  O   UNL     1     114.794 129.003 135.275  0.00  0.00    +0.000 OA
ATOM     25  C   UNL     1     113.000 129.938 136.701  0.00  0.00    +0.000 A 
ATOM     26  C   UNL     1     113.022 129.129 136.543  0.00  0.00    +0.000 A 
ATOM     27  C   UNL     1     113.576 130.435 136.383  0.00  0.00    +0.000 A 
ATOM     28  C   UNL     1     113.619 128.816 136.068  0.00  0.00    +0.000 A 
ATOM     29  C   UNL     1     114.174 130.124 135.907  0.00  0.00    +0.000 A 
ATOM     30  C   UNL     1     114.195 129.314 135.750  0.00  0.00    +0.000 A 
ENDBRANCH  15  25
BRANCH  22  31
ATOM     31  O   UNL     1     108.837 131.045 137.252  0.00  0.00    +0.000 OA
ATOM     32  C   UNL     1     108.599 131.714 136.834  0.00  0.00    +0.000 C 
ENDBRANCH  22  31
ENDBRANCH  10  14
ENDBRANCH   9  10
BRANCH   5  33
ATOM     33  C   UNL     1     112.804 128.232 139.941  0.00  0.00    +0.000 C 
BRANCH  33  34
ATOM     34  O   UNL     1     112.787 127.615 139.394  0.00  0.00    +0.000 OA
BRANCH  34  41
ATOM     35  O   UNL     1     111.479 127.247 139.837  0.00  0.00    +0.000 OA
ATOM     36  O   UNL     1     112.862 126.245 138.478  0.00  0.00    +0.000 OA
ATOM     37  O   UNL     1     110.247 125.508 139.363  0.00  0.00    +0.000 OA
ATOM     38  C   UNL     1     111.555 125.877 138.921  0.00  0.00    +0.000 C 
ATOM     39  C   UNL     1     112.189 126.404 138.929  0.00  0.00    +0.000 C 
ATOM     40  C   UNL     1     110.881 126.035 139.371  0.00  0.00    +0.000 C 
ATOM     41  C   UNL     1     112.151 127.089 139.387  0.00  0.00    +0.000 C 
ATOM     42  C   UNL     1     110.844 126.720 139.830  0.00  0.00    +0.000 C 
ATOM     43  C   UNL     1     110.171 126.878 140.280  0.00  0.00    +0.000 C 
BRANCH  38  44
ATOM     44  O   UNL     1     111.593 125.191 138.463  0.00  0.00    +0.000 OA
BRANCH  44  49
ATOM     45  O   UNL     1     110.987 125.875 137.363  0.00  0.00    +0.000 OA
ATOM     46  O   UNL     1     111.958 123.923 137.473  0.00  0.00    +0.000 OA
ATOM     47  O   UNL     1     111.534 123.972 135.879  0.00  0.00    +0.000 OA
ATOM     48  O   UNL     1     110.746 125.289 135.275  0.00  0.00    +0.000 OA
ATOM     49  C   UNL     1     111.381 125.216 137.665  0.00  0.00    +0.000 C 
ATOM     50  C   UNL     1     111.563 124.582 137.171  0.00  0.00    +0.000 C 
ATOM     51  C   UNL     1     111.352 124.606 136.374  0.00  0.00    +0.000 C 
ATOM     52  C   UNL     1     110.957 125.265 136.072  0.00  0.00    +0.000 C 
ATOM     53  C   UNL     1     110.775 125.899 136.567  0.00  0.00    +0.000 C 
ATOM     54  C   UNL     1     110.381 126.558 136.264  0.00  0.00    +0.000 C 
ENDBRANCH  44  49
ENDBRANCH  38  44
ENDBRANCH  34  41
ENDBRANCH  33  34
ENDBRANCH   5  33
TORSDOF 9
ENDMDL
MODEL 2
REMARK VINA RESULT:     -11.1      1.378      4.903
REMARK  Name = 5351495
REMARK  9 active torsions:
REMARK  status: ('A' for Active; 'I' for Inactive)
REMARK    1  A    between atoms: O_1  and  C_21
REMARK    2  A    between atoms: O_1  and  C_26
REMARK    3  A    between atoms: O_3  and  C_24
REMARK    4  A    between atoms: O_3  and  C_34
REMARK    5  A    between atoms: O_13  and  C_36
REMARK    6  A    between atoms: O_13  and  C_39
REMARK    7  A    between atoms: O_18  and  C_50
REMARK    8  A    between atoms: C_29  and  C_34
REMARK    9  A    between atoms: C_40  and  C_43
REMARK                            x       y       z     vdW  Elec       q    Type
REMARK                         _______ _______ _______ _____ _____    ______ ____
ROOT
ATOM      1  O   UNL     1     111.288 126.508 137.036  0.00  0.00    +0.000 OA
ATOM      2  O   UNL     1     111.348 124.416 137.656  0.00  0.00    +0.000 OA
ATOM      3  O   UNL     1     111.227 124.252 136.019  0.00  0.00    +0.000 OA
ATOM      4  O   UNL     1     111.147 125.592 135.059  0.00  0.00    +0.000 OA
ATOM      5  C   UNL     1     111.328 125.838 137.516  0.00  0.00    +0.000 C 
ATOM      6  C   UNL     1     111.308 125.086 137.176  0.00  0.00    +0.000 C 
ATOM      7  C   UNL     1     111.247 125.005 136.358  0.00  0.00    +0.000 C 
ATOM      8  C   UNL     1     111.207 125.675 135.878  0.00  0.00    +0.000 C 
ATOM      9  C   UNL     1     111.227 126.426 136.217  0.00  0.00    +0.000 C 
ENDROOT
BRANCH   9  10
ATOM     10  O   UNL     1     111.187 127.096 135.738  0.00  0.00    +0.000 OA
BRANCH  10  14
ATOM     11  O   UNL     1     111.784 129.143 136.202  0.00  0.00    +0.000 OA
ATOM     12  O   UNL     1     112.827 126.934 135.807  0.00  0.00    +0.000 OA
ATOM     13  O   UNL     1     114.145 127.489 136.006  0.00  0.00    +0.000 OA
ATOM     14  C   UNL     1     111.660 127.752 135.904  0.00  0.00    +0.000 A 
ATOM     15  C   UNL     1     111.312 128.489 136.036  0.00  0.00    +0.000 A 
ATOM     16  C   UNL     1     112.480 127.671 135.939  0.00  0.00    +0.000 A 
ATOM     17  C   UNL     1     112.952 128.327 136.105  0.00  0.00    +0.000 A 
ATOM     18  C   UNL     1     112.605 129.063 136.237  0.00  0.00    +0.000 A 
ATOM     19  C   UNL     1     113.805 128.229 136.139  0.00  0.00    +0.000 A 
ATOM     20  C   UNL     1     113.086 129.753 136.411  0.00  0.00    +0.000 A 
ATOM     21  C   UNL     1     114.303 128.909 136.312  0.00  0.00    +0.000 A 
ATOM     22  C   UNL     1     113.941 129.675 136.449  0.00  0.00    +0.000 A 
BRANCH  15  25
ATOM     23  O   UNL     1     108.801 128.852 137.352  0.00  0.00    +0.000 OA
ATOM     24  O   UNL     1     108.030 128.809 135.893  0.00  0.00    +0.000 OA
ATOM     25  C   UNL     1     110.491 128.569 136.001  0.00  0.00    +0.000 A 
ATOM     26  C   UNL     1     110.056 128.671 136.694  0.00  0.00    +0.000 A 
ATOM     27  C   UNL     1     110.106 128.547 135.272  0.00  0.00    +0.000 A 
ATOM     28  C   UNL     1     109.236 128.751 136.659  0.00  0.00    +0.000 A 
ATOM     29  C   UNL     1     109.286 128.628 135.235  0.00  0.00    +0.000 A 
ATOM     30  C   UNL     1     108.851 128.729 135.930  0.00  0.00    +0.000 A 
ENDBRANCH  15  25
BRANCH  22  31
ATOM     31  O   UNL     1     114.411 130.333 136.615  0.00  0.00    +0.000 OA
ATOM     32  C   UNL     1     114.760 130.758 136.001  0.00  0.00    +0.000 C 
ENDBRANCH  22  31
ENDBRANCH  10  14
ENDBRANCH   9  10
BRANCH   5  33
ATOM     33  C   UNL     1     111.389 125.919 138.334  0.00  0.00    +0.000 C 
BRANCH  33  34
ATOM     34  O   UNL     1     112.100 126.162 138.674  0.00  0.00    +0.000 OA
BRANCH  34  41
ATOM     35  O   UNL     1     111.458 126.373 139.933  0.00  0.00    +0.000 OA
ATOM     36  O   UNL     1     113.410 127.018 139.198  0.00  0.00    +0.000 OA
ATOM     37  O   UNL     1     112.126 127.440 141.716  0.00  0.00    +0.000 OA
ATOM     38  C   UNL     1     112.768 127.229 140.457  0.00  0.00    +0.000 C 
ATOM     39  C   UNL     1     112.761 126.910 139.697  0.00  0.00    +0.000 C 
ATOM     40  C   UNL     1     112.119 127.121 140.956  0.00  0.00    +0.000 C 
ATOM     41  C   UNL     1     112.106 126.481 139.435  0.00  0.00    +0.000 C 
ATOM     42  C   UNL     1     111.464 126.692 140.694  0.00  0.00    +0.000 C 
ATOM     43  C   UNL     1     110.816 126.584 141.192  0.00  0.00    +0.000 C 
BRANCH  38  44
ATOM     44  O   UNL     1     113.422 127.658 140.719  0.00  0.00    +0.000 OA
BRANCH  44  49
ATOM     45  O   UNL     1     112.838 128.879 140.263  0.00  0.00    +0.000 OA
ATOM     46  O   UNL     1     114.881 128.413 140.874  0.00  0.00    +0.000 OA
ATOM     47  O   UNL     1     115.026 130.012 140.495  0.00  0.00    +0.000 OA
ATOM     48  O   UNL     1     113.713 130.856 139.961  0.00  0.00    +0.000 OA
ATOM     49  C   UNL     1     113.494 128.457 140.529  0.00  0.00    +0.000 C 
ATOM     50  C   UNL     1     114.224 128.835 140.607  0.00  0.00    +0.000 C 
ATOM     51  C   UNL     1     114.297 129.635 140.417  0.00  0.00    +0.000 C 
ATOM     52  C   UNL     1     113.640 130.056 140.151  0.00  0.00    +0.000 C 
ATOM     53  C   UNL     1     112.910 129.678 140.074  0.00  0.00    +0.000 C 
ATOM     54  C   UNL     1     112.254 130.101 139.807  0.00  0.00    +0.000 C 
ENDBRANCH  44  49
ENDBRANCH  38  44
ENDBRANCH  34  41
ENDBRANCH  33  34
ENDBRANCH   5  33
TORSDOF 9
ENDMDL
MODEL 3
REMARK VINA RESULT:     -10.9      1.385      5.089
REMARK  Name = 5351495
REMARK  9 active torsions:
REMARK  status: ('A' for Active; 'I' for Inactive)
REMARK    1  A    between atoms: O_1  and  C_21
REMARK    2  A    between atoms: O_1  and  C_26
REMARK    3  A    between atoms: O_3  and  C_24
REMARK    4  A    between atoms: O_3  and  C_34
REMARK    5  A    between atoms: O_13  and  C_36
REMARK    6  A    between atoms: O_13  and  C_39
REMARK    7  A    between atoms: O_18  and  C_50
REMARK    8  A    between atoms: C_29  and  C_34
REMARK    9  A    between atoms: C_40  and  C_43
REMARK                            x       y       z     vdW  Elec       q    Type
REMARK                         _______ _______ _______ _____ _____    ______ ____
ROOT
ATOM      1  O   UNL     1     112.900 128.290 139.290  0.00  0.00    +0.000 OA
ATOM      2  O   UNL     1     114.173 130.034 139.615  0.00  0.00    +0.000 OA
ATOM      3  O   UNL     1     114.323 129.263 141.067  0.00  0.00    +0.000 OA
ATOM      4  O   UNL     1     113.524 127.844 141.334  0.00  0.00    +0.000 OA
ATOM      5  C   UNL     1     113.299 128.999 139.156  0.00  0.00    +0.000 C 
ATOM      6  C   UNL     1     113.774 129.324 139.749  0.00  0.00    +0.000 C 
ATOM      7  C   UNL     1     113.848 128.938 140.474  0.00  0.00    +0.000 C 
ATOM      8  C   UNL     1     113.449 128.229 140.608  0.00  0.00    +0.000 C 
ATOM      9  C   UNL     1     112.975 127.905 140.016  0.00  0.00    +0.000 C 
ENDROOT
BRANCH   9  10
ATOM     10  O   UNL     1     112.576 127.195 140.149  0.00  0.00    +0.000 OA
BRANCH  10  14
ATOM     11  O   UNL     1     111.486 125.968 138.710  0.00  0.00    +0.000 OA
ATOM     12  O   UNL     1     113.820 126.587 139.252  0.00  0.00    +0.000 OA
ATOM     13  O   UNL     1     114.317 125.772 138.170  0.00  0.00    +0.000 OA
ATOM     14  C   UNL     1     112.420 126.685 139.519  0.00  0.00    +0.000 A 
ATOM     15  C   UNL     1     111.642 126.478 139.339  0.00  0.00    +0.000 A 
ATOM     16  C   UNL     1     113.042 126.381 139.071  0.00  0.00    +0.000 A 
ATOM     17  C   UNL     1     112.886 125.870 138.442  0.00  0.00    +0.000 A 
ATOM     18  C   UNL     1     112.108 125.664 138.261  0.00  0.00    +0.000 A 
ATOM     19  C   UNL     1     113.542 125.561 137.982  0.00  0.00    +0.000 A 
ATOM     20  C   UNL     1     111.932 125.134 137.608  0.00  0.00    +0.000 A 
ATOM     21  C   UNL     1     113.386 125.029 137.325  0.00  0.00    +0.000 A 
ATOM     22  C   UNL     1     112.576 124.814 137.137  0.00  0.00    +0.000 A 
BRANCH  15  25
ATOM     23  O   UNL     1     109.386 128.216 139.589  0.00  0.00    +0.000 OA
ATOM     24  O   UNL     1     109.156 127.694 141.137  0.00  0.00    +0.000 OA
ATOM     25  C   UNL     1     111.020 126.783 139.788  0.00  0.00    +0.000 A 
ATOM     26  C   UNL     1     110.514 127.347 139.464  0.00  0.00    +0.000 A 
ATOM     27  C   UNL     1     110.905 126.522 140.562  0.00  0.00    +0.000 A 
ATOM     28  C   UNL     1     109.892 127.652 139.913  0.00  0.00    +0.000 A 
ATOM     29  C   UNL     1     110.283 126.825 141.012  0.00  0.00    +0.000 A 
ATOM     30  C   UNL     1     109.777 127.390 140.687  0.00  0.00    +0.000 A 
ENDBRANCH  15  25
BRANCH  22  31
ATOM     31  O   UNL     1     112.417 124.304 136.508  0.00  0.00    +0.000 OA
ATOM     32  C   UNL     1     112.117 123.550 136.654  0.00  0.00    +0.000 C 
ENDBRANCH  22  31
ENDBRANCH  10  14
ENDBRANCH   9  10
BRANCH   5  33
ATOM     33  C   UNL     1     113.225 129.385 138.431  0.00  0.00    +0.000 C 
BRANCH  33  34
ATOM     34  O   UNL     1     112.476 129.566 138.134  0.00  0.00    +0.000 OA
BRANCH  34  41
ATOM     35  O   UNL     1     112.882 129.178 136.820  0.00  0.00    +0.000 OA
ATOM     36  O   UNL     1     111.116 130.259 137.509  0.00  0.00    +0.000 OA
ATOM     37  O   UNL     1     111.928 129.484 134.881  0.00  0.00    +0.000 OA
ATOM     38  C   UNL     1     111.522 129.872 136.195  0.00  0.00    +0.000 C 
ATOM     39  C   UNL     1     111.660 129.892 137.008  0.00  0.00    +0.000 C 
ATOM     40  C   UNL     1     112.066 129.504 135.694  0.00  0.00    +0.000 C 
ATOM     41  C   UNL     1     112.340 129.545 137.320  0.00  0.00    +0.000 C 
ATOM     42  C   UNL     1     112.746 129.158 136.006  0.00  0.00    +0.000 C 
ATOM     43  C   UNL     1     113.289 128.791 135.506  0.00  0.00    +0.000 C 
BRANCH  38  44
ATOM     44  O   UNL     1     110.842 130.218 135.882  0.00  0.00    +0.000 OA
BRANCH  44  49
ATOM     45  O   UNL     1     110.140 128.977 135.978  0.00  0.00    +0.000 OA
ATOM     46  O   UNL     1     109.416 131.004 135.614  0.00  0.00    +0.000 OA
ATOM     47  O   UNL     1     108.001 130.156 135.576  0.00  0.00    +0.000 OA
ATOM     48  O   UNL     1     108.012 128.522 135.805  0.00  0.00    +0.000 OA
ATOM     49  C   UNL     1     110.134 129.794 135.863  0.00  0.00    +0.000 C 
ATOM     50  C   UNL     1     109.422 130.187 135.729  0.00  0.00    +0.000 C 
ATOM     51  C   UNL     1     108.714 129.763 135.710  0.00  0.00    +0.000 C 
ATOM     52  C   UNL     1     108.720 128.947 135.824  0.00  0.00    +0.000 C 
ATOM     53  C   UNL     1     109.433 128.554 135.958  0.00  0.00    +0.000 C 
ATOM     54  C   UNL     1     109.438 127.736 136.073  0.00  0.00    +0.000 C 
ENDBRANCH  44  49
ENDBRANCH  38  44
ENDBRANCH  34  41
ENDBRANCH  33  34
ENDBRANCH   5  33
TORSDOF 9
ENDMDL
MODEL 4
REMARK VINA RESULT:     -10.8      1.678      5.413
REMARK  Name = 5351495
REMARK  9 active torsions:
REMARK  status: ('A' for Active; 'I' for Inactive)
REMARK    1  A    between atoms: O_1  and  C_21
REMARK    2  A    between atoms: O_1  and  C_26
REMARK    3  A    between atoms: O_3  and  C_24
REMARK    4  A    between atoms: O_3  and  C_34
REMARK    5  A    between atoms: O_13  and  C_36
REMARK    6  A    between atoms: O_13  and  C_39
REMARK    7  A    between atoms: O_18  and  C_50
REMARK    8  A    between atoms: C_29  and  C_34
REMARK    9  A    between atoms: C_40  and  C_43
REMARK                            x       y       z     vdW  Elec       q    Type
REMARK                         _______ _______ _______ _____ _____    ______ ____
ROOT
ATOM      1  O   UNL     1     111.558 129.012 136.698  0.00  0.00    +0.000 OA
ATOM      2  O   UNL     1     109.617 129.944 137.058  0.00  0.00    +0.000 OA
ATOM      3  O   UNL     1     109.641 129.902 135.409  0.00  0.00    +0.000 OA
ATOM      4  O   UNL     1     110.943 129.267 134.619  0.00  0.00    +0.000 OA
ATOM      5  C   UNL     1     110.907 129.329 137.093  0.00  0.00    +0.000 C 
ATOM      6  C   UNL     1     110.268 129.626 136.663  0.00  0.00    +0.000 C 
ATOM      7  C   UNL     1     110.281 129.605 135.839  0.00  0.00    +0.000 C 
ATOM      8  C   UNL     1     110.932 129.288 135.444  0.00  0.00    +0.000 C 
ATOM      9  C   UNL     1     111.570 128.991 135.874  0.00  0.00    +0.000 C 
ENDROOT
BRANCH   9  10
ATOM     10  O   UNL     1     112.221 128.674 135.479  0.00  0.00    +0.000 OA
BRANCH  10  14
ATOM     11  O   UNL     1     113.871 127.512 136.310  0.00  0.00    +0.000 OA
ATOM     12  O   UNL     1     111.456 127.255 135.832  0.00  0.00    +0.000 OA
ATOM     13  O   UNL     1     111.469 125.906 136.345  0.00  0.00    +0.000 OA
ATOM     14  C   UNL     1     112.644 128.049 135.815  0.00  0.00    +0.000 A 
ATOM     15  C   UNL     1     113.449 128.135 135.974  0.00  0.00    +0.000 A 
ATOM     16  C   UNL     1     112.261 127.340 135.992  0.00  0.00    +0.000 A 
ATOM     17  C   UNL     1     112.684 126.716 136.328  0.00  0.00    +0.000 A 
ATOM     18  C   UNL     1     113.489 126.802 136.487  0.00  0.00    +0.000 A 
ATOM     19  C   UNL     1     112.275 125.983 136.508  0.00  0.00    +0.000 A 
ATOM     20  C   UNL     1     113.940 126.160 136.837  0.00  0.00    +0.000 A 
ATOM     21  C   UNL     1     112.709 125.329 136.858  0.00  0.00    +0.000 A 
ATOM     22  C   UNL     1     113.547 125.418 137.024  0.00  0.00    +0.000 A 
BRANCH  15  25
ATOM     23  O   UNL     1     114.585 130.615 136.826  0.00  0.00    +0.000 OA
ATOM     24  O   UNL     1     114.975 130.973 135.263  0.00  0.00    +0.000 OA
ATOM     25  C   UNL     1     113.830 128.845 135.797  0.00  0.00    +0.000 A 
ATOM     26  C   UNL     1     114.017 129.375 136.400  0.00  0.00    +0.000 A 
ATOM     27  C   UNL     1     114.026 129.024 135.016  0.00  0.00    +0.000 A 
ATOM     28  C   UNL     1     114.399 130.085 136.223  0.00  0.00    +0.000 A 
ATOM     29  C   UNL     1     114.407 129.733 134.838  0.00  0.00    +0.000 A 
ATOM     30  C   UNL     1     114.594 130.264 135.442  0.00  0.00    +0.000 A 
ENDBRANCH  15  25
BRANCH  22  31
ATOM     31  O   UNL     1     113.972 124.796 137.360  0.00  0.00    +0.000 OA
ATOM     32  C   UNL     1     114.775 124.708 137.195  0.00  0.00    +0.000 C 
ENDBRANCH  22  31
ENDBRANCH  10  14
ENDBRANCH   9  10
BRANCH   5  33
ATOM     33  C   UNL     1     110.894 129.350 137.918  0.00  0.00    +0.000 C 
BRANCH  33  34
ATOM     34  O   UNL     1     111.526 129.680 138.333  0.00  0.00    +0.000 OA
BRANCH  34  41
ATOM     35  O   UNL     1     111.782 128.559 139.181  0.00  0.00    +0.000 OA
ATOM     36  O   UNL     1     111.873 130.703 139.580  0.00  0.00    +0.000 OA
ATOM     37  O   UNL     1     112.384 128.460 141.276  0.00  0.00    +0.000 OA
ATOM     38  C   UNL     1     112.129 129.581 140.428  0.00  0.00    +0.000 C 
ATOM     39  C   UNL     1     111.914 129.886 139.692  0.00  0.00    +0.000 C 
ATOM     40  C   UNL     1     112.170 128.764 140.540  0.00  0.00    +0.000 C 
ATOM     41  C   UNL     1     111.741 129.374 139.068  0.00  0.00    +0.000 C 
ATOM     42  C   UNL     1     111.997 128.253 139.916  0.00  0.00    +0.000 C 
ATOM     43  C   UNL     1     112.038 127.437 140.029  0.00  0.00    +0.000 C 
BRANCH  38  44
ATOM     44  O   UNL     1     112.302 130.092 141.052  0.00  0.00    +0.000 OA
BRANCH  44  49
ATOM     45  O   UNL     1     113.669 130.143 140.637  0.00  0.00    +0.000 OA
ATOM     46  O   UNL     1     112.605 131.249 142.189  0.00  0.00    +0.000 OA
ATOM     47  O   UNL     1     114.122 131.878 142.343  0.00  0.00    +0.000 OA
ATOM     48  O   UNL     1     115.338 131.350 141.359  0.00  0.00    +0.000 OA
ATOM     49  C   UNL     1     113.061 130.407 141.128  0.00  0.00    +0.000 C 
ATOM     50  C   UNL     1     113.213 130.985 141.697  0.00  0.00    +0.000 C 
ATOM     51  C   UNL     1     113.971 131.300 141.774  0.00  0.00    +0.000 C 
ATOM     52  C   UNL     1     114.578 131.035 141.282  0.00  0.00    +0.000 C 
ATOM     53  C   UNL     1     114.427 130.457 140.714  0.00  0.00    +0.000 C 
ATOM     54  C   UNL     1     115.035 130.194 140.222  0.00  0.00    +0.000 C 
ENDBRANCH  44  49
ENDBRANCH  38  44
ENDBRANCH  34  41
ENDBRANCH  33  34
ENDBRANCH   5  33
TORSDOF 9
ENDMDL
MODEL 5
REMARK VINA RESULT:     -10.8      1.506      3.464
REMARK  Name = 5351495
REMARK  9 active torsions:
REMARK  status: ('A' for Active; 'I' for Inactive)
REMARK    1  A    between atoms: O_1  and  C_21
REMARK    2  A    between atoms: O_1  and  C_26
REMARK    3  A    between atoms: O_3  and  C_24
REMARK    4  A    between atoms: O_3  and  C_34
REMARK    5  A    between atoms: O_13  and  C_36
REMARK    6  A    between atoms: O_13  and  C_39
REMARK    7  A    between atoms: O_18  and  C_50
REMARK    8  A    between atoms: C_29  and  C_34
REMARK    9  A    between atoms: C_40  and  C_43
REMARK                            x       y       z     vdW  Elec       q    Type
REMARK                         _______ _______ _______ _____ _____    ______ ____
ROOT
ATOM      1  O   UNL     1     110.711 130.331 138.427  0.00  0.00    +0.000 OA
ATOM      2  O   UNL     1     110.400 131.101 140.446  0.00  0.00    +0.000 OA
ATOM      3  O   UNL     1     110.143 132.463 139.550  0.00  0.00    +0.000 OA
ATOM      4  O   UNL     1     110.264 132.403 137.906  0.00  0.00    +0.000 OA
ATOM      5  C   UNL     1     110.650 130.360 139.250  0.00  0.00    +0.000 C 
ATOM      6  C   UNL     1     110.461 131.071 139.624  0.00  0.00    +0.000 C 
ATOM      7  C   UNL     1     110.332 131.752 139.176  0.00  0.00    +0.000 C 
ATOM      8  C   UNL     1     110.393 131.722 138.353  0.00  0.00    +0.000 C 
ATOM      9  C   UNL     1     110.582 131.012 137.980  0.00  0.00    +0.000 C 
ENDROOT
BRANCH   9  10
ATOM     10  O   UNL     1     110.643 130.982 137.158  0.00  0.00    +0.000 OA
BRANCH  10  14
ATOM     11  O   UNL     1     111.657 129.469 135.954  0.00  0.00    +0.000 OA
ATOM     12  O   UNL     1     112.223 131.364 137.443  0.00  0.00    +0.000 OA
ATOM     13  O   UNL     1     113.634 131.133 137.247  0.00  0.00    +0.000 OA
ATOM     14  C   UNL     1     111.245 130.541 136.804  0.00  0.00    +0.000 A 
ATOM     15  C   UNL     1     111.056 129.909 136.308  0.00  0.00    +0.000 A 
ATOM     16  C   UNL     1     112.034 130.732 136.947  0.00  0.00    +0.000 A 
ATOM     17  C   UNL     1     112.636 130.291 136.593  0.00  0.00    +0.000 A 
ATOM     18  C   UNL     1     112.448 129.659 136.097  0.00  0.00    +0.000 A 
ATOM     19  C   UNL     1     113.454 130.500 136.750  0.00  0.00    +0.000 A 
ATOM     20  C   UNL     1     113.064 129.193 135.723  0.00  0.00    +0.000 A 
ATOM     21  C   UNL     1     114.086 130.044 136.384  0.00  0.00    +0.000 A 
ATOM     22  C   UNL     1     113.889 129.387 135.868  0.00  0.00    +0.000 A 
BRANCH  15  25
ATOM     23  O   UNL     1     108.820 128.171 136.691  0.00  0.00    +0.000 OA
ATOM     24  O   UNL     1     107.896 129.150 135.737  0.00  0.00    +0.000 OA
ATOM     25  C   UNL     1     110.266 129.719 136.165  0.00  0.00    +0.000 A 
ATOM     26  C   UNL     1     109.938 129.040 136.499  0.00  0.00    +0.000 A 
ATOM     27  C   UNL     1     109.804 130.208 135.688  0.00  0.00    +0.000 A 
ATOM     28  C   UNL     1     109.148 128.850 136.357  0.00  0.00    +0.000 A 
ATOM     29  C   UNL     1     109.014 130.019 135.545  0.00  0.00    +0.000 A 
ATOM     30  C   UNL     1     108.686 129.339 135.880  0.00  0.00    +0.000 A 
ENDBRANCH  15  25
BRANCH  22  31
ATOM     31  O   UNL     1     114.489 128.945 135.513  0.00  0.00    +0.000 OA
ATOM     32  C   UNL     1     114.813 129.189 134.796  0.00  0.00    +0.000 C 
ENDBRANCH  22  31
ENDBRANCH  10  14
ENDBRANCH   9  10
BRANCH   5  33
ATOM     33  C   UNL     1     110.779 129.680 139.698  0.00  0.00    +0.000 C 
BRANCH  33  34
ATOM     34  O   UNL     1     111.489 129.267 139.628  0.00  0.00    +0.000 OA
BRANCH  34  41
ATOM     35  O   UNL     1     110.872 128.098 140.171  0.00  0.00    +0.000 OA
ATOM     36  O   UNL     1     112.844 128.391 139.283  0.00  0.00    +0.000 OA
ATOM     37  O   UNL     1     111.609 126.053 140.369  0.00  0.00    +0.000 OA
ATOM     38  C   UNL     1     112.227 127.222 139.826  0.00  0.00    +0.000 C 
ATOM     39  C   UNL     1     112.196 128.025 139.641  0.00  0.00    +0.000 C 
ATOM     40  C   UNL     1     111.579 126.857 140.184  0.00  0.00    +0.000 C 
ATOM     41  C   UNL     1     111.519 128.463 139.813  0.00  0.00    +0.000 C 
ATOM     42  C   UNL     1     110.901 127.295 140.356  0.00  0.00    +0.000 C 
ATOM     43  C   UNL     1     110.254 126.929 140.714  0.00  0.00    +0.000 C 
BRANCH  38  44
ATOM     44  O   UNL     1     112.904 126.784 139.654  0.00  0.00    +0.000 OA
BRANCH  44  49
ATOM     45  O   UNL     1     112.368 126.437 138.376  0.00  0.00    +0.000 OA
ATOM     46  O   UNL     1     114.359 126.137 139.219  0.00  0.00    +0.000 OA
ATOM     47  O   UNL     1     114.549 125.466 137.724  0.00  0.00    +0.000 OA
ATOM     48  O   UNL     1     113.286 125.442 136.663  0.00  0.00    +0.000 OA
ATOM     49  C   UNL     1     112.999 126.449 138.906  0.00  0.00    +0.000 C 
ATOM     50  C   UNL     1     113.726 126.125 138.689  0.00  0.00    +0.000 C 
ATOM     51  C   UNL     1     113.822 125.790 137.941  0.00  0.00    +0.000 C 
ATOM     52  C   UNL     1     113.190 125.778 137.411  0.00  0.00    +0.000 C 
ATOM     53  C   UNL     1     112.463 126.102 137.629  0.00  0.00    +0.000 C 
ATOM     54  C   UNL     1     111.831 126.090 137.098  0.00  0.00    +0.000 C 
ENDBRANCH  44  49
ENDBRANCH  38  44
ENDBRANCH  34  41
ENDBRANCH  33  34
ENDBRANCH   5  33
TORSDOF 9
ENDMDL
MODEL 6
REMARK VINA RESULT:     -10.8      1.419      5.211
REMARK  Name = 5351495
REMARK  9 active torsions:
REMARK  status: ('A' for Active; 'I' for Inactive)
REMARK    1  A    between atoms: O_1  and  C_21
REMARK    2  A    between atoms: O_1  and  C_26
REMARK    3  A    between atoms: O_3  and  C_24
REMARK    4  A    between atoms: O_3  and  C_34
REMARK    5  A    between atoms: O_13  and  C_36
REMARK    6  A    between atoms: O_13  and  C_39
REMARK    7  A    between atoms: O_18  and  C_50
REMARK    8  A    between atoms: C_29  and  C_34
REMARK    9  A    between atoms: C_40  and  C_43
REMARK                            x       y       z     vdW  Elec       q    Type
REMARK                         _______ _______ _______ _____ _____    ______ ____
ROOT
ATOM      1  O   UNL     1     111.526 127.072 137.827  0.00  0.00    +0.000 OA
ATOM      2  O   UNL     1     111.543 125.840 139.629  0.00  0.00    +0.000 OA
ATOM      3  O   UNL     1     111.113 124.724 138.493  0.00  0.00    +0.000 OA
ATOM      4  O   UNL     1     110.958 125.173 136.913  0.00  0.00    +0.000 OA
ATOM      5  C   UNL     1     111.604 126.848 138.617  0.00  0.00    +0.000 C 
ATOM      6  C   UNL     1     111.466 126.065 138.839  0.00  0.00    +0.000 C 
ATOM      7  C   UNL     1     111.251 125.507 138.270  0.00  0.00    +0.000 C 
ATOM      8  C   UNL     1     111.173 125.732 137.480  0.00  0.00    +0.000 C 
ATOM      9  C   UNL     1     111.311 126.514 137.259  0.00  0.00    +0.000 C 
ENDROOT
BRANCH   9  10
ATOM     10  O   UNL     1     111.234 126.738 136.469  0.00  0.00    +0.000 OA
BRANCH  10  14
ATOM     11  O   UNL     1     111.785 128.634 135.537  0.00  0.00    +0.000 OA
ATOM     12  O   UNL     1     112.880 126.649 136.530  0.00  0.00    +0.000 OA
ATOM     13  O   UNL     1     114.187 127.204 136.269  0.00  0.00    +0.000 OA
ATOM     14  C   UNL     1     111.692 127.356 136.168  0.00  0.00    +0.000 A 
ATOM     15  C   UNL     1     111.327 128.017 135.837  0.00  0.00    +0.000 A 
ATOM     16  C   UNL     1     112.515 127.311 136.199  0.00  0.00    +0.000 A 
ATOM     17  C   UNL     1     112.973 127.928 135.899  0.00  0.00    +0.000 A 
ATOM     18  C   UNL     1     112.608 128.590 135.567  0.00  0.00    +0.000 A 
ATOM     19  C   UNL     1     113.829 127.870 135.936  0.00  0.00    +0.000 A 
ATOM     20  C   UNL     1     113.074 129.238 135.251  0.00  0.00    +0.000 A 
ATOM     21  C   UNL     1     114.313 128.509 135.625  0.00  0.00    +0.000 A 
ATOM     22  C   UNL     1     113.932 129.198 135.280  0.00  0.00    +0.000 A 
BRANCH  15  25
ATOM     23  O   UNL     1     108.870 129.134 136.778  0.00  0.00    +0.000 OA
ATOM     24  O   UNL     1     108.034 128.191 135.713  0.00  0.00    +0.000 OA
ATOM     25  C   UNL     1     110.503 128.061 135.806  0.00  0.00    +0.000 A 
ATOM     26  C   UNL     1     110.099 128.575 136.308  0.00  0.00    +0.000 A 
ATOM     27  C   UNL     1     110.085 127.590 135.274  0.00  0.00    +0.000 A 
ATOM     28  C   UNL     1     109.275 128.619 136.277  0.00  0.00    +0.000 A 
ATOM     29  C   UNL     1     109.262 127.633 135.242  0.00  0.00    +0.000 A 
ATOM     30  C   UNL     1     108.857 128.148 135.744  0.00  0.00    +0.000 A 
ENDBRANCH  15  25
BRANCH  22  31
ATOM     31  O   UNL     1     114.388 129.816 134.979  0.00  0.00    +0.000 OA
ATOM     32  C   UNL     1     114.742 130.357 135.492  0.00  0.00    +0.000 C 
ENDBRANCH  22  31
ENDBRANCH  10  14
ENDBRANCH   9  10
BRANCH   5  33
ATOM     33  C   UNL     1     111.819 127.405 139.185  0.00  0.00    +0.000 C 
BRANCH  33  34
ATOM     34  O   UNL     1     111.321 128.043 139.347  0.00  0.00    +0.000 OA
BRANCH  34  41
ATOM     35  O   UNL     1     112.444 128.822 139.766  0.00  0.00    +0.000 OA
ATOM     36  O   UNL     1     110.355 129.376 139.460  0.00  0.00    +0.000 OA
ATOM     37  O   UNL     1     112.600 130.934 140.296  0.00  0.00    +0.000 OA
ATOM     38  C   UNL     1     111.478 130.155 139.878  0.00  0.00    +0.000 C 
ATOM     39  C   UNL     1     111.159 129.432 139.641  0.00  0.00    +0.000 C 
ATOM     40  C   UNL     1     112.281 130.211 140.059  0.00  0.00    +0.000 C 
ATOM     41  C   UNL     1     111.642 128.766 139.585  0.00  0.00    +0.000 C 
ATOM     42  C   UNL     1     112.764 129.545 140.003  0.00  0.00    +0.000 C 
ATOM     43  C   UNL     1     113.567 129.601 140.184  0.00  0.00    +0.000 C 
BRANCH  38  44
ATOM     44  O   UNL     1     110.994 130.821 139.934  0.00  0.00    +0.000 OA
BRANCH  44  49
ATOM     45  O   UNL     1     111.315 131.247 138.609  0.00  0.00    +0.000 OA
ATOM     46  O   UNL     1     109.593 131.690 139.874  0.00  0.00    +0.000 OA
ATOM     47  O   UNL     1     109.213 132.550 138.518  0.00  0.00    +0.000 OA
ATOM     48  O   UNL     1     110.235 132.542 137.223  0.00  0.00    +0.000 OA
ATOM     49  C   UNL     1     110.805 131.251 139.256  0.00  0.00    +0.000 C 
ATOM     50  C   UNL     1     110.104 131.686 139.226  0.00  0.00    +0.000 C 
ATOM     51  C   UNL     1     109.914 132.116 138.548  0.00  0.00    +0.000 C 
ATOM     52  C   UNL     1     110.425 132.111 137.901  0.00  0.00    +0.000 C 
ATOM     53  C   UNL     1     111.126 131.677 137.931  0.00  0.00    +0.000 C 
ATOM     54  C   UNL     1     111.636 131.673 137.283  0.00  0.00    +0.000 C 
ENDBRANCH  44  49
ENDBRANCH  38  44
ENDBRANCH  34  41
ENDBRANCH  33  34
ENDBRANCH   5  33
TORSDOF 9
ENDMDL
MODEL 7
REMARK VINA RESULT:     -10.7      1.538      5.760
REMARK  Name = 5351495
REMARK  9 active torsions:
REMARK  status: ('A' for Active; 'I' for Inactive)
REMARK    1  A    between atoms: O_1  and  C_21
REMARK    2  A    between atoms: O_1  and  C_26
REMARK    3  A    between atoms: O_3  and  C_24
REMARK    4  A    between atoms: O_3  and  C_34
REMARK    5  A    between atoms: O_13  and  C_36
REMARK    6  A    between atoms: O_13  and  C_39
REMARK    7  A    between atoms: O_18  and  C_50
REMARK    8  A    between atoms: C_29  and  C_34
REMARK    9  A    between atoms: C_40  and  C_43
REMARK                            x       y       z     vdW  Elec       q    Type
REMARK                         _______ _______ _______ _____ _____    ______ ____
ROOT
ATOM      1  O   UNL     1     111.595 126.613 136.246  0.00  0.00    +0.000 OA
ATOM      2  O   UNL     1     110.261 127.200 134.620  0.00  0.00    +0.000 OA
ATOM      3  O   UNL     1     110.029 125.566 134.640  0.00  0.00    +0.000 OA
ATOM      4  O   UNL     1     110.840 124.631 135.731  0.00  0.00    +0.000 OA
ATOM      5  C   UNL     1     111.189 127.081 135.701  0.00  0.00    +0.000 C 
ATOM      6  C   UNL     1     110.667 126.732 135.165  0.00  0.00    +0.000 C 
ATOM      7  C   UNL     1     110.551 125.915 135.176  0.00  0.00    +0.000 C 
ATOM      8  C   UNL     1     110.957 125.448 135.721  0.00  0.00    +0.000 C 
ATOM      9  C   UNL     1     111.479 125.796 136.256  0.00  0.00    +0.000 C 
ENDROOT
BRANCH   9  10
ATOM     10  O   UNL     1     111.884 125.329 136.801  0.00  0.00    +0.000 OA
BRANCH  10  14
ATOM     11  O   UNL     1     112.923 125.998 138.600  0.00  0.00    +0.000 OA
ATOM     12  O   UNL     1     110.608 125.666 137.791  0.00  0.00    +0.000 OA
ATOM     13  O   UNL     1     110.072 126.115 139.054  0.00  0.00    +0.000 OA
ATOM     14  C   UNL     1     112.018 125.608 137.566  0.00  0.00    +0.000 A 
ATOM     15  C   UNL     1     112.790 125.719 137.836  0.00  0.00    +0.000 A 
ATOM     16  C   UNL     1     111.380 125.777 138.061  0.00  0.00    +0.000 A 
ATOM     17  C   UNL     1     111.514 126.057 138.826  0.00  0.00    +0.000 A 
ATOM     18  C   UNL     1     112.285 126.167 139.096  0.00  0.00    +0.000 A 
ATOM     19  C   UNL     1     110.841 126.229 139.331  0.00  0.00    +0.000 A 
ATOM     20  C   UNL     1     112.438 126.457 139.889  0.00  0.00    +0.000 A 
ATOM     21  C   UNL     1     110.973 126.520 140.129  0.00  0.00    +0.000 A 
ATOM     22  C   UNL     1     111.777 126.635 140.410  0.00  0.00    +0.000 A 
BRANCH  15  25
ATOM     23  O   UNL     1     114.904 126.608 136.130  0.00  0.00    +0.000 OA
ATOM     24  O   UNL     1     115.340 125.041 135.855  0.00  0.00    +0.000 OA
ATOM     25  C   UNL     1     113.428 125.550 137.341  0.00  0.00    +0.000 A 
ATOM     26  C   UNL     1     113.847 126.163 136.983  0.00  0.00    +0.000 A 
ATOM     27  C   UNL     1     113.646 124.766 137.203  0.00  0.00    +0.000 A 
ATOM     28  C   UNL     1     114.485 125.994 136.488  0.00  0.00    +0.000 A 
ATOM     29  C   UNL     1     114.284 124.596 136.708  0.00  0.00    +0.000 A 
ATOM     30  C   UNL     1     114.703 125.211 136.350  0.00  0.00    +0.000 A 
ENDBRANCH  15  25
BRANCH  22  31
ATOM     31  O   UNL     1     111.913 126.914 141.174  0.00  0.00    +0.000 OA
ATOM     32  C   UNL     1     112.052 127.717 141.302  0.00  0.00    +0.000 C 
ENDBRANCH  22  31
ENDBRANCH  10  14
ENDBRANCH   9  10
BRANCH   5  33
ATOM     33  C   UNL     1     111.305 127.898 135.691  0.00  0.00    +0.000 C 
BRANCH  33  34
ATOM     34  O   UNL     1     111.136 128.347 136.361  0.00  0.00    +0.000 OA
BRANCH  34  41
ATOM     35  O   UNL     1     112.212 129.232 136.040  0.00  0.00    +0.000 OA
ATOM     36  O   UNL     1     110.806 129.239 137.710  0.00  0.00    +0.000 OA
ATOM     37  O   UNL     1     112.958 131.007 137.067  0.00  0.00    +0.000 OA
ATOM     38  C   UNL     1     111.882 130.123 137.388  0.00  0.00    +0.000 C 
ATOM     39  C   UNL     1     111.427 129.458 137.211  0.00  0.00    +0.000 C 
ATOM     40  C   UNL     1     112.503 130.342 136.890  0.00  0.00    +0.000 C 
ATOM     41  C   UNL     1     111.592 129.012 136.537  0.00  0.00    +0.000 C 
ATOM     42  C   UNL     1     112.668 129.897 136.216  0.00  0.00    +0.000 C 
ATOM     43  C   UNL     1     113.287 130.116 135.718  0.00  0.00    +0.000 C 
BRANCH  38  44
ATOM     44  O   UNL     1     111.717 130.569 138.062  0.00  0.00    +0.000 OA
BRANCH  44  49
ATOM     45  O   UNL     1     110.850 131.420 137.310  0.00  0.00    +0.000 OA
ATOM     46  O   UNL     1     111.145 131.226 139.464  0.00  0.00    +0.000 OA
ATOM     47  O   UNL     1     109.991 132.405 139.411  0.00  0.00    +0.000 OA
ATOM     48  O   UNL     1     109.411 132.927 137.958  0.00  0.00    +0.000 OA
ATOM     49  C   UNL     1     111.140 131.159 138.036  0.00  0.00    +0.000 C 
ATOM     50  C   UNL     1     110.854 131.487 138.736  0.00  0.00    +0.000 C 
ATOM     51  C   UNL     1     110.278 132.077 138.711  0.00  0.00    +0.000 C 
ATOM     52  C   UNL     1     109.988 132.337 137.984  0.00  0.00    +0.000 C 
ATOM     53  C   UNL     1     110.274 132.009 137.283  0.00  0.00    +0.000 C 
ATOM     54  C   UNL     1     109.983 132.271 136.557  0.00  0.00    +0.000 C 
ENDBRANCH  44  49
ENDBRANCH  38  44
ENDBRANCH  34  41
ENDBRANCH  33  34
ENDBRANCH   5  33
TORSDOF 9
ENDMDL
MODEL 8
REMARK VINA RESULT:     -10.7      2.021      5.551
REMARK  Name = 5351495
REMARK  9 active torsions:
REMARK  status: ('A' for Active; 'I' for Inactive)
REMARK    1  A    between atoms: O_1  and  C_21
REMARK    2  A    between atoms: O_1  and  C_26
REMARK    3  A    between atoms: O_3  and  C_24
REMARK    4  A    between atoms: O_3  and  C_34
REMARK    5  A    between atoms: O_13  and  C_36
REMARK    6  A    between atoms: O_13  and  C_39
REMARK    7  A    between atoms: O_18  and  C_50
REMARK    8  A    between atoms: C_29  and  C_34
REMARK    9  A    between atoms: C_40  and  C_43
REMARK                            x       y       z     vdW  Elec       q    Type
REMARK                         _______ _______ _______ _____ _____    ______ ____
ROOT
ATOM      1  O   UNL     1     111.545 127.249 137.874  0.00  0.00    +0.000 OA
ATOM      2  O   UNL     1     111.556 125.987 139.656  0.00  0.00    +0.000 OA
ATOM      3  O   UNL     1     111.046 124.910 138.514  0.00  0.00    +0.000 OA
ATOM      4  O   UNL     1     110.869 125.392 136.946  0.00  0.00    +0.000 OA
ATOM      5  C   UNL     1     111.633 127.008 138.658  0.00  0.00    +0.000 C 
ATOM      6  C   UNL     1     111.467 126.228 138.872  0.00  0.00    +0.000 C 
ATOM      7  C   UNL     1     111.212 125.690 138.301  0.00  0.00    +0.000 C 
ATOM      8  C   UNL     1     111.124 125.931 137.517  0.00  0.00    +0.000 C 
ATOM      9  C   UNL     1     111.290 126.710 137.304  0.00  0.00    +0.000 C 
ENDROOT
BRANCH   9  10
ATOM     10  O   UNL     1     111.201 126.951 136.520  0.00  0.00    +0.000 OA
BRANCH  10  14
ATOM     11  O   UNL     1     111.804 128.839 135.606  0.00  0.00    +0.000 OA
ATOM     12  O   UNL     1     112.844 126.794 136.533  0.00  0.00    +0.000 OA
ATOM     13  O   UNL     1     114.164 127.301 136.245  0.00  0.00    +0.000 OA
ATOM     14  C   UNL     1     111.676 127.555 136.217  0.00  0.00    +0.000 A 
ATOM     15  C   UNL     1     111.329 128.237 135.908  0.00  0.00    +0.000 A 
ATOM     16  C   UNL     1     112.497 127.476 136.224  0.00  0.00    +0.000 A 
ATOM     17  C   UNL     1     112.972 128.080 135.922  0.00  0.00    +0.000 A 
ATOM     18  C   UNL     1     112.625 128.762 135.613  0.00  0.00    +0.000 A 
ATOM     19  C   UNL     1     113.826 127.986 135.934  0.00  0.00    +0.000 A 
ATOM     20  C   UNL     1     113.108 129.397 135.295  0.00  0.00    +0.000 A 
ATOM     21  C   UNL     1     114.326 128.611 135.621  0.00  0.00    +0.000 A 
ATOM     22  C   UNL     1     113.965 129.321 135.299  0.00  0.00    +0.000 A 
BRANCH  15  25
ATOM     23  O   UNL     1     108.941 129.367 136.997  0.00  0.00    +0.000 OA
ATOM     24  O   UNL     1     108.044 128.546 135.881  0.00  0.00    +0.000 OA
ATOM     25  C   UNL     1     110.508 128.314 135.902  0.00  0.00    +0.000 A 
ATOM     26  C   UNL     1     110.135 128.802 136.453  0.00  0.00    +0.000 A 
ATOM     27  C   UNL     1     110.060 127.904 135.344  0.00  0.00    +0.000 A 
ATOM     28  C   UNL     1     109.313 128.879 136.446  0.00  0.00    +0.000 A 
ATOM     29  C   UNL     1     109.238 127.981 135.336  0.00  0.00    +0.000 A 
ATOM     30  C   UNL     1     108.865 128.469 135.888  0.00  0.00    +0.000 A 
ENDBRANCH  15  25
BRANCH  22  31
ATOM     31  O   UNL     1     114.437 129.926 134.996  0.00  0.00    +0.000 OA
ATOM     32  C   UNL     1     114.798 130.464 135.507  0.00  0.00    +0.000 C 
ENDBRANCH  22  31
ENDBRANCH  10  14
ENDBRANCH   9  10
BRANCH   5  33
ATOM     33  C   UNL     1     111.888 127.546 139.229  0.00  0.00    +0.000 C 
BRANCH  33  34
ATOM     34  O   UNL     1     111.543 128.294 139.276  0.00  0.00    +0.000 OA
BRANCH  34  41
ATOM     35  O   UNL     1     112.780 128.971 139.508  0.00  0.00    +0.000 OA
ATOM     36  O   UNL     1     110.747 129.450 140.142  0.00  0.00    +0.000 OA
ATOM     37  O   UNL     1     113.221 130.805 140.606  0.00  0.00    +0.000 OA
ATOM     38  C   UNL     1     111.984 130.128 140.374  0.00  0.00    +0.000 C 
ATOM     39  C   UNL     1     111.565 129.500 140.041  0.00  0.00    +0.000 C 
ATOM     40  C   UNL     1     112.802 130.177 140.273  0.00  0.00    +0.000 C 
ATOM     41  C   UNL     1     111.963 128.921 139.608  0.00  0.00    +0.000 C 
ATOM     42  C   UNL     1     113.200 129.599 139.840  0.00  0.00    +0.000 C 
ATOM     43  C   UNL     1     114.017 129.648 139.740  0.00  0.00    +0.000 C 
BRANCH  38  44
ATOM     44  O   UNL     1     111.586 130.706 140.807  0.00  0.00    +0.000 OA
BRANCH  44  49
ATOM     45  O   UNL     1     111.726 129.920 141.992  0.00  0.00    +0.000 OA
ATOM     46  O   UNL     1     110.932 131.932 141.697  0.00  0.00    +0.000 OA
ATOM     47  O   UNL     1     110.745 131.759 143.327  0.00  0.00    +0.000 OA
ATOM     48  O   UNL     1     111.211 130.359 144.068  0.00  0.00    +0.000 OA
ATOM     49  C   UNL     1     111.493 130.619 141.622  0.00  0.00    +0.000 C 
ATOM     50  C   UNL     1     111.166 131.232 142.067  0.00  0.00    +0.000 C 
ATOM     51  C   UNL     1     111.072 131.146 142.882  0.00  0.00    +0.000 C 
ATOM     52  C   UNL     1     111.305 130.446 143.252  0.00  0.00    +0.000 C 
ATOM     53  C   UNL     1     111.632 129.833 142.807  0.00  0.00    +0.000 C 
ATOM     54  C   UNL     1     111.865 129.134 143.177  0.00  0.00    +0.000 C 
ENDBRANCH  44  49
ENDBRANCH  38  44
ENDBRANCH  34  41
ENDBRANCH  33  34
ENDBRANCH   5  33
TORSDOF 9
ENDMDL
MODEL 9
REMARK VINA RESULT:     -10.7      1.751      5.021
REMARK  Name = 5351495
REMARK  9 active torsions:
REMARK  status: ('A' for Active; 'I' for Inactive)
REMARK    1  A    between atoms: O_1  and  C_21
REMARK    2  A    between atoms: O_1  and  C_26
REMARK    3  A    between atoms: O_3  and  C_24
REMARK    4  A    between atoms: O_3  and  C_34
REMARK    5  A    between atoms: O_13  and  C_36
REMARK    6  A    between atoms: O_13  and  C_39
REMARK    7  A    between atoms: O_18  and  C_50
REMARK    8  A    between atoms: C_29  and  C_34
REMARK    9  A    between atoms: C_40  and  C_43
REMARK                            x       y       z     vdW  Elec       q    Type
REMARK                         _______ _______ _______ _____ _____    ______ ____
ROOT
ATOM      1  O   UNL     1     110.331 129.085 136.945  0.00  0.00    +0.000 OA
ATOM      2  O   UNL     1     108.860 127.471 136.947  0.00  0.00    +0.000 OA
ATOM      3  O   UNL     1     108.208 128.486 135.821  0.00  0.00    +0.000 OA
ATOM      4  O   UNL     1     108.971 129.900 135.445  0.00  0.00    +0.000 OA
ATOM      5  C   UNL     1     109.950 128.378 137.133  0.00  0.00    +0.000 C 
ATOM      6  C   UNL     1     109.242 128.178 136.758  0.00  0.00    +0.000 C 
ATOM      7  C   UNL     1     108.916 128.686 136.196  0.00  0.00    +0.000 C 
ATOM      8  C   UNL     1     109.297 129.393 136.007  0.00  0.00    +0.000 C 
ATOM      9  C   UNL     1     110.004 129.592 136.382  0.00  0.00    +0.000 C 
ENDROOT
BRANCH   9  10
ATOM     10  O   UNL     1     110.386 130.299 136.194  0.00  0.00    +0.000 OA
BRANCH  10  14
ATOM     11  O   UNL     1     112.381 130.965 136.777  0.00  0.00    +0.000 OA
ATOM     12  O   UNL     1     111.328 129.271 135.311  0.00  0.00    +0.000 OA
ATOM     13  O   UNL     1     112.622 128.784 134.897  0.00  0.00    +0.000 OA
ATOM     14  C   UNL     1     111.209 130.350 136.241  0.00  0.00    +0.000 A 
ATOM     15  C   UNL     1     111.560 130.914 136.730  0.00  0.00    +0.000 A 
ATOM     16  C   UNL     1     111.679 129.836 135.800  0.00  0.00    +0.000 A 
ATOM     17  C   UNL     1     112.502 129.887 135.847  0.00  0.00    +0.000 A 
ATOM     18  C   UNL     1     112.853 130.451 136.336  0.00  0.00    +0.000 A 
ATOM     19  C   UNL     1     112.981 129.346 135.383  0.00  0.00    +0.000 A 
ATOM     20  C   UNL     1     113.707 130.514 136.394  0.00  0.00    +0.000 A 
ATOM     21  C   UNL     1     113.838 129.393 135.428  0.00  0.00    +0.000 A 
ATOM     22  C   UNL     1     114.204 129.981 135.937  0.00  0.00    +0.000 A 
BRANCH  15  25
ATOM     23  O   UNL     1     110.474 131.739 139.242  0.00  0.00    +0.000 OA
ATOM     24  O   UNL     1     109.673 132.971 138.491  0.00  0.00    +0.000 OA
ATOM     25  C   UNL     1     111.088 131.428 137.171  0.00  0.00    +0.000 A 
ATOM     26  C   UNL     1     111.017 131.327 137.986  0.00  0.00    +0.000 A 
ATOM     27  C   UNL     1     110.687 132.044 136.795  0.00  0.00    +0.000 A 
ATOM     28  C   UNL     1     110.545 131.841 138.427  0.00  0.00    +0.000 A 
ATOM     29  C   UNL     1     110.215 132.558 137.235  0.00  0.00    +0.000 A 
ATOM     30  C   UNL     1     110.144 132.456 138.051  0.00  0.00    +0.000 A 
ENDBRANCH  15  25
BRANCH  22  31
ATOM     31  O   UNL     1     115.026 130.034 135.986  0.00  0.00    +0.000 OA
ATOM     32  C   UNL     1     115.431 130.595 135.538  0.00  0.00    +0.000 C 
ENDBRANCH  22  31
ENDBRANCH  10  14
ENDBRANCH   9  10
BRANCH   5  33
ATOM     33  C   UNL     1     110.275 127.870 137.696  0.00  0.00    +0.000 C 
BRANCH  33  34
ATOM     34  O   UNL     1     110.414 128.139 138.463  0.00  0.00    +0.000 OA
BRANCH  34  41
ATOM     35  O   UNL     1     111.572 127.306 138.547  0.00  0.00    +0.000 OA
ATOM     36  O   UNL     1     110.635 128.604 140.031  0.00  0.00    +0.000 OA
ATOM     37  O   UNL     1     112.952 126.940 140.198  0.00  0.00    +0.000 OA
ATOM     38  C   UNL     1     111.794 127.772 140.114  0.00  0.00    +0.000 C 
ATOM     39  C   UNL     1     111.159 128.071 139.680  0.00  0.00    +0.000 C 
ATOM     40  C   UNL     1     112.318 127.239 139.764  0.00  0.00    +0.000 C 
ATOM     41  C   UNL     1     111.049 127.838 138.897  0.00  0.00    +0.000 C 
ATOM     42  C   UNL     1     112.207 127.006 138.980  0.00  0.00    +0.000 C 
ATOM     43  C   UNL     1     112.731 126.474 138.630  0.00  0.00    +0.000 C 
BRANCH  38  44
ATOM     44  O   UNL     1     111.904 128.004 140.898  0.00  0.00    +0.000 OA
BRANCH  44  49
ATOM     45  O   UNL     1     112.773 129.067 140.500  0.00  0.00    +0.000 OA
ATOM     46  O   UNL     1     111.701 128.722 142.370  0.00  0.00    +0.000 OA
ATOM     47  O   UNL     1     112.468 130.143 142.708  0.00  0.00    +0.000 OA
ATOM     48  O   UNL     1     113.438 130.847 141.575  0.00  0.00    +0.000 OA
ATOM     49  C   UNL     1     112.288 128.715 141.067  0.00  0.00    +0.000 C 
ATOM     50  C   UNL     1     112.186 129.074 141.803  0.00  0.00    +0.000 C 
ATOM     51  C   UNL     1     112.569 129.784 141.972  0.00  0.00    +0.000 C 
ATOM     52  C   UNL     1     113.055 130.136 141.405  0.00  0.00    +0.000 C 
ATOM     53  C   UNL     1     113.156 129.777 140.669  0.00  0.00    +0.000 C 
ATOM     54  C   UNL     1     113.642 130.130 140.103  0.00  0.00    +0.000 C 
ENDBRANCH  44  49
ENDBRANCH  38  44
ENDBRANCH  34  41
ENDBRANCH  33  34
ENDBRANCH   5  33
TORSDOF 9
ENDMDL
MODEL 10
REMARK VINA RESULT:     -10.6      1.834      4.130
REMARK  Name = 5351495
REMARK  9 active torsions:
REMARK  status: ('A' for Active; 'I' for Inactive)
REMARK    1  A    between atoms: O_1  and  C_21
REMARK    2  A    between atoms: O_1  and  C_26
REMARK    3  A    between atoms: O_3  and  C_24
REMARK    4  A    between atoms: O_3  and  C_34
REMARK    5  A    between atoms: O_13  and  C_36
REMARK    6  A    between atoms: O_13  and  C_39
REMARK    7  A    between atoms: O_18  and  C_50
REMARK    8  A    between atoms: C_29  and  C_34
REMARK    9  A    between atoms: C_40  and  C_43
REMARK                            x       y       z     vdW  Elec       q    Type
REMARK                         _______ _______ _______ _____ _____    ______ ____
ROOT
ATOM      1  O   UNL     1     110.184 129.220 136.774  0.00  0.00    +0.000 OA
ATOM      2  O   UNL     1     108.622 127.716 136.525  0.00  0.00    +0.000 OA
ATOM      3  O   UNL     1     108.087 128.892 135.499  0.00  0.00    +0.000 OA
ATOM      4  O   UNL     1     108.950 130.288 135.322  0.00  0.00    +0.000 OA
ATOM      5  C   UNL     1     109.753 128.523 136.862  0.00  0.00    +0.000 C 
ATOM      6  C   UNL     1     109.053 128.413 136.436  0.00  0.00    +0.000 C 
ATOM      7  C   UNL     1     108.787 129.002 135.924  0.00  0.00    +0.000 C 
ATOM      8  C   UNL     1     109.218 129.700 135.836  0.00  0.00    +0.000 C 
ATOM      9  C   UNL     1     109.916 129.809 136.260  0.00  0.00    +0.000 C 
ENDROOT
BRANCH   9  10
ATOM     10  O   UNL     1     110.348 130.506 136.172  0.00  0.00    +0.000 OA
BRANCH  10  14
ATOM     11  O   UNL     1     112.402 130.933 136.774  0.00  0.00    +0.000 OA
ATOM     12  O   UNL     1     111.186 129.540 135.130  0.00  0.00    +0.000 OA
ATOM     13  O   UNL     1     112.428 129.017 134.612  0.00  0.00    +0.000 OA
ATOM     14  C   UNL     1     111.173 130.488 136.199  0.00  0.00    +0.000 A 
ATOM     15  C   UNL     1     111.578 130.952 136.748  0.00  0.00    +0.000 A 
ATOM     16  C   UNL     1     111.591 130.004 135.678  0.00  0.00    +0.000 A 
ATOM     17  C   UNL     1     112.416 129.986 135.705  0.00  0.00    +0.000 A 
ATOM     18  C   UNL     1     112.822 130.450 136.253  0.00  0.00    +0.000 A 
ATOM     19  C   UNL     1     112.841 129.479 135.157  0.00  0.00    +0.000 A 
ATOM     20  C   UNL     1     113.680 130.440 136.292  0.00  0.00    +0.000 A 
ATOM     21  C   UNL     1     113.700 129.455 135.180  0.00  0.00    +0.000 A 
ATOM     22  C   UNL     1     114.122 129.938 135.751  0.00  0.00    +0.000 A 
BRANCH  15  25
ATOM     23  O   UNL     1     110.579 131.484 139.372  0.00  0.00    +0.000 OA
ATOM     24  O   UNL     1     109.899 132.886 138.829  0.00  0.00    +0.000 OA
ATOM     25  C   UNL     1     111.159 131.435 137.269  0.00  0.00    +0.000 A 
ATOM     26  C   UNL     1     111.079 131.218 138.060  0.00  0.00    +0.000 A 
ATOM     27  C   UNL     1     110.819 132.136 136.997  0.00  0.00    +0.000 A 
ATOM     28  C   UNL     1     110.659 131.701 138.581  0.00  0.00    +0.000 A 
ATOM     29  C   UNL     1     110.399 132.620 137.517  0.00  0.00    +0.000 A 
ATOM     30  C   UNL     1     110.319 132.402 138.309  0.00  0.00    +0.000 A 
ENDBRANCH  15  25
BRANCH  22  31
ATOM     31  O   UNL     1     114.946 129.922 135.780  0.00  0.00    +0.000 OA
ATOM     32  C   UNL     1     115.385 130.505 135.396  0.00  0.00    +0.000 C 
ENDBRANCH  22  31
ENDBRANCH  10  14
ENDBRANCH   9  10
BRANCH   5  33
ATOM     33  C   UNL     1     110.019 127.934 137.374  0.00  0.00    +0.000 C 
BRANCH  33  34
ATOM     34  O   UNL     1     110.647 128.086 137.887  0.00  0.00    +0.000 OA
BRANCH  34  41
ATOM     35  O   UNL     1     110.372 127.198 138.972  0.00  0.00    +0.000 OA
ATOM     36  O   UNL     1     112.202 127.537 137.832  0.00  0.00    +0.000 OA
ATOM     37  O   UNL     1     111.651 125.760 140.001  0.00  0.00    +0.000 OA
ATOM     38  C   UNL     1     111.927 126.648 138.916  0.00  0.00    +0.000 C 
ATOM     39  C   UNL     1     111.675 127.230 138.388  0.00  0.00    +0.000 C 
ATOM     40  C   UNL     1     111.400 126.341 139.473  0.00  0.00    +0.000 C 
ATOM     41  C   UNL     1     110.898 127.505 138.416  0.00  0.00    +0.000 C 
ATOM     42  C   UNL     1     110.622 126.616 139.501  0.00  0.00    +0.000 C 
ATOM     43  C   UNL     1     110.096 126.309 140.056  0.00  0.00    +0.000 C 
BRANCH  38  44
ATOM     44  O   UNL     1     112.704 126.374 138.889  0.00  0.00    +0.000 OA
BRANCH  44  49
ATOM     45  O   UNL     1     112.334 125.360 137.951  0.00  0.00    +0.000 OA
ATOM     46  O   UNL     1     114.298 126.082 138.575  0.00  0.00    +0.000 OA
ATOM     47  O   UNL     1     114.725 124.923 137.481  0.00  0.00    +0.000 OA
ATOM     48  O   UNL     1     113.558 124.056 136.700  0.00  0.00    +0.000 OA
ATOM     49  C   UNL     1     112.917 125.794 138.341  0.00  0.00    +0.000 C 
ATOM     50  C   UNL     1     113.714 125.648 138.185  0.00  0.00    +0.000 C 
ATOM     51  C   UNL     1     113.928 125.069 137.638  0.00  0.00    +0.000 C 
ATOM     52  C   UNL     1     113.344 124.635 137.248  0.00  0.00    +0.000 C 
ATOM     53  C   UNL     1     112.547 124.781 137.405  0.00  0.00    +0.000 C 
ATOM     54  C   UNL     1     111.964 124.347 137.014  0.00  0.00    +0.000 C 
ENDBRANCH  44  49
ENDBRANCH  38  44
ENDBRANCH  34  41
ENDBRANCH  33  34
ENDBRANCH   5  33
TORSDOF 9
ENDMDL
