MODEL 1
REMARK VINA RESULT:      -7.7      0.000      0.000
REMARK  Name = 14394138
REMARK  4 active torsions:
REMARK  status: ('A' for Active; 'I' for Inactive)
REMARK    1  A    between atoms: O_2  and  C_12
REMARK    2  A    between atoms: O_3  and  C_16
REMARK    3  A    between atoms: O_4  and  C_18
REMARK    4  A    between atoms: C_6  and  C_9
REMARK                            x       y       z     vdW  Elec       q    Type
REMARK                         _______ _______ _______ _____ _____    ______ ____
ROOT
ATOM      1  C   UNL     1     105.202 124.824 146.759  0.00  0.00    +0.000 A 
ATOM      2  C   UNL     1     105.615 124.759 147.470  0.00  0.00    +0.000 A 
ATOM      3  C   UNL     1     105.591 125.081 146.077  0.00  0.00    +0.000 A 
ATOM      4  C   UNL     1     106.393 125.272 146.108  0.00  0.00    +0.000 A 
ATOM      5  C   UNL     1     106.417 124.951 147.501  0.00  0.00    +0.000 A 
ATOM      6  C   UNL     1     106.805 125.207 146.820  0.00  0.00    +0.000 A 
ENDROOT
BRANCH   1   9
ATOM      7  O   UNL     1     103.036 124.968 146.986  0.00  0.00    +0.000 OA
ATOM      8  O   UNL     1     100.901 123.120 146.273  0.00  0.00    +0.000 OA
ATOM      9  C   UNL     1     104.400 124.632 146.727  0.00  0.00    +0.000 C 
ATOM     10  C   UNL     1     104.161 123.911 146.405  0.00  0.00    +0.000 C 
ATOM     11  C   UNL     1     103.838 125.161 147.017  0.00  0.00    +0.000 C 
ATOM     12  C   UNL     1     103.359 123.719 146.374  0.00  0.00    +0.000 A 
ATOM     13  C   UNL     1     102.797 124.247 146.664  0.00  0.00    +0.000 A 
ATOM     14  C   UNL     1     103.123 122.964 146.036  0.00  0.00    +0.000 A 
ATOM     15  C   UNL     1     101.958 124.059 146.637  0.00  0.00    +0.000 A 
ATOM     16  C   UNL     1     102.290 122.759 146.000  0.00  0.00    +0.000 A 
ATOM     17  C   UNL     1     101.704 123.310 146.303  0.00  0.00    +0.000 A 
ENDBRANCH   1   9
BRANCH   2  18
ATOM     18  O   UNL     1     105.226 124.502 148.151  0.00  0.00    +0.000 OA
ATOM     19  C   UNL     1     105.625 124.487 148.873  0.00  0.00    +0.000 C 
ENDBRANCH   2  18
BRANCH   4  20
ATOM     20  O   UNL     1     106.782 125.529 145.427  0.00  0.00    +0.000 OA
ATOM     21  C   UNL     1     106.374 125.966 144.859  0.00  0.00    +0.000 C 
ENDBRANCH   4  20
BRANCH   6  22
ATOM     22  O   UNL     1     107.608 125.399 146.850  0.00  0.00    +0.000 OA
ATOM     23  C   UNL     1     108.037 125.271 147.543  0.00  0.00    +0.000 C 
ENDBRANCH   6  22
TORSDOF 4
ENDMDL
MODEL 2
REMARK VINA RESULT:      -7.7      7.804      9.176
REMARK  Name = 14394138
REMARK  4 active torsions:
REMARK  status: ('A' for Active; 'I' for Inactive)
REMARK    1  A    between atoms: O_2  and  C_12
REMARK    2  A    between atoms: O_3  and  C_16
REMARK    3  A    between atoms: O_4  and  C_18
REMARK    4  A    between atoms: C_6  and  C_9
REMARK                            x       y       z     vdW  Elec       q    Type
REMARK                         _______ _______ _______ _____ _____    ______ ____
ROOT
ATOM      1  C   UNL     1     102.555 130.583 141.560  0.00  0.00    +0.000 A 
ATOM      2  C   UNL     1     103.008 130.281 142.180  0.00  0.00    +0.000 A 
ATOM      3  C   UNL     1     102.535 130.189 140.834  0.00  0.00    +0.000 A 
ATOM      4  C   UNL     1     102.968 129.495 140.730  0.00  0.00    +0.000 A 
ATOM      5  C   UNL     1     103.440 129.586 142.076  0.00  0.00    +0.000 A 
ATOM      6  C   UNL     1     103.420 129.193 141.351  0.00  0.00    +0.000 A 
ENDROOT
BRANCH   1   9
ATOM      7  O   UNL     1     100.923 131.941 142.064  0.00  0.00    +0.000 OA
ATOM      8  O   UNL     1     100.710 134.840 141.886  0.00  0.00    +0.000 OA
ATOM      9  C   UNL     1     102.123 131.278 141.663  0.00  0.00    +0.000 C 
ATOM     10  C   UNL     1     102.460 132.006 141.468  0.00  0.00    +0.000 C 
ATOM     11  C   UNL     1     101.355 131.245 141.961  0.00  0.00    +0.000 C 
ATOM     12  C   UNL     1     102.028 132.701 141.572  0.00  0.00    +0.000 A 
ATOM     13  C   UNL     1     101.260 132.668 141.870  0.00  0.00    +0.000 A 
ATOM     14  C   UNL     1     102.390 133.453 141.365  0.00  0.00    +0.000 A 
ATOM     15  C   UNL     1     100.799 133.386 141.982  0.00  0.00    +0.000 A 
ATOM     16  C   UNL     1     101.946 134.180 141.471  0.00  0.00    +0.000 A 
ATOM     17  C   UNL     1     101.144 134.146 141.781  0.00  0.00    +0.000 A 
ENDBRANCH   1   9
BRANCH   2  18
ATOM     18  O   UNL     1     103.028 130.674 142.905  0.00  0.00    +0.000 OA
ATOM     19  C   UNL     1     103.499 130.386 143.518  0.00  0.00    +0.000 C 
ENDBRANCH   2  18
BRANCH   4  20
ATOM     20  O   UNL     1     102.947 129.101 140.005  0.00  0.00    +0.000 OA
ATOM     21  C   UNL     1     102.276 129.147 139.529  0.00  0.00    +0.000 C 
ENDBRANCH   4  20
BRANCH   6  22
ATOM     22  O   UNL     1     103.852 128.498 141.247  0.00  0.00    +0.000 OA
ATOM     23  C   UNL     1     104.532 128.364 141.694  0.00  0.00    +0.000 C 
ENDBRANCH   6  22
TORSDOF 4
ENDMDL
MODEL 3
REMARK VINA RESULT:      -7.6      0.985      4.479
REMARK  Name = 14394138
REMARK  4 active torsions:
REMARK  status: ('A' for Active; 'I' for Inactive)
REMARK    1  A    between atoms: O_2  and  C_12
REMARK    2  A    between atoms: O_3  and  C_16
REMARK    3  A    between atoms: O_4  and  C_18
REMARK    4  A    between atoms: C_6  and  C_9
REMARK                            x       y       z     vdW  Elec       q    Type
REMARK                         _______ _______ _______ _____ _____    ______ ____
ROOT
ATOM      1  C   UNL     1     103.746 124.449 146.812  0.00  0.00    +0.000 A 
ATOM      2  C   UNL     1     103.519 123.795 146.363  0.00  0.00    +0.000 A 
ATOM      3  C   UNL     1     103.183 124.863 147.252  0.00  0.00    +0.000 A 
ATOM      4  C   UNL     1     102.394 124.623 147.242  0.00  0.00    +0.000 A 
ATOM      5  C   UNL     1     102.729 123.554 146.354  0.00  0.00    +0.000 A 
ATOM      6  C   UNL     1     102.167 123.969 146.793  0.00  0.00    +0.000 A 
ENDROOT
BRANCH   1   9
ATOM      7  O   UNL     1     105.629 125.372 146.207  0.00  0.00    +0.000 OA
ATOM      8  O   UNL     1     108.232 125.460 147.510  0.00  0.00    +0.000 OA
ATOM      9  C   UNL     1     104.535 124.689 146.822  0.00  0.00    +0.000 C 
ATOM     10  C   UNL     1     105.020 124.487 147.459  0.00  0.00    +0.000 C 
ATOM     11  C   UNL     1     104.839 125.132 146.197  0.00  0.00    +0.000 C 
ATOM     12  C   UNL     1     105.809 124.727 147.469  0.00  0.00    +0.000 A 
ATOM     13  C   UNL     1     106.113 125.170 146.844  0.00  0.00    +0.000 A 
ATOM     14  C   UNL     1     106.303 124.510 148.138  0.00  0.00    +0.000 A 
ATOM     15  C   UNL     1     106.934 125.426 146.843  0.00  0.00    +0.000 A 
ATOM     16  C   UNL     1     107.125 124.757 148.155  0.00  0.00    +0.000 A 
ATOM     17  C   UNL     1     107.443 125.219 147.502  0.00  0.00    +0.000 A 
ENDBRANCH   1   9
BRANCH   2  18
ATOM     18  O   UNL     1     104.081 123.381 145.924  0.00  0.00    +0.000 OA
ATOM     19  C   UNL     1     103.851 122.739 145.459  0.00  0.00    +0.000 C 
ENDBRANCH   2  18
BRANCH   4  20
ATOM     20  O   UNL     1     101.832 125.037 147.682  0.00  0.00    +0.000 OA
ATOM     21  C   UNL     1     102.066 125.490 148.329  0.00  0.00    +0.000 C 
ENDBRANCH   4  20
BRANCH   6  22
ATOM     22  O   UNL     1     101.378 123.728 146.784  0.00  0.00    +0.000 OA
ATOM     23  C   UNL     1     101.052 123.408 146.097  0.00  0.00    +0.000 C 
ENDBRANCH   6  22
TORSDOF 4
ENDMDL
MODEL 4
REMARK VINA RESULT:      -7.5      9.841     12.722
REMARK  Name = 14394138
REMARK  4 active torsions:
REMARK  status: ('A' for Active; 'I' for Inactive)
REMARK    1  A    between atoms: O_2  and  C_12
REMARK    2  A    between atoms: O_3  and  C_16
REMARK    3  A    between atoms: O_4  and  C_18
REMARK    4  A    between atoms: C_6  and  C_9
REMARK                            x       y       z     vdW  Elec       q    Type
REMARK                         _______ _______ _______ _____ _____    ______ ____
ROOT
ATOM      1  C   UNL     1     110.736 125.852 136.796  0.00  0.00    +0.000 A 
ATOM      2  C   UNL     1     110.424 126.000 136.047  0.00  0.00    +0.000 A 
ATOM      3  C   UNL     1     110.327 126.099 137.470  0.00  0.00    +0.000 A 
ATOM      4  C   UNL     1     109.607 126.493 137.392  0.00  0.00    +0.000 A 
ATOM      5  C   UNL     1     109.703 126.394 135.970  0.00  0.00    +0.000 A 
ATOM      6  C   UNL     1     109.295 126.641 136.643  0.00  0.00    +0.000 A 
ENDROOT
BRANCH   1   9
ATOM      7  O   UNL     1     112.202 124.240 136.931  0.00  0.00    +0.000 OA
ATOM      8  O   UNL     1     115.091 124.295 137.287  0.00  0.00    +0.000 OA
ATOM      9  C   UNL     1     111.457 125.458 136.874  0.00  0.00    +0.000 C 
ATOM     10  C   UNL     1     112.154 125.889 136.972  0.00  0.00    +0.000 C 
ATOM     11  C   UNL     1     111.481 124.634 136.853  0.00  0.00    +0.000 C 
ATOM     12  C   UNL     1     112.874 125.495 137.049  0.00  0.00    +0.000 A 
ATOM     13  C   UNL     1     112.898 124.671 137.029  0.00  0.00    +0.000 A 
ATOM     14  C   UNL     1     113.594 125.955 137.151  0.00  0.00    +0.000 A 
ATOM     15  C   UNL     1     113.643 124.249 137.108  0.00  0.00    +0.000 A 
ATOM     16  C   UNL     1     114.347 125.551 137.232  0.00  0.00    +0.000 A 
ATOM     17  C   UNL     1     114.372 124.692 137.210  0.00  0.00    +0.000 A 
ENDBRANCH   1   9
BRANCH   2  18
ATOM     18  O   UNL     1     110.832 125.753 135.374  0.00  0.00    +0.000 OA
ATOM     19  C   UNL     1     110.508 125.877 134.626  0.00  0.00    +0.000 C 
ENDBRANCH   2  18
BRANCH   4  20
ATOM     20  O   UNL     1     109.198 126.741 138.066  0.00  0.00    +0.000 OA
ATOM     21  C   UNL     1     109.477 126.539 138.815  0.00  0.00    +0.000 C 
ENDBRANCH   4  20
BRANCH   6  22
ATOM     22  O   UNL     1     108.574 127.036 136.566  0.00  0.00    +0.000 OA
ATOM     23  C   UNL     1     108.464 127.580 135.956  0.00  0.00    +0.000 C 
ENDBRANCH   6  22
TORSDOF 4
ENDMDL
MODEL 5
REMARK VINA RESULT:      -7.4     12.509     13.816
REMARK  Name = 14394138
REMARK  4 active torsions:
REMARK  status: ('A' for Active; 'I' for Inactive)
REMARK    1  A    between atoms: O_2  and  C_12
REMARK    2  A    between atoms: O_3  and  C_16
REMARK    3  A    between atoms: O_4  and  C_18
REMARK    4  A    between atoms: C_6  and  C_9
REMARK                            x       y       z     vdW  Elec       q    Type
REMARK                         _______ _______ _______ _____ _____    ______ ____
ROOT
ATOM      1  C   UNL     1     112.648 126.226 136.648  0.00  0.00    +0.000 A 
ATOM      2  C   UNL     1     113.124 125.631 136.965  0.00  0.00    +0.000 A 
ATOM      3  C   UNL     1     111.954 126.029 136.246  0.00  0.00    +0.000 A 
ATOM      4  C   UNL     1     111.737 125.238 136.163  0.00  0.00    +0.000 A 
ATOM      5  C   UNL     1     112.906 124.839 136.882  0.00  0.00    +0.000 A 
ATOM      6  C   UNL     1     112.212 124.643 136.481  0.00  0.00    +0.000 A 
ENDROOT
BRANCH   1   9
ATOM      7  O   UNL     1     112.859 128.230 137.485  0.00  0.00    +0.000 OA
ATOM      8  O   UNL     1     114.200 130.607 136.469  0.00  0.00    +0.000 OA
ATOM      9  C   UNL     1     112.866 127.017 136.731  0.00  0.00    +0.000 C 
ATOM     10  C   UNL     1     113.309 127.387 136.141  0.00  0.00    +0.000 C 
ATOM     11  C   UNL     1     112.641 127.438 137.402  0.00  0.00    +0.000 C 
ATOM     12  C   UNL     1     113.527 128.178 136.224  0.00  0.00    +0.000 A 
ATOM     13  C   UNL     1     113.302 128.599 136.895  0.00  0.00    +0.000 A 
ATOM     14  C   UNL     1     113.989 128.552 135.602  0.00  0.00    +0.000 A 
ATOM     15  C   UNL     1     113.522 129.425 136.994  0.00  0.00    +0.000 A 
ATOM     16  C   UNL     1     114.219 129.375 135.682  0.00  0.00    +0.000 A 
ATOM     17  C   UNL     1     113.984 129.815 136.383  0.00  0.00    +0.000 A 
ENDBRANCH   1   9
BRANCH   2  18
ATOM     18  O   UNL     1     113.817 125.827 137.367  0.00  0.00    +0.000 OA
ATOM     19  C   UNL     1     114.327 125.232 137.626  0.00  0.00    +0.000 C 
ENDBRANCH   2  18
BRANCH   4  20
ATOM     20  O   UNL     1     111.043 125.041 135.761  0.00  0.00    +0.000 OA
ATOM     21  C   UNL     1     110.637 125.617 135.334  0.00  0.00    +0.000 C 
ENDBRANCH   4  20
BRANCH   6  22
ATOM     22  O   UNL     1     111.994 123.851 136.397  0.00  0.00    +0.000 OA
ATOM     23  C   UNL     1     112.099 123.326 137.024  0.00  0.00    +0.000 C 
ENDBRANCH   6  22
TORSDOF 4
ENDMDL
MODEL 6
REMARK VINA RESULT:      -7.4     12.647     14.091
REMARK  Name = 14394138
REMARK  4 active torsions:
REMARK  status: ('A' for Active; 'I' for Inactive)
REMARK    1  A    between atoms: O_2  and  C_12
REMARK    2  A    between atoms: O_3  and  C_16
REMARK    3  A    between atoms: O_4  and  C_18
REMARK    4  A    between atoms: C_6  and  C_9
REMARK                            x       y       z     vdW  Elec       q    Type
REMARK                         _______ _______ _______ _____ _____    ______ ____
ROOT
ATOM      1  C   UNL     1     113.071 126.375 136.671  0.00  0.00    +0.000 A 
ATOM      2  C   UNL     1     112.383 126.066 136.335  0.00  0.00    +0.000 A 
ATOM      3  C   UNL     1     113.634 125.868 136.998  0.00  0.00    +0.000 A 
ATOM      4  C   UNL     1     113.510 125.053 136.988  0.00  0.00    +0.000 A 
ATOM      5  C   UNL     1     112.259 125.250 136.326  0.00  0.00    +0.000 A 
ATOM      6  C   UNL     1     112.822 124.744 136.653  0.00  0.00    +0.000 A 
ENDROOT
BRANCH   1   9
ATOM      7  O   UNL     1     112.993 128.467 137.289  0.00  0.00    +0.000 OA
ATOM      8  O   UNL     1     114.162 130.862 136.115  0.00  0.00    +0.000 OA
ATOM      9  C   UNL     1     113.195 127.191 136.680  0.00  0.00    +0.000 C 
ATOM     10  C   UNL     1     113.648 127.545 136.087  0.00  0.00    +0.000 C 
ATOM     11  C   UNL     1     112.868 127.651 137.280  0.00  0.00    +0.000 C 
ATOM     12  C   UNL     1     113.772 128.360 136.097  0.00  0.00    +0.000 A 
ATOM     13  C   UNL     1     113.446 128.821 136.697  0.00  0.00    +0.000 A 
ATOM     14  C   UNL     1     114.246 128.718 135.474  0.00  0.00    +0.000 A 
ATOM     15  C   UNL     1     113.568 129.672 136.717  0.00  0.00    +0.000 A 
ATOM     16  C   UNL     1     114.380 129.566 135.477  0.00  0.00    +0.000 A 
ATOM     17  C   UNL     1     114.038 130.047 136.104  0.00  0.00    +0.000 A 
ENDBRANCH   1   9
BRANCH   2  18
ATOM     18  O   UNL     1     111.820 126.572 136.008  0.00  0.00    +0.000 OA
ATOM     19  C   UNL     1     111.170 126.262 135.606  0.00  0.00    +0.000 C 
ENDBRANCH   2  18
BRANCH   4  20
ATOM     20  O   UNL     1     114.074 124.546 137.316  0.00  0.00    +0.000 OA
ATOM     21  C   UNL     1     114.858 124.789 137.380  0.00  0.00    +0.000 C 
ENDBRANCH   4  20
BRANCH   6  22
ATOM     22  O   UNL     1     112.698 123.928 136.643  0.00  0.00    +0.000 OA
ATOM     23  C   UNL     1     111.945 123.623 136.789  0.00  0.00    +0.000 C 
ENDBRANCH   6  22
TORSDOF 4
ENDMDL
MODEL 7
REMARK VINA RESULT:      -7.3     12.434     13.899
REMARK  Name = 14394138
REMARK  4 active torsions:
REMARK  status: ('A' for Active; 'I' for Inactive)
REMARK    1  A    between atoms: O_2  and  C_12
REMARK    2  A    between atoms: O_3  and  C_16
REMARK    3  A    between atoms: O_4  and  C_18
REMARK    4  A    between atoms: C_6  and  C_9
REMARK                            x       y       z     vdW  Elec       q    Type
REMARK                         _______ _______ _______ _____ _____    ______ ____
ROOT
ATOM      1  C   UNL     1     113.378 128.139 136.502  0.00  0.00    +0.000 A 
ATOM      2  C   UNL     1     113.061 128.621 137.092  0.00  0.00    +0.000 A 
ATOM      3  C   UNL     1     113.844 128.468 135.905  0.00  0.00    +0.000 A 
ATOM      4  C   UNL     1     113.992 129.279 135.899  0.00  0.00    +0.000 A 
ATOM      5  C   UNL     1     113.210 129.433 137.085  0.00  0.00    +0.000 A 
ATOM      6  C   UNL     1     113.675 129.762 136.489  0.00  0.00    +0.000 A 
ENDROOT
BRANCH   1   9
ATOM      7  O   UNL     1     112.369 126.224 136.221  0.00  0.00    +0.000 OA
ATOM      8  O   UNL     1     113.203 123.503 136.838  0.00  0.00    +0.000 OA
ATOM      9  C   UNL     1     113.230 127.327 136.508  0.00  0.00    +0.000 C 
ATOM     10  C   UNL     1     113.796 126.807 136.808  0.00  0.00    +0.000 C 
ATOM     11  C   UNL     1     112.517 127.036 136.214  0.00  0.00    +0.000 C 
ATOM     12  C   UNL     1     113.648 125.996 136.815  0.00  0.00    +0.000 A 
ATOM     13  C   UNL     1     112.935 125.704 136.521  0.00  0.00    +0.000 A 
ATOM     14  C   UNL     1     114.246 125.464 137.130  0.00  0.00    +0.000 A 
ATOM     15  C   UNL     1     112.768 124.860 136.522  0.00  0.00    +0.000 A 
ATOM     16  C   UNL     1     114.098 124.618 137.140  0.00  0.00    +0.000 A 
ATOM     17  C   UNL     1     113.354 124.314 136.833  0.00  0.00    +0.000 A 
ENDBRANCH   1   9
BRANCH   2  18
ATOM     18  O   UNL     1     112.596 128.292 137.688  0.00  0.00    +0.000 OA
ATOM     19  C   UNL     1     112.267 128.777 138.269  0.00  0.00    +0.000 C 
ENDBRANCH   2  18
BRANCH   4  20
ATOM     20  O   UNL     1     114.458 129.609 135.302  0.00  0.00    +0.000 OA
ATOM     21  C   UNL     1     114.607 129.182 134.613  0.00  0.00    +0.000 C 
ENDBRANCH   4  20
BRANCH   6  22
ATOM     22  O   UNL     1     113.824 130.574 136.482  0.00  0.00    +0.000 OA
ATOM     23  C   UNL     1     113.844 130.995 137.191  0.00  0.00    +0.000 C 
ENDBRANCH   6  22
TORSDOF 4
ENDMDL
MODEL 8
REMARK VINA RESULT:      -7.2     10.762     12.526
REMARK  Name = 14394138
REMARK  4 active torsions:
REMARK  status: ('A' for Active; 'I' for Inactive)
REMARK    1  A    between atoms: O_2  and  C_12
REMARK    2  A    between atoms: O_3  and  C_16
REMARK    3  A    between atoms: O_4  and  C_18
REMARK    4  A    between atoms: C_6  and  C_9
REMARK                            x       y       z     vdW  Elec       q    Type
REMARK                         _______ _______ _______ _____ _____    ______ ____
ROOT
ATOM      1  C   UNL     1     113.027 125.919 138.010  0.00  0.00    +0.000 A 
ATOM      2  C   UNL     1     112.285 125.558 138.004  0.00  0.00    +0.000 A 
ATOM      3  C   UNL     1     113.641 125.608 137.554  0.00  0.00    +0.000 A 
ATOM      4  C   UNL     1     113.512 124.936 137.092  0.00  0.00    +0.000 A 
ATOM      5  C   UNL     1     112.156 124.886 137.541  0.00  0.00    +0.000 A 
ATOM      6  C   UNL     1     112.770 124.576 137.086  0.00  0.00    +0.000 A 
ENDROOT
BRANCH   1   9
ATOM      7  O   UNL     1     113.061 128.004 138.654  0.00  0.00    +0.000 OA
ATOM      8  O   UNL     1     114.040 129.243 141.101  0.00  0.00    +0.000 OA
ATOM      9  C   UNL     1     113.156 126.590 138.471  0.00  0.00    +0.000 C 
ATOM     10  C   UNL     1     113.510 126.518 139.214  0.00  0.00    +0.000 C 
ATOM     11  C   UNL     1     112.932 127.332 138.192  0.00  0.00    +0.000 C 
ATOM     12  C   UNL     1     113.639 127.189 139.675  0.00  0.00    +0.000 A 
ATOM     13  C   UNL     1     113.415 127.931 139.396  0.00  0.00    +0.000 A 
ATOM     14  C   UNL     1     114.009 127.101 140.447  0.00  0.00    +0.000 A 
ATOM     15  C   UNL     1     113.544 128.639 139.868  0.00  0.00    +0.000 A 
ATOM     16  C   UNL     1     114.146 127.796 140.932  0.00  0.00    +0.000 A 
ATOM     17  C   UNL     1     113.912 128.570 140.641  0.00  0.00    +0.000 A 
ENDBRANCH   1   9
BRANCH   2  18
ATOM     18  O   UNL     1     111.671 125.868 138.459  0.00  0.00    +0.000 OA
ATOM     19  C   UNL     1     110.918 125.535 138.418  0.00  0.00    +0.000 C 
ENDBRANCH   2  18
BRANCH   4  20
ATOM     20  O   UNL     1     114.126 124.625 136.636  0.00  0.00    +0.000 OA
ATOM     21  C   UNL     1     114.750 125.109 136.401  0.00  0.00    +0.000 C 
ENDBRANCH   4  20
BRANCH   6  22
ATOM     22  O   UNL     1     112.641 123.903 136.624  0.00  0.00    +0.000 OA
ATOM     23  C   UNL     1     112.084 123.342 136.858  0.00  0.00    +0.000 C 
ENDBRANCH   6  22
TORSDOF 4
ENDMDL
MODEL 9
REMARK VINA RESULT:      -7.1      7.105      8.601
REMARK  Name = 14394138
REMARK  4 active torsions:
REMARK  status: ('A' for Active; 'I' for Inactive)
REMARK    1  A    between atoms: O_2  and  C_12
REMARK    2  A    between atoms: O_3  and  C_16
REMARK    3  A    between atoms: O_4  and  C_18
REMARK    4  A    between atoms: C_6  and  C_9
REMARK                            x       y       z     vdW  Elec       q    Type
REMARK                         _______ _______ _______ _____ _____    ______ ____
ROOT
ATOM      1  C   UNL     1     103.339 130.167 141.769  0.00  0.00    +0.000 A 
ATOM      2  C   UNL     1     103.267 129.587 141.187  0.00  0.00    +0.000 A 
ATOM      3  C   UNL     1     103.784 130.018 142.448  0.00  0.00    +0.000 A 
ATOM      4  C   UNL     1     104.157 129.288 142.544  0.00  0.00    +0.000 A 
ATOM      5  C   UNL     1     103.641 128.856 141.284  0.00  0.00    +0.000 A 
ATOM      6  C   UNL     1     104.085 128.708 141.962  0.00  0.00    +0.000 A 
ENDROOT
BRANCH   1   9
ATOM      7  O   UNL     1     102.948 132.215 141.124  0.00  0.00    +0.000 OA
ATOM      8  O   UNL     1     100.710 134.002 141.650  0.00  0.00    +0.000 OA
ATOM      9  C   UNL     1     102.966 130.896 141.673  0.00  0.00    +0.000 C 
ATOM     10  C   UNL     1     102.237 131.037 142.033  0.00  0.00    +0.000 C 
ATOM     11  C   UNL     1     103.322 131.485 141.219  0.00  0.00    +0.000 C 
ATOM     12  C   UNL     1     101.864 131.766 141.937  0.00  0.00    +0.000 A 
ATOM     13  C   UNL     1     102.219 132.355 141.483  0.00  0.00    +0.000 A 
ATOM     14  C   UNL     1     101.104 131.900 142.317  0.00  0.00    +0.000 A 
ATOM     15  C   UNL     1     101.841 133.119 141.376  0.00  0.00    +0.000 A 
ATOM     16  C   UNL     1     100.710 132.657 142.221  0.00  0.00    +0.000 A 
ATOM     17  C   UNL     1     101.081 133.271 141.747  0.00  0.00    +0.000 A 
ENDBRANCH   1   9
BRANCH   2  18
ATOM     18  O   UNL     1     102.823 129.735 140.508  0.00  0.00    +0.000 OA
ATOM     19  C   UNL     1     102.613 129.114 140.008  0.00  0.00    +0.000 C 
ENDBRANCH   2  18
BRANCH   4  20
ATOM     20  O   UNL     1     104.602 129.139 143.224  0.00  0.00    +0.000 OA
ATOM     21  C   UNL     1     104.470 129.578 143.908  0.00  0.00    +0.000 C 
ENDBRANCH   4  20
BRANCH   6  22
ATOM     22  O   UNL     1     104.459 127.978 142.059  0.00  0.00    +0.000 OA
ATOM     23  C   UNL     1     104.828 127.615 141.416  0.00  0.00    +0.000 C 
ENDBRANCH   6  22
TORSDOF 4
ENDMDL
