MODEL 1
REMARK VINA RESULT:      -9.9      0.000      0.000
REMARK  Name = 100943914
REMARK  16 active torsions:
REMARK  status: ('A' for Active; 'I' for Inactive)
REMARK    1  A    between atoms: O_1  and  C_28
REMARK    2  A    between atoms: O_1  and  C_29
REMARK    3  A    between atoms: O_2  and  C_26
REMARK    4  A    between atoms: O_2  and  C_32
REMARK    5  A    between atoms: O_6  and  C_27
REMARK    6  A    between atoms: O_6  and  C_43
REMARK    7  A    between atoms: O_9  and  C_34
REMARK    8  A    between atoms: O_9  and  C_44
REMARK    9  A    between atoms: O_20  and  C_56
REMARK   10  A    between atoms: O_22  and  C_59
REMARK   11  A    between atoms: O_24  and  C_64
REMARK   12  A    between atoms: C_36  and  C_41
REMARK   13  A    between atoms: C_40  and  C_42
REMARK   14  A    between atoms: C_43  and  C_47
REMARK   15  A    between atoms: C_45  and  C_49
REMARK   16  A    between atoms: C_51  and  C_57
REMARK                            x       y       z     vdW  Elec       q    Type
REMARK                         _______ _______ _______ _____ _____    ______ ____
ROOT
ATOM      1  O   UNL     1     110.560 128.634 136.457  0.00  0.00    +0.000 OA
ATOM      2  O   UNL     1     109.197 129.787 138.171  0.00  0.00    +0.000 OA
ATOM      3  O   UNL     1     108.746 129.838 136.586  0.00  0.00    +0.000 OA
ATOM      4  C   UNL     1     110.332 128.992 137.822  0.00  0.00    +0.000 C 
ATOM      5  C   UNL     1     109.652 129.403 137.600  0.00  0.00    +0.000 C 
ATOM      6  C   UNL     1     109.425 129.429 136.807  0.00  0.00    +0.000 C 
ATOM      7  C   UNL     1     110.787 128.607 137.250  0.00  0.00    +0.000 C 
ATOM      8  C   UNL     1     109.880 129.044 136.235  0.00  0.00    +0.000 C 
ENDROOT
BRANCH   8  10
ATOM      9  O   UNL     1     109.436 128.376 135.052  0.00  0.00    +0.000 OA
ATOM     10  C   UNL     1     109.654 129.070 135.443  0.00  0.00    +0.000 C 
ENDBRANCH   8  10
BRANCH   4  11
ATOM     11  O   UNL     1     110.559 128.966 138.614  0.00  0.00    +0.000 OA
BRANCH  11  16
ATOM     12  O   UNL     1     109.569 127.972 138.888  0.00  0.00    +0.000 OA
ATOM     13  O   UNL     1     108.785 127.218 140.779  0.00  0.00    +0.000 OA
ATOM     14  C   UNL     1     109.775 128.213 140.507  0.00  0.00    +0.000 C 
ATOM     15  C   UNL     1     110.218 128.649 139.966  0.00  0.00    +0.000 C 
ATOM     16  C   UNL     1     110.115 128.529 139.155  0.00  0.00    +0.000 C 
ATOM     17  C   UNL     1     109.228 127.655 140.238  0.00  0.00    +0.000 C 
ATOM     18  C   UNL     1     109.126 127.536 139.428  0.00  0.00    +0.000 C 
BRANCH  15  19
ATOM     19  O   UNL     1     110.764 129.206 140.234  0.00  0.00    +0.000 OA
BRANCH  19  21
ATOM     20  O   UNL     1     111.731 128.191 140.509  0.00  0.00    +0.000 OA
ATOM     21  C   UNL     1     111.547 128.982 140.372  0.00  0.00    +0.000 C 
BRANCH  21  22
ATOM     22  C   UNL     1     112.144 129.551 140.371  0.00  0.00    +0.000 C 
ATOM     23  C   UNL     1     112.898 129.358 140.649  0.00  0.00    +0.000 C 
BRANCH  23  25
ATOM     24  O   UNL     1     115.286 131.636 140.650  0.00  0.00    +0.000 OA
ATOM     25  C   UNL     1     113.495 129.927 140.649  0.00  0.00    +0.000 A 
ATOM     26  C   UNL     1     113.586 130.429 141.298  0.00  0.00    +0.000 A 
ATOM     27  C   UNL     1     114.001 129.995 140.000  0.00  0.00    +0.000 A 
ATOM     28  C   UNL     1     114.183 130.998 141.298  0.00  0.00    +0.000 A 
ATOM     29  C   UNL     1     114.598 130.565 140.001  0.00  0.00    +0.000 A 
ATOM     30  C   UNL     1     114.689 131.066 140.649  0.00  0.00    +0.000 A 
BRANCH  28  31
ATOM     31  O   UNL     1     114.274 131.500 141.947  0.00  0.00    +0.000 OA
ATOM     32  C   UNL     1     113.631 131.664 142.435  0.00  0.00    +0.000 C 
ENDBRANCH  28  31
ENDBRANCH  23  25
ENDBRANCH  21  22
ENDBRANCH  19  21
ENDBRANCH  15  19
BRANCH  14  33
ATOM     33  O   UNL     1     109.878 128.332 141.316  0.00  0.00    +0.000 OA
BRANCH  33  38
ATOM     34  O   UNL     1     108.881 129.354 141.376  0.00  0.00    +0.000 OA
ATOM     35  O   UNL     1     109.629 127.997 142.913  0.00  0.00    +0.000 OA
ATOM     36  O   UNL     1     108.508 128.852 143.770  0.00  0.00    +0.000 OA
ATOM     37  O   UNL     1     107.635 130.041 143.031  0.00  0.00    +0.000 OA
ATOM     38  C   UNL     1     109.317 128.759 141.745  0.00  0.00    +0.000 C 
ATOM     39  C   UNL     1     109.193 128.591 142.543  0.00  0.00    +0.000 C 
ATOM     40  C   UNL     1     108.633 129.019 142.972  0.00  0.00    +0.000 C 
ATOM     41  C   UNL     1     108.196 129.614 142.603  0.00  0.00    +0.000 C 
ATOM     42  C   UNL     1     108.321 129.781 141.804  0.00  0.00    +0.000 C 
BRANCH  42  44
ATOM     43  O   UNL     1     108.256 131.072 141.193  0.00  0.00    +0.000 OA
ATOM     44  C   UNL     1     107.884 130.376 141.435  0.00  0.00    +0.000 C 
ENDBRANCH  42  44
ENDBRANCH  33  38
ENDBRANCH  14  33
ENDBRANCH  11  16
ENDBRANCH   4  11
BRANCH   7  45
ATOM     45  O   UNL     1     111.467 128.197 137.471  0.00  0.00    +0.000 OA
BRANCH  45  50
ATOM     46  O   UNL     1     113.138 127.509 136.247  0.00  0.00    +0.000 OA
ATOM     47  O   UNL     1     112.117 129.637 136.994  0.00  0.00    +0.000 OA
ATOM     48  O   UNL     1     113.104 130.399 136.269  0.00  0.00    +0.000 OA
ATOM     49  O   UNL     1     115.165 128.981 134.760  0.00  0.00    +0.000 OA
ATOM     50  C   UNL     1     112.132 128.208 136.984  0.00  0.00    +0.000 A 
ATOM     51  C   UNL     1     112.473 127.499 136.735  0.00  0.00    +0.000 A 
ATOM     52  C   UNL     1     112.458 128.927 136.744  0.00  0.00    +0.000 A 
ATOM     53  C   UNL     1     113.122 128.938 136.257  0.00  0.00    +0.000 A 
ATOM     54  C   UNL     1     113.463 128.230 136.008  0.00  0.00    +0.000 A 
ATOM     55  C   UNL     1     113.452 129.695 136.015  0.00  0.00    +0.000 A 
ATOM     56  C   UNL     1     114.156 128.227 135.500  0.00  0.00    +0.000 A 
ATOM     57  C   UNL     1     114.144 129.712 135.507  0.00  0.00    +0.000 A 
ATOM     58  C   UNL     1     114.499 128.973 135.248  0.00  0.00    +0.000 A 
BRANCH  51  60
ATOM     59  O   UNL     1     111.171 124.621 137.689  0.00  0.00    +0.000 OA
ATOM     60  C   UNL     1     112.148 126.779 136.974  0.00  0.00    +0.000 A 
ATOM     61  C   UNL     1     111.629 126.375 136.475  0.00  0.00    +0.000 A 
ATOM     62  C   UNL     1     112.341 126.464 137.711  0.00  0.00    +0.000 A 
ATOM     63  C   UNL     1     111.304 125.656 136.714  0.00  0.00    +0.000 A 
ATOM     64  C   UNL     1     112.015 125.744 137.949  0.00  0.00    +0.000 A 
ATOM     65  C   UNL     1     111.497 125.340 137.451  0.00  0.00    +0.000 A 
BRANCH  63  66
ATOM     66  O   UNL     1     110.785 125.252 136.215  0.00  0.00    +0.000 OA
ATOM     67  C   UNL     1     110.859 125.324 135.397  0.00  0.00    +0.000 C 
ENDBRANCH  63  66
ENDBRANCH  51  60
BRANCH  57  68
ATOM     68  O   UNL     1     114.467 130.433 135.270  0.00  0.00    +0.000 OA
ATOM     69  C   UNL     1     115.108 130.754 135.678  0.00  0.00    +0.000 C 
ENDBRANCH  57  68
ENDBRANCH  45  50
ENDBRANCH   7  45
TORSDOF 16
ENDMDL
MODEL 2
REMARK VINA RESULT:      -9.9      1.487      3.558
REMARK  Name = 100943914
REMARK  16 active torsions:
REMARK  status: ('A' for Active; 'I' for Inactive)
REMARK    1  A    between atoms: O_1  and  C_28
REMARK    2  A    between atoms: O_1  and  C_29
REMARK    3  A    between atoms: O_2  and  C_26
REMARK    4  A    between atoms: O_2  and  C_32
REMARK    5  A    between atoms: O_6  and  C_27
REMARK    6  A    between atoms: O_6  and  C_43
REMARK    7  A    between atoms: O_9  and  C_34
REMARK    8  A    between atoms: O_9  and  C_44
REMARK    9  A    between atoms: O_20  and  C_56
REMARK   10  A    between atoms: O_22  and  C_59
REMARK   11  A    between atoms: O_24  and  C_64
REMARK   12  A    between atoms: C_36  and  C_41
REMARK   13  A    between atoms: C_40  and  C_42
REMARK   14  A    between atoms: C_43  and  C_47
REMARK   15  A    between atoms: C_45  and  C_49
REMARK   16  A    between atoms: C_51  and  C_57
REMARK                            x       y       z     vdW  Elec       q    Type
REMARK                         _______ _______ _______ _____ _____    ______ ____
ROOT
ATOM      1  O   UNL     1     113.138 128.531 139.677  0.00  0.00    +0.000 OA
ATOM      2  O   UNL     1     111.814 129.869 141.283  0.00  0.00    +0.000 OA
ATOM      3  O   UNL     1     113.391 129.512 141.609  0.00  0.00    +0.000 OA
ATOM      4  C   UNL     1     111.908 129.156 140.049  0.00  0.00    +0.000 C 
ATOM      5  C   UNL     1     112.256 129.423 140.748  0.00  0.00    +0.000 C 
ATOM      6  C   UNL     1     113.044 129.245 140.911  0.00  0.00    +0.000 C 
ATOM      7  C   UNL     1     112.349 128.709 139.513  0.00  0.00    +0.000 C 
ATOM      8  C   UNL     1     113.486 128.798 140.375  0.00  0.00    +0.000 C 
ENDROOT
BRANCH   8  10
ATOM      9  O   UNL     1     114.490 127.850 140.741  0.00  0.00    +0.000 OA
ATOM     10  C   UNL     1     114.274 128.620 140.538  0.00  0.00    +0.000 C 
ENDBRANCH   8  10
BRANCH   4  11
ATOM     11  O   UNL     1     111.119 129.334 139.885  0.00  0.00    +0.000 OA
BRANCH  11  16
ATOM     12  O   UNL     1     110.674 128.268 140.727  0.00  0.00    +0.000 OA
ATOM     13  O   UNL     1     108.707 127.836 141.566  0.00  0.00    +0.000 OA
ATOM     14  C   UNL     1     109.151 128.902 140.724  0.00  0.00    +0.000 C 
ATOM     15  C   UNL     1     109.754 129.276 140.304  0.00  0.00    +0.000 C 
ATOM     16  C   UNL     1     110.516 128.959 140.306  0.00  0.00    +0.000 C 
ATOM     17  C   UNL     1     109.310 128.210 141.146  0.00  0.00    +0.000 C 
ATOM     18  C   UNL     1     110.072 127.894 141.147  0.00  0.00    +0.000 C 
BRANCH  15  19
ATOM     19  O   UNL     1     109.596 129.967 139.883  0.00  0.00    +0.000 OA
BRANCH  19  21
ATOM     20  O   UNL     1     109.046 129.229 138.790  0.00  0.00    +0.000 OA
ATOM     21  C   UNL     1     109.373 129.924 139.089  0.00  0.00    +0.000 C 
BRANCH  21  22
ATOM     22  C   UNL     1     109.477 130.577 138.596  0.00  0.00    +0.000 C 
ATOM     23  C   UNL     1     109.318 130.513 137.788  0.00  0.00    +0.000 C 
BRANCH  23  25
ATOM     24  O   UNL     1     109.732 133.125 135.814  0.00  0.00    +0.000 OA
ATOM     25  C   UNL     1     109.422 131.166 137.295  0.00  0.00    +0.000 A 
ATOM     26  C   UNL     1     108.806 131.415 136.805  0.00  0.00    +0.000 A 
ATOM     27  C   UNL     1     110.141 131.570 137.291  0.00  0.00    +0.000 A 
ATOM     28  C   UNL     1     108.910 132.068 136.312  0.00  0.00    +0.000 A 
ATOM     29  C   UNL     1     110.244 132.223 136.797  0.00  0.00    +0.000 A 
ATOM     30  C   UNL     1     109.629 132.472 136.308  0.00  0.00    +0.000 A 
BRANCH  28  31
ATOM     31  O   UNL     1     108.293 132.317 135.822  0.00  0.00    +0.000 OA
ATOM     32  C   UNL     1     107.852 131.763 135.402  0.00  0.00    +0.000 C 
ENDBRANCH  28  31
ENDBRANCH  23  25
ENDBRANCH  21  22
ENDBRANCH  19  21
ENDBRANCH  15  19
BRANCH  14  33
ATOM     33  O   UNL     1     108.390 129.218 140.723  0.00  0.00    +0.000 OA
BRANCH  33  38
ATOM     34  O   UNL     1     108.638 129.982 141.904  0.00  0.00    +0.000 OA
ATOM     35  O   UNL     1     106.767 129.299 141.013  0.00  0.00    +0.000 OA
ATOM     36  O   UNL     1     106.205 130.104 142.339  0.00  0.00    +0.000 OA
ATOM     37  O   UNL     1     107.266 130.827 143.376  0.00  0.00    +0.000 OA
ATOM     38  C   UNL     1     108.109 129.621 141.387  0.00  0.00    +0.000 C 
ATOM     39  C   UNL     1     107.297 129.661 141.531  0.00  0.00    +0.000 C 
ATOM     40  C   UNL     1     107.016 130.063 142.194  0.00  0.00    +0.000 C 
ATOM     41  C   UNL     1     107.547 130.425 142.713  0.00  0.00    +0.000 C 
ATOM     42  C   UNL     1     108.357 130.384 142.568  0.00  0.00    +0.000 C 
BRANCH  42  44
ATOM     43  O   UNL     1     109.349 131.380 142.829  0.00  0.00    +0.000 OA
ATOM     44  C   UNL     1     108.888 130.746 143.087  0.00  0.00    +0.000 C 
ENDBRANCH  42  44
ENDBRANCH  33  38
ENDBRANCH  14  33
ENDBRANCH  11  16
ENDBRANCH   4  11
BRANCH   7  45
ATOM     45  O   UNL     1     112.002 128.441 138.815  0.00  0.00    +0.000 OA
BRANCH  45  50
ATOM     46  O   UNL     1     112.935 127.735 136.972  0.00  0.00    +0.000 OA
ATOM     47  O   UNL     1     112.746 129.819 138.294  0.00  0.00    +0.000 OA
ATOM     48  O   UNL     1     113.558 130.533 137.338  0.00  0.00    +0.000 OA
ATOM     49  O   UNL     1     114.581 129.111 135.001  0.00  0.00    +0.000 OA
ATOM     50  C   UNL     1     112.437 128.436 138.114  0.00  0.00    +0.000 A 
ATOM     51  C   UNL     1     112.501 127.741 137.672  0.00  0.00    +0.000 A 
ATOM     52  C   UNL     1     112.809 129.124 137.853  0.00  0.00    +0.000 A 
ATOM     53  C   UNL     1     113.243 129.119 137.152  0.00  0.00    +0.000 A 
ATOM     54  C   UNL     1     113.307 128.424 136.712  0.00  0.00    +0.000 A 
ATOM     55  C   UNL     1     113.627 129.843 136.891  0.00  0.00    +0.000 A 
ATOM     56  C   UNL     1     113.757 128.405 135.980  0.00  0.00    +0.000 A 
ATOM     57  C   UNL     1     114.081 129.843 136.162  0.00  0.00    +0.000 A 
ATOM     58  C   UNL     1     114.147 129.119 135.703  0.00  0.00    +0.000 A 
BRANCH  51  60
ATOM     59  O   UNL     1     111.011 124.987 138.715  0.00  0.00    +0.000 OA
ATOM     60  C   UNL     1     112.129 127.052 137.933  0.00  0.00    +0.000 A 
ATOM     61  C   UNL     1     111.327 126.932 137.777  0.00  0.00    +0.000 A 
ATOM     62  C   UNL     1     112.557 126.484 138.350  0.00  0.00    +0.000 A 
ATOM     63  C   UNL     1     110.955 126.244 138.038  0.00  0.00    +0.000 A 
ATOM     64  C   UNL     1     112.184 125.795 138.611  0.00  0.00    +0.000 A 
ATOM     65  C   UNL     1     111.384 125.675 138.455  0.00  0.00    +0.000 A 
BRANCH  63  66
ATOM     66  O   UNL     1     110.153 126.124 137.881  0.00  0.00    +0.000 OA
ATOM     67  C   UNL     1     109.844 126.317 137.142  0.00  0.00    +0.000 C 
ENDBRANCH  63  66
ENDBRANCH  51  60
BRANCH  57  68
ATOM     68  O   UNL     1     114.451 130.533 135.904  0.00  0.00    +0.000 OA
ATOM     69  C   UNL     1     115.273 130.598 135.937  0.00  0.00    +0.000 C 
ENDBRANCH  57  68
ENDBRANCH  45  50
ENDBRANCH   7  45
TORSDOF 16
ENDMDL
MODEL 3
REMARK VINA RESULT:      -9.6      1.965      2.830
REMARK  Name = 100943914
REMARK  16 active torsions:
REMARK  status: ('A' for Active; 'I' for Inactive)
REMARK    1  A    between atoms: O_1  and  C_28
REMARK    2  A    between atoms: O_1  and  C_29
REMARK    3  A    between atoms: O_2  and  C_26
REMARK    4  A    between atoms: O_2  and  C_32
REMARK    5  A    between atoms: O_6  and  C_27
REMARK    6  A    between atoms: O_6  and  C_43
REMARK    7  A    between atoms: O_9  and  C_34
REMARK    8  A    between atoms: O_9  and  C_44
REMARK    9  A    between atoms: O_20  and  C_56
REMARK   10  A    between atoms: O_22  and  C_59
REMARK   11  A    between atoms: O_24  and  C_64
REMARK   12  A    between atoms: C_36  and  C_41
REMARK   13  A    between atoms: C_40  and  C_42
REMARK   14  A    between atoms: C_43  and  C_47
REMARK   15  A    between atoms: C_45  and  C_49
REMARK   16  A    between atoms: C_51  and  C_57
REMARK                            x       y       z     vdW  Elec       q    Type
REMARK                         _______ _______ _______ _____ _____    ______ ____
ROOT
ATOM      1  O   UNL     1     110.689 131.483 137.295  0.00  0.00    +0.000 OA
ATOM      2  O   UNL     1     110.380 131.896 139.716  0.00  0.00    +0.000 OA
ATOM      3  O   UNL     1     110.396 133.161 138.659  0.00  0.00    +0.000 OA
ATOM      4  C   UNL     1     110.578 130.987 138.631  0.00  0.00    +0.000 C 
ATOM      5  C   UNL     1     110.483 131.758 138.909  0.00  0.00    +0.000 C 
ATOM      6  C   UNL     1     110.491 132.391 138.381  0.00  0.00    +0.000 C 
ATOM      7  C   UNL     1     110.681 130.849 137.824  0.00  0.00    +0.000 C 
ATOM      8  C   UNL     1     110.594 132.254 137.573  0.00  0.00    +0.000 C 
ENDROOT
BRANCH   8  10
ATOM      9  O   UNL     1     109.993 132.974 136.495  0.00  0.00    +0.000 OA
ATOM     10  C   UNL     1     110.602 132.886 137.045  0.00  0.00    +0.000 C 
ENDBRANCH   8  10
BRANCH   4  11
ATOM     11  O   UNL     1     110.570 130.354 139.159  0.00  0.00    +0.000 OA
BRANCH  11  16
ATOM     12  O   UNL     1     109.148 130.442 139.274  0.00  0.00    +0.000 OA
ATOM     13  O   UNL     1     107.768 129.515 140.687  0.00  0.00    +0.000 OA
ATOM     14  C   UNL     1     109.190 129.426 140.573  0.00  0.00    +0.000 C 
ATOM     15  C   UNL     1     109.890 129.636 140.192  0.00  0.00    +0.000 C 
ATOM     16  C   UNL     1     109.870 130.144 139.541  0.00  0.00    +0.000 C 
ATOM     17  C   UNL     1     108.468 129.725 140.305  0.00  0.00    +0.000 C 
ATOM     18  C   UNL     1     108.449 130.233 139.655  0.00  0.00    +0.000 C 
BRANCH  15  19
ATOM     19  O   UNL     1     110.611 129.338 140.459  0.00  0.00    +0.000 OA
BRANCH  19  21
ATOM     20  O   UNL     1     110.381 128.104 139.776  0.00  0.00    +0.000 OA
ATOM     21  C   UNL     1     110.892 128.617 140.171  0.00  0.00    +0.000 C 
BRANCH  21  22
ATOM     22  C   UNL     1     111.683 128.410 140.278  0.00  0.00    +0.000 C 
ATOM     23  C   UNL     1     111.909 127.617 140.252  0.00  0.00    +0.000 C 
BRANCH  23  25
ATOM     24  O   UNL     1     115.075 126.789 140.679  0.00  0.00    +0.000 OA
ATOM     25  C   UNL     1     112.700 127.410 140.360  0.00  0.00    +0.000 A 
ATOM     26  C   UNL     1     113.110 127.020 139.758  0.00  0.00    +0.000 A 
ATOM     27  C   UNL     1     113.082 127.593 141.068  0.00  0.00    +0.000 A 
ATOM     28  C   UNL     1     113.901 126.813 139.865  0.00  0.00    +0.000 A 
ATOM     29  C   UNL     1     113.874 127.386 141.174  0.00  0.00    +0.000 A 
ATOM     30  C   UNL     1     114.283 126.996 140.573  0.00  0.00    +0.000 A 
BRANCH  28  31
ATOM     31  O   UNL     1     114.310 126.424 139.264  0.00  0.00    +0.000 OA
ATOM     32  C   UNL     1     113.896 126.077 138.641  0.00  0.00    +0.000 C 
ENDBRANCH  28  31
ENDBRANCH  23  25
ENDBRANCH  21  22
ENDBRANCH  19  21
ENDBRANCH  15  19
BRANCH  14  33
ATOM     33  O   UNL     1     109.210 128.919 141.223  0.00  0.00    +0.000 OA
BRANCH  33  38
ATOM     34  O   UNL     1     109.289 130.011 142.139  0.00  0.00    +0.000 OA
ATOM     35  O   UNL     1     108.682 127.936 142.439  0.00  0.00    +0.000 OA
ATOM     36  O   UNL     1     108.497 128.538 143.964  0.00  0.00    +0.000 OA
ATOM     37  O   UNL     1     108.840 130.123 144.273  0.00  0.00    +0.000 OA
ATOM     38  C   UNL     1     109.118 129.220 141.985  0.00  0.00    +0.000 C 
ATOM     39  C   UNL     1     108.853 128.728 142.593  0.00  0.00    +0.000 C 
ATOM     40  C   UNL     1     108.761 129.029 143.356  0.00  0.00    +0.000 C 
ATOM     41  C   UNL     1     108.933 129.822 143.510  0.00  0.00    +0.000 C 
ATOM     42  C   UNL     1     109.197 130.312 142.902  0.00  0.00    +0.000 C 
BRANCH  42  44
ATOM     43  O   UNL     1     110.144 131.379 142.994  0.00  0.00    +0.000 OA
ATOM     44  C   UNL     1     109.368 131.105 143.057  0.00  0.00    +0.000 C 
ENDBRANCH  42  44
ENDBRANCH  33  38
ENDBRANCH  14  33
ENDBRANCH  11  16
ENDBRANCH   4  11
BRANCH   7  45
ATOM     45  O   UNL     1     110.776 130.079 137.546  0.00  0.00    +0.000 OA
BRANCH  45  50
ATOM     46  O   UNL     1     111.619 129.394 135.653  0.00  0.00    +0.000 OA
ATOM     47  O   UNL     1     112.360 130.500 137.740  0.00  0.00    +0.000 OA
ATOM     48  O   UNL     1     113.718 130.566 137.257  0.00  0.00    +0.000 OA
ATOM     49  O   UNL     1     114.339 129.492 134.613  0.00  0.00    +0.000 OA
ATOM     50  C   UNL     1     111.321 129.921 136.947  0.00  0.00    +0.000 A 
ATOM     51  C   UNL     1     111.074 129.552 136.251  0.00  0.00    +0.000 A 
ATOM     52  C   UNL     1     112.113 130.131 137.043  0.00  0.00    +0.000 A 
ATOM     53  C   UNL     1     112.657 129.973 136.445  0.00  0.00    +0.000 A 
ATOM     54  C   UNL     1     112.411 129.605 135.750  0.00  0.00    +0.000 A 
ATOM     55  C   UNL     1     113.480 130.197 136.558  0.00  0.00    +0.000 A 
ATOM     56  C   UNL     1     112.969 129.434 135.119  0.00  0.00    +0.000 A 
ATOM     57  C   UNL     1     114.052 130.035 135.938  0.00  0.00    +0.000 A 
ATOM     58  C   UNL     1     113.796 129.651 135.213  0.00  0.00    +0.000 A 
BRANCH  51  60
ATOM     59  O   UNL     1     107.907 128.709 135.867  0.00  0.00    +0.000 OA
ATOM     60  C   UNL     1     110.283 129.342 136.154  0.00  0.00    +0.000 A 
ATOM     61  C   UNL     1     109.995 128.650 136.501  0.00  0.00    +0.000 A 
ATOM     62  C   UNL     1     109.779 129.822 135.712  0.00  0.00    +0.000 A 
ATOM     63  C   UNL     1     109.203 128.440 136.405  0.00  0.00    +0.000 A 
ATOM     64  C   UNL     1     108.987 129.611 135.616  0.00  0.00    +0.000 A 
ATOM     65  C   UNL     1     108.699 128.920 135.962  0.00  0.00    +0.000 A 
BRANCH  63  66
ATOM     66  O   UNL     1     108.915 127.748 136.752  0.00  0.00    +0.000 OA
ATOM     67  C   UNL     1     109.327 127.040 136.664  0.00  0.00    +0.000 C 
ENDBRANCH  63  66
ENDBRANCH  51  60
BRANCH  57  68
ATOM     68  O   UNL     1     114.843 130.247 136.038  0.00  0.00    +0.000 OA
ATOM     69  C   UNL     1     115.153 130.892 135.628  0.00  0.00    +0.000 C 
ENDBRANCH  57  68
ENDBRANCH  45  50
ENDBRANCH   7  45
TORSDOF 16
ENDMDL
MODEL 4
REMARK VINA RESULT:      -9.5      2.171      6.732
REMARK  Name = 100943914
REMARK  16 active torsions:
REMARK  status: ('A' for Active; 'I' for Inactive)
REMARK    1  A    between atoms: O_1  and  C_28
REMARK    2  A    between atoms: O_1  and  C_29
REMARK    3  A    between atoms: O_2  and  C_26
REMARK    4  A    between atoms: O_2  and  C_32
REMARK    5  A    between atoms: O_6  and  C_27
REMARK    6  A    between atoms: O_6  and  C_43
REMARK    7  A    between atoms: O_9  and  C_34
REMARK    8  A    between atoms: O_9  and  C_44
REMARK    9  A    between atoms: O_20  and  C_56
REMARK   10  A    between atoms: O_22  and  C_59
REMARK   11  A    between atoms: O_24  and  C_64
REMARK   12  A    between atoms: C_36  and  C_41
REMARK   13  A    between atoms: C_40  and  C_42
REMARK   14  A    between atoms: C_43  and  C_47
REMARK   15  A    between atoms: C_45  and  C_49
REMARK   16  A    between atoms: C_51  and  C_57
REMARK                            x       y       z     vdW  Elec       q    Type
REMARK                         _______ _______ _______ _____ _____    ______ ____
ROOT
ATOM      1  O   UNL     1     109.340 130.607 139.416  0.00  0.00    +0.000 OA
ATOM      2  O   UNL     1     109.275 128.969 137.562  0.00  0.00    +0.000 OA
ATOM      3  O   UNL     1     108.992 130.566 137.262  0.00  0.00    +0.000 OA
ATOM      4  C   UNL     1     109.459 129.261 138.948  0.00  0.00    +0.000 C 
ATOM      5  C   UNL     1     109.296 129.515 138.180  0.00  0.00    +0.000 C 
ATOM      6  C   UNL     1     109.155 130.313 138.030  0.00  0.00    +0.000 C 
ATOM      7  C   UNL     1     109.481 129.808 139.567  0.00  0.00    +0.000 C 
ATOM      8  C   UNL     1     109.177 130.859 138.649  0.00  0.00    +0.000 C 
ENDROOT
BRANCH   8  10
ATOM      9  O   UNL     1     109.590 132.225 138.726  0.00  0.00    +0.000 OA
ATOM     10  C   UNL     1     109.035 131.658 138.499  0.00  0.00    +0.000 C 
ENDBRANCH   8  10
BRANCH   4  11
ATOM     11  O   UNL     1     109.601 128.463 139.098  0.00  0.00    +0.000 OA
BRANCH  11  16
ATOM     12  O   UNL     1     110.950 128.589 138.645  0.00  0.00    +0.000 OA
ATOM     13  O   UNL     1     112.425 127.073 138.106  0.00  0.00    +0.000 OA
ATOM     14  C   UNL     1     111.075 126.946 138.560  0.00  0.00    +0.000 C 
ATOM     15  C   UNL     1     110.370 127.293 138.807  0.00  0.00    +0.000 C 
ATOM     16  C   UNL     1     110.307 128.115 138.850  0.00  0.00    +0.000 C 
ATOM     17  C   UNL     1     111.719 127.420 138.354  0.00  0.00    +0.000 C 
ATOM     18  C   UNL     1     111.655 128.242 138.397  0.00  0.00    +0.000 C 
BRANCH  15  19
ATOM     19  O   UNL     1     109.726 126.820 139.013  0.00  0.00    +0.000 OA
BRANCH  19  21
ATOM     20  O   UNL     1     110.280 126.537 140.299  0.00  0.00    +0.000 OA
ATOM     21  C   UNL     1     109.629 126.573 139.795  0.00  0.00    +0.000 C 
BRANCH  21  22
ATOM     22  C   UNL     1     108.881 126.362 140.070  0.00  0.00    +0.000 C 
ATOM     23  C   UNL     1     108.783 126.122 140.854  0.00  0.00    +0.000 C 
BRANCH  23  25
ATOM     24  O   UNL     1     105.788 125.281 141.958  0.00  0.00    +0.000 OA
ATOM     25  C   UNL     1     108.034 125.912 141.130  0.00  0.00    +0.000 A 
ATOM     26  C   UNL     1     107.637 126.403 141.661  0.00  0.00    +0.000 A 
ATOM     27  C   UNL     1     107.683 125.210 140.874  0.00  0.00    +0.000 A 
ATOM     28  C   UNL     1     106.889 126.192 141.937  0.00  0.00    +0.000 A 
ATOM     29  C   UNL     1     106.934 125.000 141.151  0.00  0.00    +0.000 A 
ATOM     30  C   UNL     1     106.537 125.491 141.681  0.00  0.00    +0.000 A 
BRANCH  28  31
ATOM     31  O   UNL     1     106.492 126.684 142.468  0.00  0.00    +0.000 OA
ATOM     32  C   UNL     1     106.888 126.988 143.123  0.00  0.00    +0.000 C 
ENDBRANCH  28  31
ENDBRANCH  23  25
ENDBRANCH  21  22
ENDBRANCH  19  21
ENDBRANCH  15  19
BRANCH  14  33
ATOM     33  O   UNL     1     111.138 126.125 138.517  0.00  0.00    +0.000 OA
BRANCH  33  38
ATOM     34  O   UNL     1     110.736 126.100 137.146  0.00  0.00    +0.000 OA
ATOM     35  O   UNL     1     111.882 124.664 138.326  0.00  0.00    +0.000 OA
ATOM     36  O   UNL     1     111.852 123.909 136.859  0.00  0.00    +0.000 OA
ATOM     37  O   UNL     1     111.078 124.614 135.583  0.00  0.00    +0.000 OA
ATOM     38  C   UNL     1     111.123 125.747 137.783  0.00  0.00    +0.000 C 
ATOM     39  C   UNL     1     111.495 125.017 137.689  0.00  0.00    +0.000 C 
ATOM     40  C   UNL     1     111.480 124.639 136.955  0.00  0.00    +0.000 C 
ATOM     41  C   UNL     1     111.093 124.992 136.317  0.00  0.00    +0.000 C 
ATOM     42  C   UNL     1     110.721 125.722 136.413  0.00  0.00    +0.000 C 
BRANCH  42  44
ATOM     43  O   UNL     1     109.519 126.196 135.803  0.00  0.00    +0.000 OA
ATOM     44  C   UNL     1     110.334 126.075 135.775  0.00  0.00    +0.000 C 
ENDBRANCH  42  44
ENDBRANCH  33  38
ENDBRANCH  14  33
ENDBRANCH  11  16
ENDBRANCH   4  11
BRANCH   7  45
ATOM     45  O   UNL     1     109.644 129.555 140.335  0.00  0.00    +0.000 OA
BRANCH  45  50
ATOM     46  O   UNL     1     109.268 130.541 142.245  0.00  0.00    +0.000 OA
ATOM     47  O   UNL     1     107.995 129.594 140.345  0.00  0.00    +0.000 OA
ATOM     48  O   UNL     1     106.743 129.942 140.973  0.00  0.00    +0.000 OA
ATOM     49  O   UNL     1     106.780 131.273 143.572  0.00  0.00    +0.000 OA
ATOM     50  C   UNL     1     109.244 129.890 140.973  0.00  0.00    +0.000 A 
ATOM     51  C   UNL     1     109.668 130.206 141.607  0.00  0.00    +0.000 A 
ATOM     52  C   UNL     1     108.419 129.910 140.979  0.00  0.00    +0.000 A 
ATOM     53  C   UNL     1     108.019 130.245 141.617  0.00  0.00    +0.000 A 
ATOM     54  C   UNL     1     108.443 130.561 142.250  0.00  0.00    +0.000 A 
ATOM     55  C   UNL     1     107.159 130.260 141.611  0.00  0.00    +0.000 A 
ATOM     56  C   UNL     1     108.038 130.913 142.921  0.00  0.00    +0.000 A 
ATOM     57  C   UNL     1     106.737 130.608 142.273  0.00  0.00    +0.000 A 
ATOM     58  C   UNL     1     107.178 130.937 142.933  0.00  0.00    +0.000 A 
BRANCH  51  60
ATOM     59  O   UNL     1     112.967 130.123 141.585  0.00  0.00    +0.000 OA
ATOM     60  C   UNL     1     110.493 130.186 141.601  0.00  0.00    +0.000 A 
ATOM     61  C   UNL     1     110.890 129.507 141.851  0.00  0.00    +0.000 A 
ATOM     62  C   UNL     1     110.920 130.844 141.345  0.00  0.00    +0.000 A 
ATOM     63  C   UNL     1     111.715 129.487 141.846  0.00  0.00    +0.000 A 
ATOM     64  C   UNL     1     111.745 130.822 141.340  0.00  0.00    +0.000 A 
ATOM     65  C   UNL     1     112.142 130.145 141.590  0.00  0.00    +0.000 A 
BRANCH  63  66
ATOM     66  O   UNL     1     112.112 128.808 142.096  0.00  0.00    +0.000 OA
ATOM     67  C   UNL     1     111.788 128.335 142.688  0.00  0.00    +0.000 C 
ENDBRANCH  63  66
ENDBRANCH  51  60
BRANCH  57  68
ATOM     68  O   UNL     1     105.912 130.627 142.275  0.00  0.00    +0.000 OA
ATOM     69  C   UNL     1     105.513 131.322 142.079  0.00  0.00    +0.000 C 
ENDBRANCH  57  68
ENDBRANCH  45  50
ENDBRANCH   7  45
TORSDOF 16
ENDMDL
MODEL 5
REMARK VINA RESULT:      -9.2      1.823      4.644
REMARK  Name = 100943914
REMARK  16 active torsions:
REMARK  status: ('A' for Active; 'I' for Inactive)
REMARK    1  A    between atoms: O_1  and  C_28
REMARK    2  A    between atoms: O_1  and  C_29
REMARK    3  A    between atoms: O_2  and  C_26
REMARK    4  A    between atoms: O_2  and  C_32
REMARK    5  A    between atoms: O_6  and  C_27
REMARK    6  A    between atoms: O_6  and  C_43
REMARK    7  A    between atoms: O_9  and  C_34
REMARK    8  A    between atoms: O_9  and  C_44
REMARK    9  A    between atoms: O_20  and  C_56
REMARK   10  A    between atoms: O_22  and  C_59
REMARK   11  A    between atoms: O_24  and  C_64
REMARK   12  A    between atoms: C_36  and  C_41
REMARK   13  A    between atoms: C_40  and  C_42
REMARK   14  A    between atoms: C_43  and  C_47
REMARK   15  A    between atoms: C_45  and  C_49
REMARK   16  A    between atoms: C_51  and  C_57
REMARK                            x       y       z     vdW  Elec       q    Type
REMARK                         _______ _______ _______ _____ _____    ______ ____
ROOT
ATOM      1  O   UNL     1     113.134 128.494 136.699  0.00  0.00    +0.000 OA
ATOM      2  O   UNL     1     112.015 130.553 135.900  0.00  0.00    +0.000 OA
ATOM      3  O   UNL     1     113.530 130.177 135.368  0.00  0.00    +0.000 OA
ATOM      4  C   UNL     1     112.002 129.368 136.699  0.00  0.00    +0.000 C 
ATOM      5  C   UNL     1     112.388 129.866 136.166  0.00  0.00    +0.000 C 
ATOM      6  C   UNL     1     113.145 129.679 135.900  0.00  0.00    +0.000 C 
ATOM      7  C   UNL     1     112.376 128.681 136.966  0.00  0.00    +0.000 C 
ATOM      8  C   UNL     1     113.519 128.992 136.166  0.00  0.00    +0.000 C 
ENDROOT
BRANCH   8  10
ATOM      9  O   UNL     1     114.448 128.038 135.648  0.00  0.00    +0.000 OA
ATOM     10  C   UNL     1     114.276 128.805 135.900  0.00  0.00    +0.000 C 
ENDBRANCH   8  10
BRANCH   4  11
ATOM     11  O   UNL     1     111.245 129.555 136.966  0.00  0.00    +0.000 OA
BRANCH  11  16
ATOM     12  O   UNL     1     110.660 129.027 135.773  0.00  0.00    +0.000 OA
ATOM     13  O   UNL     1     108.664 129.275 134.929  0.00  0.00    +0.000 OA
ATOM     14  C   UNL     1     109.248 129.804 136.122  0.00  0.00    +0.000 C 
ATOM     15  C   UNL     1     109.892 129.874 136.631  0.00  0.00    +0.000 C 
ATOM     16  C   UNL     1     110.600 129.485 136.456  0.00  0.00    +0.000 C 
ATOM     17  C   UNL     1     109.309 129.345 135.438  0.00  0.00    +0.000 C 
ATOM     18  C   UNL     1     110.016 128.957 135.265  0.00  0.00    +0.000 C 
BRANCH  15  19
ATOM     19  O   UNL     1     109.831 130.332 137.314  0.00  0.00    +0.000 OA
BRANCH  19  21
ATOM     20  O   UNL     1     109.106 129.305 137.994  0.00  0.00    +0.000 OA
ATOM     21  C   UNL     1     109.564 129.990 138.016  0.00  0.00    +0.000 C 
BRANCH  21  22
ATOM     22  C   UNL     1     109.755 130.336 138.741  0.00  0.00    +0.000 C 
ATOM     23  C   UNL     1     109.449 130.021 139.440  0.00  0.00    +0.000 C 
BRANCH  23  25
ATOM     24  O   UNL     1     110.211 131.402 142.340  0.00  0.00    +0.000 OA
ATOM     25  C   UNL     1     109.640 130.366 140.165  0.00  0.00    +0.000 A 
ATOM     26  C   UNL     1     109.070 130.416 140.760  0.00  0.00    +0.000 A 
ATOM     27  C   UNL     1     110.399 130.661 140.294  0.00  0.00    +0.000 A 
ATOM     28  C   UNL     1     109.261 130.762 141.485  0.00  0.00    +0.000 A 
ATOM     29  C   UNL     1     110.589 131.007 141.019  0.00  0.00    +0.000 A 
ATOM     30  C   UNL     1     110.021 131.057 141.614  0.00  0.00    +0.000 A 
BRANCH  28  31
ATOM     31  O   UNL     1     108.692 130.812 142.080  0.00  0.00    +0.000 OA
ATOM     32  C   UNL     1     107.915 130.584 141.928  0.00  0.00    +0.000 C 
ENDBRANCH  28  31
ENDBRANCH  23  25
ENDBRANCH  21  22
ENDBRANCH  19  21
ENDBRANCH  15  19
BRANCH  14  33
ATOM     33  O   UNL     1     108.541 130.192 136.295  0.00  0.00    +0.000 OA
BRANCH  33  38
ATOM     34  O   UNL     1     108.908 131.393 135.616  0.00  0.00    +0.000 OA
ATOM     35  O   UNL     1     106.951 130.497 135.974  0.00  0.00    +0.000 OA
ATOM     36  O   UNL     1     106.524 131.851 135.134  0.00  0.00    +0.000 OA
ATOM     37  O   UNL     1     107.687 132.901 134.615  0.00  0.00    +0.000 OA
ATOM     38  C   UNL     1     108.327 130.869 135.875  0.00  0.00    +0.000 C 
ATOM     39  C   UNL     1     107.532 131.021 135.715  0.00  0.00    +0.000 C 
ATOM     40  C   UNL     1     107.319 131.698 135.295  0.00  0.00    +0.000 C 
ATOM     41  C   UNL     1     107.901 132.224 135.035  0.00  0.00    +0.000 C 
ATOM     42  C   UNL     1     108.695 132.071 135.196  0.00  0.00    +0.000 C 
BRANCH  42  44
ATOM     43  O   UNL     1     109.807 132.924 135.477  0.00  0.00    +0.000 OA
ATOM     44  C   UNL     1     109.277 132.596 134.937  0.00  0.00    +0.000 C 
ENDBRANCH  42  44
ENDBRANCH  33  38
ENDBRANCH  14  33
ENDBRANCH  11  16
ENDBRANCH   4  11
BRANCH   7  45
ATOM     45  O   UNL     1     111.991 128.183 137.498  0.00  0.00    +0.000 OA
BRANCH  45  50
ATOM     46  O   UNL     1     112.818 126.702 138.871  0.00  0.00    +0.000 OA
ATOM     47  O   UNL     1     112.837 129.154 138.529  0.00  0.00    +0.000 OA
ATOM     48  O   UNL     1     113.686 129.337 139.681  0.00  0.00    +0.000 OA
ATOM     49  O   UNL     1     114.531 126.995 141.209  0.00  0.00    +0.000 OA
ATOM     50  C   UNL     1     112.408 127.851 138.128  0.00  0.00    +0.000 A 
ATOM     51  C   UNL     1     112.401 127.033 138.242  0.00  0.00    +0.000 A 
ATOM     52  C   UNL     1     112.831 128.336 138.643  0.00  0.00    +0.000 A 
ATOM     53  C   UNL     1     113.248 128.005 139.273  0.00  0.00    +0.000 A 
ATOM     54  C   UNL     1     113.242 127.188 139.387  0.00  0.00    +0.000 A 
ATOM     55  C   UNL     1     113.685 128.521 139.803  0.00  0.00    +0.000 A 
ATOM     56  C   UNL     1     113.672 126.830 140.039  0.00  0.00    +0.000 A 
ATOM     57  C   UNL     1     114.121 128.181 140.461  0.00  0.00    +0.000 A 
ATOM     58  C   UNL     1     114.115 127.330 140.580  0.00  0.00    +0.000 A 
BRANCH  51  60
ATOM     59  O   UNL     1     110.705 125.095 136.180  0.00  0.00    +0.000 OA
ATOM     60  C   UNL     1     111.978 126.549 137.726  0.00  0.00    +0.000 A 
ATOM     61  C   UNL     1     111.154 126.521 137.770  0.00  0.00    +0.000 A 
ATOM     62  C   UNL     1     112.377 126.092 137.167  0.00  0.00    +0.000 A 
ATOM     63  C   UNL     1     110.730 126.036 137.254  0.00  0.00    +0.000 A 
ATOM     64  C   UNL     1     111.952 125.608 136.652  0.00  0.00    +0.000 A 
ATOM     65  C   UNL     1     111.130 125.579 136.695  0.00  0.00    +0.000 A 
BRANCH  63  66
ATOM     66  O   UNL     1     109.906 126.008 137.298  0.00  0.00    +0.000 OA
ATOM     67  C   UNL     1     109.531 126.046 138.031  0.00  0.00    +0.000 C 
ENDBRANCH  63  66
ENDBRANCH  51  60
BRANCH  57  68
ATOM     68  O   UNL     1     114.544 128.669 140.975  0.00  0.00    +0.000 OA
ATOM     69  C   UNL     1     115.188 129.103 140.697  0.00  0.00    +0.000 C 
ENDBRANCH  57  68
ENDBRANCH  45  50
ENDBRANCH   7  45
TORSDOF 16
ENDMDL
MODEL 6
REMARK VINA RESULT:      -9.1      3.610      7.512
REMARK  Name = 100943914
REMARK  16 active torsions:
REMARK  status: ('A' for Active; 'I' for Inactive)
REMARK    1  A    between atoms: O_1  and  C_28
REMARK    2  A    between atoms: O_1  and  C_29
REMARK    3  A    between atoms: O_2  and  C_26
REMARK    4  A    between atoms: O_2  and  C_32
REMARK    5  A    between atoms: O_6  and  C_27
REMARK    6  A    between atoms: O_6  and  C_43
REMARK    7  A    between atoms: O_9  and  C_34
REMARK    8  A    between atoms: O_9  and  C_44
REMARK    9  A    between atoms: O_20  and  C_56
REMARK   10  A    between atoms: O_22  and  C_59
REMARK   11  A    between atoms: O_24  and  C_64
REMARK   12  A    between atoms: C_36  and  C_41
REMARK   13  A    between atoms: C_40  and  C_42
REMARK   14  A    between atoms: C_43  and  C_47
REMARK   15  A    between atoms: C_45  and  C_49
REMARK   16  A    between atoms: C_51  and  C_57
REMARK                            x       y       z     vdW  Elec       q    Type
REMARK                         _______ _______ _______ _____ _____    ______ ____
ROOT
ATOM      1  O   UNL     1     107.497 129.270 144.730  0.00  0.00    +0.000 OA
ATOM      2  O   UNL     1     106.790 126.909 144.504  0.00  0.00    +0.000 OA
ATOM      3  O   UNL     1     106.588 127.697 145.938  0.00  0.00    +0.000 OA
ATOM      4  C   UNL     1     107.362 128.089 143.936  0.00  0.00    +0.000 C 
ATOM      5  C   UNL     1     107.025 127.696 144.579  0.00  0.00    +0.000 C 
ATOM      6  C   UNL     1     106.925 128.090 145.296  0.00  0.00    +0.000 C 
ATOM      7  C   UNL     1     107.598 128.877 144.011  0.00  0.00    +0.000 C 
ATOM      8  C   UNL     1     107.161 128.878 145.372  0.00  0.00    +0.000 C 
ENDROOT
BRANCH   8  10
ATOM      9  O   UNL     1     106.585 129.945 146.128  0.00  0.00    +0.000 OA
ATOM     10  C   UNL     1     107.060 129.271 146.089  0.00  0.00    +0.000 C 
ENDBRANCH   8  10
BRANCH   4  11
ATOM     11  O   UNL     1     107.463 127.695 143.219  0.00  0.00    +0.000 OA
BRANCH  11  16
ATOM     12  O   UNL     1     106.076 127.859 142.915  0.00  0.00    +0.000 OA
ATOM     13  O   UNL     1     104.840 126.969 141.353  0.00  0.00    +0.000 OA
ATOM     14  C   UNL     1     106.227 126.805 141.656  0.00  0.00    +0.000 C 
ATOM     15  C   UNL     1     106.882 126.986 142.122  0.00  0.00    +0.000 C 
ATOM     16  C   UNL     1     106.807 127.514 142.752  0.00  0.00    +0.000 C 
ATOM     17  C   UNL     1     105.496 127.150 141.819  0.00  0.00    +0.000 C 
ATOM     18  C   UNL     1     105.421 127.678 142.449  0.00  0.00    +0.000 C 
BRANCH  15  19
ATOM     19  O   UNL     1     107.613 126.641 141.959  0.00  0.00    +0.000 OA
BRANCH  19  21
ATOM     20  O   UNL     1     107.849 127.564 140.894  0.00  0.00    +0.000 OA
ATOM     21  C   UNL     1     108.131 127.003 141.428  0.00  0.00    +0.000 C 
BRANCH  21  22
ATOM     22  C   UNL     1     108.932 126.804 141.432  0.00  0.00    +0.000 C 
ATOM     23  C   UNL     1     109.462 127.218 140.953  0.00  0.00    +0.000 C 
BRANCH  23  25
ATOM     24  O   UNL     1     112.664 126.419 140.967  0.00  0.00    +0.000 OA
ATOM     25  C   UNL     1     110.262 127.018 140.957  0.00  0.00    +0.000 A 
ATOM     26  C   UNL     1     110.585 126.594 140.326  0.00  0.00    +0.000 A 
ATOM     27  C   UNL     1     110.740 127.242 141.591  0.00  0.00    +0.000 A 
ATOM     28  C   UNL     1     111.385 126.395 140.330  0.00  0.00    +0.000 A 
ATOM     29  C   UNL     1     111.541 127.042 141.594  0.00  0.00    +0.000 A 
ATOM     30  C   UNL     1     111.863 126.619 140.964  0.00  0.00    +0.000 A 
BRANCH  28  31
ATOM     31  O   UNL     1     111.708 125.971 139.699  0.00  0.00    +0.000 OA
ATOM     32  C   UNL     1     111.464 126.130 138.929  0.00  0.00    +0.000 C 
ENDBRANCH  28  31
ENDBRANCH  23  25
ENDBRANCH  21  22
ENDBRANCH  19  21
ENDBRANCH  15  19
BRANCH  14  33
ATOM     33  O   UNL     1     106.302 126.277 141.026  0.00  0.00    +0.000 OA
BRANCH  33  38
ATOM     34  O   UNL     1     105.977 125.149 141.839  0.00  0.00    +0.000 OA
ATOM     35  O   UNL     1     105.818 125.449 139.683  0.00  0.00    +0.000 OA
ATOM     36  O   UNL     1     105.251 123.906 139.826  0.00  0.00    +0.000 OA
ATOM     37  O   UNL     1     105.168 123.191 141.310  0.00  0.00    +0.000 OA
ATOM     38  C   UNL     1     106.018 125.506 141.097  0.00  0.00    +0.000 C 
ATOM     39  C   UNL     1     105.777 125.092 140.425  0.00  0.00    +0.000 C 
ATOM     40  C   UNL     1     105.493 124.321 140.496  0.00  0.00    +0.000 C 
ATOM     41  C   UNL     1     105.452 123.963 141.239  0.00  0.00    +0.000 C 
ATOM     42  C   UNL     1     105.694 124.377 141.910  0.00  0.00    +0.000 C 
BRANCH  42  44
ATOM     43  O   UNL     1     105.129 124.309 143.222  0.00  0.00    +0.000 OA
ATOM     44  C   UNL     1     105.652 124.020 142.653  0.00  0.00    +0.000 C 
ENDBRANCH  42  44
ENDBRANCH  33  38
ENDBRANCH  14  33
ENDBRANCH  11  16
ENDBRANCH   4  11
BRANCH   7  45
ATOM     45  O   UNL     1     107.935 129.269 143.369  0.00  0.00    +0.000 OA
BRANCH  45  50
ATOM     46  O   UNL     1     109.106 131.109 143.308  0.00  0.00    +0.000 OA
ATOM     47  O   UNL     1     109.275 128.813 144.216  0.00  0.00    +0.000 OA
ATOM     48  O   UNL     1     110.574 129.099 144.776  0.00  0.00    +0.000 OA
ATOM     49  O   UNL     1     111.724 131.759 144.410  0.00  0.00    +0.000 OA
ATOM     50  C   UNL     1     108.549 129.807 143.490  0.00  0.00    +0.000 A 
ATOM     51  C   UNL     1     108.493 130.573 143.187  0.00  0.00    +0.000 A 
ATOM     52  C   UNL     1     109.219 129.579 143.913  0.00  0.00    +0.000 A 
ATOM     53  C   UNL     1     109.833 130.116 144.034  0.00  0.00    +0.000 A 
ATOM     54  C   UNL     1     109.777 130.881 143.732  0.00  0.00    +0.000 A 
ATOM     55  C   UNL     1     110.526 129.867 144.477  0.00  0.00    +0.000 A 
ATOM     56  C   UNL     1     110.410 131.451 143.851  0.00  0.00    +0.000 A 
ATOM     57  C   UNL     1     111.169 130.422 144.606  0.00  0.00    +0.000 A 
ATOM     58  C   UNL     1     111.111 131.219 144.291  0.00  0.00    +0.000 A 
BRANCH  51  60
ATOM     59  O   UNL     1     105.810 131.484 141.495  0.00  0.00    +0.000 OA
ATOM     60  C   UNL     1     107.823 130.800 142.764  0.00  0.00    +0.000 A 
ATOM     61  C   UNL     1     107.212 131.204 143.145  0.00  0.00    +0.000 A 
ATOM     62  C   UNL     1     107.762 130.625 141.960  0.00  0.00    +0.000 A 
ATOM     63  C   UNL     1     106.541 131.431 142.722  0.00  0.00    +0.000 A 
ATOM     64  C   UNL     1     107.091 130.853 141.537  0.00  0.00    +0.000 A 
ATOM     65  C   UNL     1     106.481 131.256 141.918  0.00  0.00    +0.000 A 
BRANCH  63  66
ATOM     66  O   UNL     1     105.930 131.835 143.103  0.00  0.00    +0.000 OA
ATOM     67  C   UNL     1     106.105 132.408 143.669  0.00  0.00    +0.000 C 
ENDBRANCH  63  66
ENDBRANCH  51  60
BRANCH  57  68
ATOM     68  O   UNL     1     111.838 130.191 145.030  0.00  0.00    +0.000 OA
ATOM     69  C   UNL     1     112.063 130.607 145.706  0.00  0.00    +0.000 C 
ENDBRANCH  57  68
ENDBRANCH  45  50
ENDBRANCH   7  45
TORSDOF 16
ENDMDL
MODEL 7
REMARK VINA RESULT:      -9.1      1.550      2.179
REMARK  Name = 100943914
REMARK  16 active torsions:
REMARK  status: ('A' for Active; 'I' for Inactive)
REMARK    1  A    between atoms: O_1  and  C_28
REMARK    2  A    between atoms: O_1  and  C_29
REMARK    3  A    between atoms: O_2  and  C_26
REMARK    4  A    between atoms: O_2  and  C_32
REMARK    5  A    between atoms: O_6  and  C_27
REMARK    6  A    between atoms: O_6  and  C_43
REMARK    7  A    between atoms: O_9  and  C_34
REMARK    8  A    between atoms: O_9  and  C_44
REMARK    9  A    between atoms: O_20  and  C_56
REMARK   10  A    between atoms: O_22  and  C_59
REMARK   11  A    between atoms: O_24  and  C_64
REMARK   12  A    between atoms: C_36  and  C_41
REMARK   13  A    between atoms: C_40  and  C_42
REMARK   14  A    between atoms: C_43  and  C_47
REMARK   15  A    between atoms: C_45  and  C_49
REMARK   16  A    between atoms: C_51  and  C_57
REMARK                            x       y       z     vdW  Elec       q    Type
REMARK                         _______ _______ _______ _____ _____    ______ ____
ROOT
ATOM      1  O   UNL     1     109.563 130.091 138.113  0.00  0.00    +0.000 OA
ATOM      2  O   UNL     1     108.535 131.245 140.046  0.00  0.00    +0.000 OA
ATOM      3  O   UNL     1     108.091 131.652 138.511  0.00  0.00    +0.000 OA
ATOM      4  C   UNL     1     109.443 130.272 139.526  0.00  0.00    +0.000 C 
ATOM      5  C   UNL     1     108.878 130.860 139.402  0.00  0.00    +0.000 C 
ATOM      6  C   UNL     1     108.656 131.064 138.635  0.00  0.00    +0.000 C 
ATOM      7  C   UNL     1     109.786 129.887 138.881  0.00  0.00    +0.000 C 
ATOM      8  C   UNL     1     108.999 130.679 137.989  0.00  0.00    +0.000 C 
ENDROOT
BRANCH   8  10
ATOM      9  O   UNL     1     108.384 130.335 136.746  0.00  0.00    +0.000 OA
ATOM     10  C   UNL     1     108.776 130.883 137.222  0.00  0.00    +0.000 C 
ENDBRANCH   8  10
BRANCH   4  11
ATOM     11  O   UNL     1     109.665 130.068 140.293  0.00  0.00    +0.000 OA
BRANCH  11  16
ATOM     12  O   UNL     1     108.510 129.239 140.437  0.00  0.00    +0.000 OA
ATOM     13  O   UNL     1     107.594 128.359 142.211  0.00  0.00    +0.000 OA
ATOM     14  C   UNL     1     108.750 129.188 142.068  0.00  0.00    +0.000 C 
ATOM     15  C   UNL     1     109.267 129.615 141.589  0.00  0.00    +0.000 C 
ATOM     16  C   UNL     1     109.147 129.641 140.773  0.00  0.00    +0.000 C 
ATOM     17  C   UNL     1     108.112 128.787 141.732  0.00  0.00    +0.000 C 
ATOM     18  C   UNL     1     107.993 128.813 140.916  0.00  0.00    +0.000 C 
BRANCH  15  19
ATOM     19  O   UNL     1     109.904 130.017 141.925  0.00  0.00    +0.000 OA
BRANCH  19  21
ATOM     20  O   UNL     1     110.693 128.851 142.169  0.00  0.00    +0.000 OA
ATOM     21  C   UNL     1     110.642 129.650 141.975  0.00  0.00    +0.000 C 
BRANCH  21  22
ATOM     22  C   UNL     1     111.329 130.084 141.832  0.00  0.00    +0.000 C 
ATOM     23  C   UNL     1     112.067 129.760 142.012  0.00  0.00    +0.000 C 
BRANCH  23  25
ATOM     24  O   UNL     1     114.814 131.496 141.436  0.00  0.00    +0.000 OA
ATOM     25  C   UNL     1     112.753 130.194 141.868  0.00  0.00    +0.000 A 
ATOM     26  C   UNL     1     113.343 129.884 141.380  0.00  0.00    +0.000 A 
ATOM     27  C   UNL     1     112.850 130.938 142.211  0.00  0.00    +0.000 A 
ATOM     28  C   UNL     1     114.029 130.318 141.237  0.00  0.00    +0.000 A 
ATOM     29  C   UNL     1     113.538 131.372 142.067  0.00  0.00    +0.000 A 
ATOM     30  C   UNL     1     114.127 131.062 141.580  0.00  0.00    +0.000 A 
BRANCH  28  31
ATOM     31  O   UNL     1     114.619 130.008 140.749  0.00  0.00    +0.000 OA
ATOM     32  C   UNL     1     114.604 129.211 140.542  0.00  0.00    +0.000 C 
ENDBRANCH  28  31
ENDBRANCH  23  25
ENDBRANCH  21  22
ENDBRANCH  19  21
ENDBRANCH  15  19
BRANCH  14  33
ATOM     33  O   UNL     1     108.869 129.162 142.884  0.00  0.00    +0.000 OA
BRANCH  33  38
ATOM     34  O   UNL     1     107.969 130.252 143.092  0.00  0.00    +0.000 OA
ATOM     35  O   UNL     1     108.740 128.753 144.477  0.00  0.00    +0.000 OA
ATOM     36  O   UNL     1     107.776 129.638 145.482  0.00  0.00    +0.000 OA
ATOM     37  O   UNL     1     106.940 130.933 144.893  0.00  0.00    +0.000 OA
ATOM     38  C   UNL     1     108.387 129.605 143.386  0.00  0.00    +0.000 C 
ATOM     39  C   UNL     1     108.323 129.400 144.183  0.00  0.00    +0.000 C 
ATOM     40  C   UNL     1     107.841 129.843 144.685  0.00  0.00    +0.000 C 
ATOM     41  C   UNL     1     107.422 130.491 144.391  0.00  0.00    +0.000 C 
ATOM     42  C   UNL     1     107.487 130.695 143.594  0.00  0.00    +0.000 C 
BRANCH  42  44
ATOM     43  O   UNL     1     107.472 132.026 143.073  0.00  0.00    +0.000 OA
ATOM     44  C   UNL     1     107.069 131.343 143.300  0.00  0.00    +0.000 C 
ENDBRANCH  42  44
ENDBRANCH  33  38
ENDBRANCH  14  33
ENDBRANCH  11  16
ENDBRANCH   4  11
BRANCH   7  45
ATOM     45  O   UNL     1     110.350 129.299 139.004  0.00  0.00    +0.000 OA
BRANCH  45  50
ATOM     46  O   UNL     1     111.835 128.477 137.632  0.00  0.00    +0.000 OA
ATOM     47  O   UNL     1     111.310 130.618 138.758  0.00  0.00    +0.000 OA
ATOM     48  O   UNL     1     112.450 131.254 138.143  0.00  0.00    +0.000 OA
ATOM     49  O   UNL     1     114.153 129.694 136.355  0.00  0.00    +0.000 OA
ATOM     50  C   UNL     1     111.005 129.245 138.506  0.00  0.00    +0.000 A 
ATOM     51  C   UNL     1     111.181 128.531 138.130  0.00  0.00    +0.000 A 
ATOM     52  C   UNL     1     111.486 129.904 138.382  0.00  0.00    +0.000 A 
ATOM     53  C   UNL     1     112.140 129.850 137.884  0.00  0.00    +0.000 A 
ATOM     54  C   UNL     1     112.316 129.137 137.509  0.00  0.00    +0.000 A 
ATOM     55  C   UNL     1     112.633 130.544 137.763  0.00  0.00    +0.000 A 
ATOM     56  C   UNL     1     112.995 129.067 136.987  0.00  0.00    +0.000 A 
ATOM     57  C   UNL     1     113.316 130.494 137.245  0.00  0.00    +0.000 A 
ATOM     58  C   UNL     1     113.499 129.751 136.854  0.00  0.00    +0.000 A 
BRANCH  51  60
ATOM     59  O   UNL     1     109.258 125.894 138.623  0.00  0.00    +0.000 OA
ATOM     60  C   UNL     1     110.700 127.872 138.254  0.00  0.00    +0.000 A 
ATOM     61  C   UNL     1     110.111 127.683 137.708  0.00  0.00    +0.000 A 
ATOM     62  C   UNL     1     110.809 127.401 138.923  0.00  0.00    +0.000 A 
ATOM     63  C   UNL     1     109.631 127.024 137.831  0.00  0.00    +0.000 A 
ATOM     64  C   UNL     1     110.328 126.742 139.046  0.00  0.00    +0.000 A 
ATOM     65  C   UNL     1     109.739 126.554 138.500  0.00  0.00    +0.000 A 
BRANCH  63  66
ATOM     66  O   UNL     1     109.041 126.835 137.285  0.00  0.00    +0.000 OA
ATOM     67  C   UNL     1     109.187 126.912 136.478  0.00  0.00    +0.000 C 
ENDBRANCH  63  66
ENDBRANCH  51  60
BRANCH  57  68
ATOM     68  O   UNL     1     113.795 131.155 137.123  0.00  0.00    +0.000 OA
ATOM     69  C   UNL     1     113.793 131.538 136.393  0.00  0.00    +0.000 C 
ENDBRANCH  57  68
ENDBRANCH  45  50
ENDBRANCH   7  45
TORSDOF 16
ENDMDL
MODEL 8
REMARK VINA RESULT:      -9.1      1.965      7.163
REMARK  Name = 100943914
REMARK  16 active torsions:
REMARK  status: ('A' for Active; 'I' for Inactive)
REMARK    1  A    between atoms: O_1  and  C_28
REMARK    2  A    between atoms: O_1  and  C_29
REMARK    3  A    between atoms: O_2  and  C_26
REMARK    4  A    between atoms: O_2  and  C_32
REMARK    5  A    between atoms: O_6  and  C_27
REMARK    6  A    between atoms: O_6  and  C_43
REMARK    7  A    between atoms: O_9  and  C_34
REMARK    8  A    between atoms: O_9  and  C_44
REMARK    9  A    between atoms: O_20  and  C_56
REMARK   10  A    between atoms: O_22  and  C_59
REMARK   11  A    between atoms: O_24  and  C_64
REMARK   12  A    between atoms: C_36  and  C_41
REMARK   13  A    between atoms: C_40  and  C_42
REMARK   14  A    between atoms: C_43  and  C_47
REMARK   15  A    between atoms: C_45  and  C_49
REMARK   16  A    between atoms: C_51  and  C_57
REMARK                            x       y       z     vdW  Elec       q    Type
REMARK                         _______ _______ _______ _____ _____    ______ ____
ROOT
ATOM      1  O   UNL     1     110.694 128.663 141.298  0.00  0.00    +0.000 OA
ATOM      2  O   UNL     1     111.651 128.014 139.110  0.00  0.00    +0.000 OA
ATOM      3  O   UNL     1     111.402 126.872 140.272  0.00  0.00    +0.000 OA
ATOM      4  C   UNL     1     111.138 129.019 139.987  0.00  0.00    +0.000 C 
ATOM      5  C   UNL     1     111.332 128.231 139.839  0.00  0.00    +0.000 C 
ATOM      6  C   UNL     1     111.208 127.659 140.420  0.00  0.00    +0.000 C 
ATOM      7  C   UNL     1     110.818 129.235 140.717  0.00  0.00    +0.000 C 
ATOM      8  C   UNL     1     110.889 127.875 141.150  0.00  0.00    +0.000 C 
ENDROOT
BRANCH   8  10
ATOM      9  O   UNL     1     111.133 127.374 142.466  0.00  0.00    +0.000 OA
ATOM     10  C   UNL     1     110.764 127.304 141.731  0.00  0.00    +0.000 C 
ENDBRANCH   8  10
BRANCH   4  11
ATOM     11  O   UNL     1     111.262 129.590 139.406  0.00  0.00    +0.000 OA
BRANCH  11  16
ATOM     12  O   UNL     1     112.638 129.717 139.772  0.00  0.00    +0.000 OA
ATOM     13  O   UNL     1     114.328 130.585 138.699  0.00  0.00    +0.000 OA
ATOM     14  C   UNL     1     112.952 130.458 138.332  0.00  0.00    +0.000 C 
ATOM     15  C   UNL     1     112.187 130.210 138.509  0.00  0.00    +0.000 C 
ATOM     16  C   UNL     1     112.029 129.839 139.229  0.00  0.00    +0.000 C 
ATOM     17  C   UNL     1     113.562 130.336 138.876  0.00  0.00    +0.000 C 
ATOM     18  C   UNL     1     113.403 129.965 139.595  0.00  0.00    +0.000 C 
BRANCH  15  19
ATOM     19  O   UNL     1     111.578 130.332 137.966  0.00  0.00    +0.000 OA
BRANCH  19  21
ATOM     20  O   UNL     1     111.394 131.679 138.407  0.00  0.00    +0.000 OA
ATOM     21  C   UNL     1     111.110 131.011 138.017  0.00  0.00    +0.000 C 
BRANCH  21  22
ATOM     22  C   UNL     1     110.358 131.019 137.678  0.00  0.00    +0.000 C 
ATOM     23  C   UNL     1     110.040 131.728 137.398  0.00  0.00    +0.000 C 
BRANCH  23  25
ATOM     24  O   UNL     1     107.033 131.761 136.039  0.00  0.00    +0.000 OA
ATOM     25  C   UNL     1     109.288 131.736 137.059  0.00  0.00    +0.000 A 
ATOM     26  C   UNL     1     109.206 131.788 136.239  0.00  0.00    +0.000 A 
ATOM     27  C   UNL     1     108.618 131.691 137.538  0.00  0.00    +0.000 A 
ATOM     28  C   UNL     1     108.455 131.797 135.900  0.00  0.00    +0.000 A 
ATOM     29  C   UNL     1     107.866 131.700 137.198  0.00  0.00    +0.000 A 
ATOM     30  C   UNL     1     107.785 131.752 136.379  0.00  0.00    +0.000 A 
BRANCH  28  31
ATOM     31  O   UNL     1     108.373 131.849 135.080  0.00  0.00    +0.000 OA
ATOM     32  C   UNL     1     108.873 132.341 134.647  0.00  0.00    +0.000 C 
ENDBRANCH  28  31
ENDBRANCH  23  25
ENDBRANCH  21  22
ENDBRANCH  19  21
ENDBRANCH  15  19
BRANCH  14  33
ATOM     33  O   UNL     1     113.111 130.829 137.613  0.00  0.00    +0.000 OA
BRANCH  33  38
ATOM     34  O   UNL     1     113.409 129.599 136.950  0.00  0.00    +0.000 OA
ATOM     35  O   UNL     1     114.060 131.640 136.534  0.00  0.00    +0.000 OA
ATOM     36  O   UNL     1     114.833 130.815 135.332  0.00  0.00    +0.000 OA
ATOM     37  O   UNL     1     114.657 129.179 135.209  0.00  0.00    +0.000 OA
ATOM     38  C   UNL     1     113.497 130.417 137.012  0.00  0.00    +0.000 C 
ATOM     39  C   UNL     1     113.972 130.823 136.473  0.00  0.00    +0.000 C 
ATOM     40  C   UNL     1     114.358 130.411 135.872  0.00  0.00    +0.000 C 
ATOM     41  C   UNL     1     114.270 129.592 135.810  0.00  0.00    +0.000 C 
ATOM     42  C   UNL     1     113.796 129.187 136.349  0.00  0.00    +0.000 C 
BRANCH  42  44
ATOM     43  O   UNL     1     112.968 128.045 136.119  0.00  0.00    +0.000 OA
ATOM     44  C   UNL     1     113.707 128.368 136.287  0.00  0.00    +0.000 C 
ENDBRANCH  42  44
ENDBRANCH  33  38
ENDBRANCH  14  33
ENDBRANCH  11  16
ENDBRANCH   4  11
BRANCH   7  45
ATOM     45  O   UNL     1     110.624 130.022 140.865  0.00  0.00    +0.000 OA
BRANCH  45  50
ATOM     46  O   UNL     1     109.308 130.854 142.394  0.00  0.00    +0.000 OA
ATOM     47  O   UNL     1     109.159 129.459 140.355  0.00  0.00    +0.000 OA
ATOM     48  O   UNL     1     107.729 129.344 140.503  0.00  0.00    +0.000 OA
ATOM     49  O   UNL     1     106.424 130.665 142.757  0.00  0.00    +0.000 OA
ATOM     50  C   UNL     1     109.941 130.206 141.289  0.00  0.00    +0.000 A 
ATOM     51  C   UNL     1     109.990 130.671 141.970  0.00  0.00    +0.000 A 
ATOM     52  C   UNL     1     109.209 129.925 141.035  0.00  0.00    +0.000 A 
ATOM     53  C   UNL     1     108.526 130.108 141.459  0.00  0.00    +0.000 A 
ATOM     54  C   UNL     1     108.575 130.573 142.139  0.00  0.00    +0.000 A 
ATOM     55  C   UNL     1     107.769 129.808 141.184  0.00  0.00    +0.000 A 
ATOM     56  C   UNL     1     107.871 130.771 142.590  0.00  0.00    +0.000 A 
ATOM     57  C   UNL     1     107.054 129.996 141.622  0.00  0.00    +0.000 A 
ATOM     58  C   UNL     1     107.105 130.480 142.330  0.00  0.00    +0.000 A 
BRANCH  51  60
ATOM     59  O   UNL     1     112.921 131.795 142.989  0.00  0.00    +0.000 OA
ATOM     60  C   UNL     1     110.723 130.953 142.224  0.00  0.00    +0.000 A 
ATOM     61  C   UNL     1     111.114 130.579 142.848  0.00  0.00    +0.000 A 
ATOM     62  C   UNL     1     111.064 131.607 141.856  0.00  0.00    +0.000 A 
ATOM     63  C   UNL     1     111.846 130.860 143.102  0.00  0.00    +0.000 A 
ATOM     64  C   UNL     1     111.797 131.887 142.111  0.00  0.00    +0.000 A 
ATOM     65  C   UNL     1     112.188 131.514 142.734  0.00  0.00    +0.000 A 
BRANCH  63  66
ATOM     66  O   UNL     1     112.237 130.486 143.726  0.00  0.00    +0.000 OA
ATOM     67  C   UNL     1     111.810 130.216 144.377  0.00  0.00    +0.000 C 
ENDBRANCH  63  66
ENDBRANCH  51  60
BRANCH  57  68
ATOM     68  O   UNL     1     106.323 129.713 141.365  0.00  0.00    +0.000 OA
ATOM     69  C   UNL     1     105.964 129.081 141.755  0.00  0.00    +0.000 C 
ENDBRANCH  57  68
ENDBRANCH  45  50
ENDBRANCH   7  45
TORSDOF 16
ENDMDL
MODEL 9
REMARK VINA RESULT:      -9.0      5.452      9.462
REMARK  Name = 100943914
REMARK  16 active torsions:
REMARK  status: ('A' for Active; 'I' for Inactive)
REMARK    1  A    between atoms: O_1  and  C_28
REMARK    2  A    between atoms: O_1  and  C_29
REMARK    3  A    between atoms: O_2  and  C_26
REMARK    4  A    between atoms: O_2  and  C_32
REMARK    5  A    between atoms: O_6  and  C_27
REMARK    6  A    between atoms: O_6  and  C_43
REMARK    7  A    between atoms: O_9  and  C_34
REMARK    8  A    between atoms: O_9  and  C_44
REMARK    9  A    between atoms: O_20  and  C_56
REMARK   10  A    between atoms: O_22  and  C_59
REMARK   11  A    between atoms: O_24  and  C_64
REMARK   12  A    between atoms: C_36  and  C_41
REMARK   13  A    between atoms: C_40  and  C_42
REMARK   14  A    between atoms: C_43  and  C_47
REMARK   15  A    between atoms: C_45  and  C_49
REMARK   16  A    between atoms: C_51  and  C_57
REMARK                            x       y       z     vdW  Elec       q    Type
REMARK                         _______ _______ _______ _____ _____    ______ ____
ROOT
ATOM      1  O   UNL     1     106.747 127.777 145.413  0.00  0.00    +0.000 OA
ATOM      2  O   UNL     1     105.608 125.810 144.433  0.00  0.00    +0.000 OA
ATOM      3  O   UNL     1     106.055 125.799 146.021  0.00  0.00    +0.000 OA
ATOM      4  C   UNL     1     106.143 127.127 144.291  0.00  0.00    +0.000 C 
ATOM      5  C   UNL     1     105.988 126.466 144.760  0.00  0.00    +0.000 C 
ATOM      6  C   UNL     1     106.211 126.460 145.553  0.00  0.00    +0.000 C 
ATOM      7  C   UNL     1     106.523 127.783 144.618  0.00  0.00    +0.000 C 
ATOM      8  C   UNL     1     106.591 127.116 145.880  0.00  0.00    +0.000 C 
ENDROOT
BRANCH   8  10
ATOM      9  O   UNL     1     107.612 127.145 146.879  0.00  0.00    +0.000 OA
ATOM     10  C   UNL     1     106.814 127.111 146.674  0.00  0.00    +0.000 C 
ENDBRANCH   8  10
BRANCH   4  11
ATOM     11  O   UNL     1     105.920 127.133 143.498  0.00  0.00    +0.000 OA
BRANCH  11  16
ATOM     12  O   UNL     1     107.042 126.319 143.148  0.00  0.00    +0.000 OA
ATOM     13  O   UNL     1     107.478 125.190 141.332  0.00  0.00    +0.000 OA
ATOM     14  C   UNL     1     106.356 126.004 141.681  0.00  0.00    +0.000 C 
ATOM     15  C   UNL     1     105.967 126.489 142.222  0.00  0.00    +0.000 C 
ATOM     16  C   UNL     1     106.310 126.647 142.956  0.00  0.00    +0.000 C 
ATOM     17  C   UNL     1     107.089 125.675 141.874  0.00  0.00    +0.000 C 
ATOM     18  C   UNL     1     107.431 125.833 142.607  0.00  0.00    +0.000 C 
BRANCH  15  19
ATOM     19  O   UNL     1     105.235 126.817 142.030  0.00  0.00    +0.000 OA
BRANCH  19  21
ATOM     20  O   UNL     1     105.852 127.844 141.252  0.00  0.00    +0.000 OA
ATOM     21  C   UNL     1     105.198 127.555 141.662  0.00  0.00    +0.000 C 
BRANCH  21  22
ATOM     22  C   UNL     1     104.506 128.003 141.705  0.00  0.00    +0.000 C 
ATOM     23  C   UNL     1     104.480 128.755 141.365  0.00  0.00    +0.000 C 
BRANCH  23  25
ATOM     24  O   UNL     1     101.712 130.544 141.534  0.00  0.00    +0.000 OA
ATOM     25  C   UNL     1     103.789 129.202 141.408  0.00  0.00    +0.000 A 
ATOM     26  C   UNL     1     103.261 129.206 140.773  0.00  0.00    +0.000 A 
ATOM     27  C   UNL     1     103.624 129.645 142.085  0.00  0.00    +0.000 A 
ATOM     28  C   UNL     1     102.569 129.654 140.816  0.00  0.00    +0.000 A 
ATOM     29  C   UNL     1     102.932 130.092 142.126  0.00  0.00    +0.000 A 
ATOM     30  C   UNL     1     102.405 130.097 141.492  0.00  0.00    +0.000 A 
BRANCH  28  31
ATOM     31  O   UNL     1     102.041 129.658 140.181  0.00  0.00    +0.000 OA
ATOM     32  C   UNL     1     102.250 129.300 139.469  0.00  0.00    +0.000 C 
ENDBRANCH  28  31
ENDBRANCH  23  25
ENDBRANCH  21  22
ENDBRANCH  19  21
ENDBRANCH  15  19
BRANCH  14  33
ATOM     33  O   UNL     1     106.014 125.846 140.948  0.00  0.00    +0.000 OA
BRANCH  33  38
ATOM     34  O   UNL     1     105.501 124.595 141.410  0.00  0.00    +0.000 OA
ATOM     35  O   UNL     1     105.805 125.354 139.386  0.00  0.00    +0.000 OA
ATOM     36  O   UNL     1     105.187 123.858 139.068  0.00  0.00    +0.000 OA
ATOM     37  O   UNL     1     104.779 122.852 140.311  0.00  0.00    +0.000 OA
ATOM     38  C   UNL     1     105.705 125.097 140.788  0.00  0.00    +0.000 C 
ATOM     39  C   UNL     1     105.601 124.852 140.007  0.00  0.00    +0.000 C 
ATOM     40  C   UNL     1     105.292 124.104 139.848  0.00  0.00    +0.000 C 
ATOM     41  C   UNL     1     105.087 123.601 140.470  0.00  0.00    +0.000 C 
ATOM     42  C   UNL     1     105.192 123.847 141.250  0.00  0.00    +0.000 C 
BRANCH  42  44
ATOM     43  O   UNL     1     104.412 123.573 142.417  0.00  0.00    +0.000 OA
ATOM     44  C   UNL     1     104.988 123.344 141.872  0.00  0.00    +0.000 C 
ENDBRANCH  42  44
ENDBRANCH  33  38
ENDBRANCH  14  33
ENDBRANCH  11  16
ENDBRANCH   4  11
BRANCH   7  45
ATOM     45  O   UNL     1     106.679 128.444 144.151  0.00  0.00    +0.000 OA
BRANCH  45  50
ATOM     46  O   UNL     1     107.111 130.502 144.736  0.00  0.00    +0.000 OA
ATOM     47  O   UNL     1     105.250 128.875 144.853  0.00  0.00    +0.000 OA
ATOM     48  O   UNL     1     104.411 129.838 145.524  0.00  0.00    +0.000 OA
ATOM     49  O   UNL     1     105.476 132.499 146.088  0.00  0.00    +0.000 OA
ATOM     50  C   UNL     1     106.585 129.202 144.463  0.00  0.00    +0.000 A 
ATOM     51  C   UNL     1     107.206 129.745 144.424  0.00  0.00    +0.000 A 
ATOM     52  C   UNL     1     105.870 129.418 144.814  0.00  0.00    +0.000 A 
ATOM     53  C   UNL     1     105.776 130.174 145.126  0.00  0.00    +0.000 A 
ATOM     54  C   UNL     1     106.396 130.717 145.088  0.00  0.00    +0.000 A 
ATOM     55  C   UNL     1     105.026 130.387 145.490  0.00  0.00    +0.000 A 
ATOM     56  C   UNL     1     106.310 131.509 145.409  0.00  0.00    +0.000 A 
ATOM     57  C   UNL     1     104.922 131.175 145.816  0.00  0.00    +0.000 A 
ATOM     58  C   UNL     1     105.568 131.740 145.776  0.00  0.00    +0.000 A 
BRANCH  51  60
ATOM     59  O   UNL     1     110.063 128.882 143.017  0.00  0.00    +0.000 OA
ATOM     60  C   UNL     1     107.920 129.529 144.073  0.00  0.00    +0.000 A 
ATOM     61  C   UNL     1     107.992 129.532 143.251  0.00  0.00    +0.000 A 
ATOM     62  C   UNL     1     108.562 129.311 144.543  0.00  0.00    +0.000 A 
ATOM     63  C   UNL     1     108.707 129.316 142.899  0.00  0.00    +0.000 A 
ATOM     64  C   UNL     1     109.276 129.095 144.190  0.00  0.00    +0.000 A 
ATOM     65  C   UNL     1     109.349 129.098 143.369  0.00  0.00    +0.000 A 
BRANCH  63  66
ATOM     66  O   UNL     1     108.779 129.319 142.077  0.00  0.00    +0.000 OA
ATOM     67  C   UNL     1     108.417 129.912 141.633  0.00  0.00    +0.000 C 
ENDBRANCH  63  66
ENDBRANCH  51  60
BRANCH  57  68
ATOM     68  O   UNL     1     104.206 131.387 146.167  0.00  0.00    +0.000 OA
ATOM     69  C   UNL     1     103.647 131.816 145.738  0.00  0.00    +0.000 C 
ENDBRANCH  57  68
ENDBRANCH  45  50
ENDBRANCH   7  45
TORSDOF 16
ENDMDL
MODEL 10
REMARK VINA RESULT:      -9.0      1.597      4.432
REMARK  Name = 100943914
REMARK  16 active torsions:
REMARK  status: ('A' for Active; 'I' for Inactive)
REMARK    1  A    between atoms: O_1  and  C_28
REMARK    2  A    between atoms: O_1  and  C_29
REMARK    3  A    between atoms: O_2  and  C_26
REMARK    4  A    between atoms: O_2  and  C_32
REMARK    5  A    between atoms: O_6  and  C_27
REMARK    6  A    between atoms: O_6  and  C_43
REMARK    7  A    between atoms: O_9  and  C_34
REMARK    8  A    between atoms: O_9  and  C_44
REMARK    9  A    between atoms: O_20  and  C_56
REMARK   10  A    between atoms: O_22  and  C_59
REMARK   11  A    between atoms: O_24  and  C_64
REMARK   12  A    between atoms: C_36  and  C_41
REMARK   13  A    between atoms: C_40  and  C_42
REMARK   14  A    between atoms: C_43  and  C_47
REMARK   15  A    between atoms: C_45  and  C_49
REMARK   16  A    between atoms: C_51  and  C_57
REMARK                            x       y       z     vdW  Elec       q    Type
REMARK                         _______ _______ _______ _____ _____    ______ ____
ROOT
ATOM      1  O   UNL     1     110.827 128.842 136.428  0.00  0.00    +0.000 OA
ATOM      2  O   UNL     1     108.775 129.592 137.590  0.00  0.00    +0.000 OA
ATOM      3  O   UNL     1     108.835 129.588 135.942  0.00  0.00    +0.000 OA
ATOM      4  C   UNL     1     110.113 129.094 137.640  0.00  0.00    +0.000 C 
ATOM      5  C   UNL     1     109.459 129.342 137.202  0.00  0.00    +0.000 C 
ATOM      6  C   UNL     1     109.489 129.340 136.379  0.00  0.00    +0.000 C 
ATOM      7  C   UNL     1     110.798 128.844 137.253  0.00  0.00    +0.000 C 
ATOM      8  C   UNL     1     110.174 129.090 135.991  0.00  0.00    +0.000 C 
ENDROOT
BRANCH   8  10
ATOM      9  O   UNL     1     110.725 129.590 134.771  0.00  0.00    +0.000 OA
ATOM     10  C   UNL     1     110.204 129.088 135.167  0.00  0.00    +0.000 C 
ENDBRANCH   8  10
BRANCH   4  11
ATOM     11  O   UNL     1     110.083 129.096 138.464  0.00  0.00    +0.000 OA
BRANCH  11  16
ATOM     12  O   UNL     1     110.207 130.520 138.466  0.00  0.00    +0.000 OA
ATOM     13  O   UNL     1     110.256 131.948 140.115  0.00  0.00    +0.000 OA
ATOM     14  C   UNL     1     110.132 130.524 140.114  0.00  0.00    +0.000 C 
ATOM     15  C   UNL     1     110.089 129.812 139.702  0.00  0.00    +0.000 C 
ATOM     16  C   UNL     1     110.126 129.809 138.877  0.00  0.00    +0.000 C 
ATOM     17  C   UNL     1     110.213 131.235 139.702  0.00  0.00    +0.000 C 
ATOM     18  C   UNL     1     110.250 131.232 138.878  0.00  0.00    +0.000 C 
BRANCH  15  19
ATOM     19  O   UNL     1     110.008 129.101 140.112  0.00  0.00    +0.000 OA
BRANCH  19  21
ATOM     20  O   UNL     1     108.617 129.302 140.374  0.00  0.00    +0.000 OA
ATOM     21  C   UNL     1     109.256 128.793 140.260  0.00  0.00    +0.000 C 
BRANCH  21  22
ATOM     22  C   UNL     1     109.144 127.977 140.293  0.00  0.00    +0.000 C 
ATOM     23  C   UNL     1     108.862 127.627 140.985  0.00  0.00    +0.000 C 
BRANCH  23  25
ATOM     24  O   UNL     1     108.414 124.360 141.118  0.00  0.00    +0.000 OA
ATOM     25  C   UNL     1     108.751 126.810 141.018  0.00  0.00    +0.000 A 
ATOM     26  C   UNL     1     108.079 126.501 141.385  0.00  0.00    +0.000 A 
ATOM     27  C   UNL     1     109.310 126.303 140.685  0.00  0.00    +0.000 A 
ATOM     28  C   UNL     1     107.967 125.684 141.418  0.00  0.00    +0.000 A 
ATOM     29  C   UNL     1     109.197 125.487 140.719  0.00  0.00    +0.000 A 
ATOM     30  C   UNL     1     108.527 125.177 141.085  0.00  0.00    +0.000 A 
BRANCH  28  31
ATOM     31  O   UNL     1     107.295 125.374 141.784  0.00  0.00    +0.000 OA
ATOM     32  C   UNL     1     106.743 125.880 142.127  0.00  0.00    +0.000 C 
ENDBRANCH  28  31
ENDBRANCH  23  25
ENDBRANCH  21  22
ENDBRANCH  19  21
ENDBRANCH  15  19
BRANCH  14  33
ATOM     33  O   UNL     1     110.095 130.527 140.938  0.00  0.00    +0.000 OA
BRANCH  33  38
ATOM     34  O   UNL     1     111.497 130.375 141.159  0.00  0.00    +0.000 OA
ATOM     35  O   UNL     1     109.989 131.497 142.268  0.00  0.00    +0.000 OA
ATOM     36  O   UNL     1     111.340 131.830 143.155  0.00  0.00    +0.000 OA
ATOM     37  O   UNL     1     112.796 131.193 142.712  0.00  0.00    +0.000 OA
ATOM     38  C   UNL     1     110.770 130.694 141.381  0.00  0.00    +0.000 C 
ATOM     39  C   UNL     1     110.717 131.179 142.047  0.00  0.00    +0.000 C 
ATOM     40  C   UNL     1     111.392 131.345 142.490  0.00  0.00    +0.000 C 
ATOM     41  C   UNL     1     112.121 131.026 142.268  0.00  0.00    +0.000 C 
ATOM     42  C   UNL     1     112.173 130.542 141.603  0.00  0.00    +0.000 C 
BRANCH  42  44
ATOM     43  O   UNL     1     113.050 129.418 141.489  0.00  0.00    +0.000 OA
ATOM     44  C   UNL     1     112.901 130.223 141.381  0.00  0.00    +0.000 C 
ENDBRANCH  42  44
ENDBRANCH  33  38
ENDBRANCH  14  33
ENDBRANCH  11  16
ENDBRANCH   4  11
BRANCH   7  45
ATOM     45  O   UNL     1     111.451 128.595 137.690  0.00  0.00    +0.000 OA
BRANCH  45  50
ATOM     46  O   UNL     1     113.154 127.406 137.020  0.00  0.00    +0.000 OA
ATOM     47  O   UNL     1     110.739 127.122 137.482  0.00  0.00    +0.000 OA
ATOM     48  O   UNL     1     110.804 125.726 137.123  0.00  0.00    +0.000 OA
ATOM     49  O   UNL     1     113.362 124.596 136.279  0.00  0.00    +0.000 OA
ATOM     50  C   UNL     1     111.900 127.953 137.432  0.00  0.00    +0.000 A 
ATOM     51  C   UNL     1     112.705 128.047 137.278  0.00  0.00    +0.000 A 
ATOM     52  C   UNL     1     111.544 127.216 137.328  0.00  0.00    +0.000 A 
ATOM     53  C   UNL     1     111.992 126.574 137.070  0.00  0.00    +0.000 A 
ATOM     54  C   UNL     1     112.797 126.668 136.916  0.00  0.00    +0.000 A 
ATOM     55  C   UNL     1     111.610 125.811 136.966  0.00  0.00    +0.000 A 
ATOM     56  C   UNL     1     113.276 126.007 136.647  0.00  0.00    +0.000 A 
ATOM     57  C   UNL     1     112.072 125.139 136.698  0.00  0.00    +0.000 A 
ATOM     58  C   UNL     1     112.911 125.237 136.537  0.00  0.00    +0.000 A 
BRANCH  51  60
ATOM     59  O   UNL     1     114.128 130.996 137.690  0.00  0.00    +0.000 OA
ATOM     60  C   UNL     1     113.061 128.784 137.381  0.00  0.00    +0.000 A 
ATOM     61  C   UNL     1     113.233 129.255 136.725  0.00  0.00    +0.000 A 
ATOM     62  C   UNL     1     113.245 129.051 138.140  0.00  0.00    +0.000 A 
ATOM     63  C   UNL     1     113.589 129.992 136.829  0.00  0.00    +0.000 A 
ATOM     64  C   UNL     1     113.600 129.789 138.243  0.00  0.00    +0.000 A 
ATOM     65  C   UNL     1     113.772 130.259 137.588  0.00  0.00    +0.000 A 
BRANCH  63  66
ATOM     66  O   UNL     1     113.761 130.463 136.173  0.00  0.00    +0.000 OA
ATOM     67  C   UNL     1     114.124 130.131 135.512  0.00  0.00    +0.000 C 
ENDBRANCH  63  66
ENDBRANCH  51  60
BRANCH  57  68
ATOM     68  O   UNL     1     111.714 124.403 136.595  0.00  0.00    +0.000 OA
ATOM     69  C   UNL     1     111.877 123.786 137.118  0.00  0.00    +0.000 C 
ENDBRANCH  57  68
ENDBRANCH  45  50
ENDBRANCH   7  45
TORSDOF 16
ENDMDL
