MODEL 1
REMARK VINA RESULT:     -10.2      0.000      0.000
REMARK  Name = 46869260
REMARK  7 active torsions:
REMARK  status: ('A' for Active; 'I' for Inactive)
REMARK    1  A    between atoms: O_3  and  C_23
REMARK    2  A    between atoms: O_3  and  C_28
REMARK    3  A    between atoms: O_4  and  C_24
REMARK    4  A    between atoms: O_4  and  C_29
REMARK    5  A    between atoms: C_20  and  C_25
REMARK    6  A    between atoms: C_22  and  C_26
REMARK    7  A    between atoms: C_27  and  C_31
REMARK                            x       y       z     vdW  Elec       q    Type
REMARK                         _______ _______ _______ _____ _____    ______ ____
ROOT
ATOM      1  O   UNL     1     110.290 128.290 136.003  0.00  0.00    +0.000 OA
ATOM      2  O   UNL     1     107.838 128.430 135.694  0.00  0.00    +0.000 OA
ATOM      3  C   UNL     1     109.845 127.601 135.911  0.00  0.00    +0.000 C 
ATOM      4  C   UNL     1     110.007 130.505 136.078  0.00  0.00    +0.000 A 
ATOM      5  C   UNL     1     109.028 127.648 135.808  0.00  0.00    +0.000 C 
ATOM      6  C   UNL     1     109.917 129.026 135.992  0.00  0.00    +0.000 A 
ATOM      7  C   UNL     1     109.099 129.072 135.889  0.00  0.00    +0.000 A 
ATOM      8  C   UNL     1     110.391 129.736 136.089  0.00  0.00    +0.000 A 
ATOM      9  C   UNL     1     108.655 128.383 135.797  0.00  0.00    +0.000 C 
ATOM     10  C   UNL     1     109.157 130.554 135.971  0.00  0.00    +0.000 A 
ATOM     11  C   UNL     1     108.700 129.833 135.875  0.00  0.00    +0.000 A 
ENDROOT
BRANCH   3  13
ATOM     12  C   UNL     1     110.964 125.394 135.945  0.00  0.00    +0.000 A 
ATOM     13  C   UNL     1     110.218 126.865 135.922  0.00  0.00    +0.000 A 
ATOM     14  C   UNL     1     110.918 125.822 135.241  0.00  0.00    +0.000 A 
ATOM     15  C   UNL     1     110.637 125.701 136.637  0.00  0.00    +0.000 A 
ATOM     16  C   UNL     1     110.545 126.558 135.230  0.00  0.00    +0.000 A 
ATOM     17  C   UNL     1     110.265 126.437 136.626  0.00  0.00    +0.000 A 
BRANCH  12  18
ATOM     18  O   UNL     1     111.336 124.658 135.957  0.00  0.00    +0.000 OA
BRANCH  18  27
ATOM     19  O   UNL     1     112.651 125.171 136.174  0.00  0.00    +0.000 OA
ATOM     20  O   UNL     1     113.216 123.166 137.510  0.00  0.00    +0.000 OA
ATOM     21  O   UNL     1     114.343 124.349 137.282  0.00  0.00    +0.000 OA
ATOM     22  O   UNL     1     111.712 123.319 136.847  0.00  0.00    +0.000 OA
ATOM     23  C   UNL     1     113.028 123.834 137.065  0.00  0.00    +0.000 C 
ATOM     24  C   UNL     1     113.591 124.426 136.951  0.00  0.00    +0.000 C 
ATOM     25  C   UNL     1     112.276 123.911 136.734  0.00  0.00    +0.000 C 
ATOM     26  C   UNL     1     113.403 125.094 136.506  0.00  0.00    +0.000 C 
ATOM     27  C   UNL     1     112.088 124.580 136.288  0.00  0.00    +0.000 C 
BRANCH  26  29
ATOM     28  O   UNL     1     113.861 126.430 136.733  0.00  0.00    +0.000 OA
ATOM     29  C   UNL     1     113.967 125.686 136.392  0.00  0.00    +0.000 C 
ENDBRANCH  26  29
ENDBRANCH  18  27
ENDBRANCH  12  18
ENDBRANCH   3  13
BRANCH   4  30
ATOM     30  O   UNL     1     110.454 131.193 136.170  0.00  0.00    +0.000 OA
BRANCH  30  39
ATOM     31  O   UNL     1     110.476 131.225 137.599  0.00  0.00    +0.000 OA
ATOM     32  O   UNL     1     110.179 133.682 137.547  0.00  0.00    +0.000 OA
ATOM     33  O   UNL     1     110.299 132.896 138.992  0.00  0.00    +0.000 OA
ATOM     34  O   UNL     1     110.256 132.830 136.136  0.00  0.00    +0.000 OA
ATOM     35  C   UNL     1     110.278 132.863 137.564  0.00  0.00    +0.000 C 
ATOM     36  C   UNL     1     110.338 132.470 138.287  0.00  0.00    +0.000 C 
ATOM     37  C   UNL     1     110.316 132.438 136.858  0.00  0.00    +0.000 C 
ATOM     38  C   UNL     1     110.437 131.652 138.304  0.00  0.00    +0.000 C 
ATOM     39  C   UNL     1     110.415 131.619 136.875  0.00  0.00    +0.000 C 
BRANCH  38  41
ATOM     40  O   UNL     1     111.215 130.917 139.251  0.00  0.00    +0.000 OA
ATOM     41  C   UNL     1     110.497 131.258 139.026  0.00  0.00    +0.000 C 
ENDBRANCH  38  41
ENDBRANCH  30  39
ENDBRANCH   4  30
TORSDOF 7
ENDMDL
MODEL 2
REMARK VINA RESULT:     -10.0      1.723      3.267
REMARK  Name = 46869260
REMARK  7 active torsions:
REMARK  status: ('A' for Active; 'I' for Inactive)
REMARK    1  A    between atoms: O_3  and  C_23
REMARK    2  A    between atoms: O_3  and  C_28
REMARK    3  A    between atoms: O_4  and  C_24
REMARK    4  A    between atoms: O_4  and  C_29
REMARK    5  A    between atoms: C_20  and  C_25
REMARK    6  A    between atoms: C_22  and  C_26
REMARK    7  A    between atoms: C_27  and  C_31
REMARK                            x       y       z     vdW  Elec       q    Type
REMARK                         _______ _______ _______ _____ _____    ______ ____
ROOT
ATOM      1  O   UNL     1     111.925 129.462 136.982  0.00  0.00    +0.000 OA
ATOM      2  O   UNL     1     113.566 131.314 137.048  0.00  0.00    +0.000 OA
ATOM      3  C   UNL     1     112.730 129.304 136.895  0.00  0.00    +0.000 C 
ATOM      4  C   UNL     1     110.552 131.198 137.292  0.00  0.00    +0.000 A 
ATOM      5  C   UNL     1     113.277 129.921 136.917  0.00  0.00    +0.000 C 
ATOM      6  C   UNL     1     111.667 130.239 137.090  0.00  0.00    +0.000 A 
ATOM      7  C   UNL     1     112.215 130.856 137.112  0.00  0.00    +0.000 A 
ATOM      8  C   UNL     1     110.826 130.391 137.179  0.00  0.00    +0.000 A 
ATOM      9  C   UNL     1     113.020 130.697 137.026  0.00  0.00    +0.000 C 
ATOM     10  C   UNL     1     111.121 131.840 137.315  0.00  0.00    +0.000 A 
ATOM     11  C   UNL     1     111.958 131.668 137.224  0.00  0.00    +0.000 A 
ENDROOT
BRANCH   3  13
ATOM     12  C   UNL     1     113.504 126.976 136.569  0.00  0.00    +0.000 A 
ATOM     13  C   UNL     1     112.988 128.528 136.787  0.00  0.00    +0.000 A 
ATOM     14  C   UNL     1     113.342 127.254 137.330  0.00  0.00    +0.000 A 
ATOM     15  C   UNL     1     113.409 127.473 135.919  0.00  0.00    +0.000 A 
ATOM     16  C   UNL     1     113.084 128.030 137.438  0.00  0.00    +0.000 A 
ATOM     17  C   UNL     1     113.151 128.249 136.028  0.00  0.00    +0.000 A 
BRANCH  12  18
ATOM     18  O   UNL     1     113.763 126.200 136.461  0.00  0.00    +0.000 OA
BRANCH  18  27
ATOM     19  O   UNL     1     112.449 125.676 136.263  0.00  0.00    +0.000 OA
ATOM     20  O   UNL     1     113.177 123.498 137.186  0.00  0.00    +0.000 OA
ATOM     21  O   UNL     1     111.619 123.700 136.681  0.00  0.00    +0.000 OA
ATOM     22  O   UNL     1     114.249 124.747 137.077  0.00  0.00    +0.000 OA
ATOM     23  C   UNL     1     112.934 124.224 136.879  0.00  0.00    +0.000 C 
ATOM     24  C   UNL     1     112.155 124.325 136.626  0.00  0.00    +0.000 C 
ATOM     25  C   UNL     1     113.470 124.848 136.824  0.00  0.00    +0.000 C 
ATOM     26  C   UNL     1     111.913 125.051 136.318  0.00  0.00    +0.000 C 
ATOM     27  C   UNL     1     113.227 125.575 136.516  0.00  0.00    +0.000 C 
BRANCH  26  29
ATOM     28  O   UNL     1     110.972 125.290 135.268  0.00  0.00    +0.000 OA
ATOM     29  C   UNL     1     111.133 125.152 136.065  0.00  0.00    +0.000 C 
ENDBRANCH  26  29
ENDBRANCH  18  27
ENDBRANCH  12  18
ENDBRANCH   3  13
BRANCH   4  30
ATOM     30  O   UNL     1     109.746 131.353 137.378  0.00  0.00    +0.000 OA
BRANCH  30  39
ATOM     31  O   UNL     1     109.458 131.830 136.062  0.00  0.00    +0.000 OA
ATOM     32  O   UNL     1     107.378 130.488 136.032  0.00  0.00    +0.000 OA
ATOM     33  O   UNL     1     107.783 131.411 134.727  0.00  0.00    +0.000 OA
ATOM     34  O   UNL     1     108.360 130.459 137.358  0.00  0.00    +0.000 OA
ATOM     35  C   UNL     1     108.071 130.935 136.042  0.00  0.00    +0.000 C 
ATOM     36  C   UNL     1     108.274 131.396 135.390  0.00  0.00    +0.000 C 
ATOM     37  C   UNL     1     108.562 130.920 136.706  0.00  0.00    +0.000 C 
ATOM     38  C   UNL     1     108.967 131.844 135.399  0.00  0.00    +0.000 C 
ATOM     39  C   UNL     1     109.255 131.367 136.716  0.00  0.00    +0.000 C 
BRANCH  38  41
ATOM     40  O   UNL     1     109.305 133.114 134.841  0.00  0.00    +0.000 OA
ATOM     41  C   UNL     1     109.170 132.305 134.747  0.00  0.00    +0.000 C 
ENDBRANCH  38  41
ENDBRANCH  30  39
ENDBRANCH   4  30
TORSDOF 7
ENDMDL
MODEL 3
REMARK VINA RESULT:      -9.9      1.856      6.312
REMARK  Name = 46869260
REMARK  7 active torsions:
REMARK  status: ('A' for Active; 'I' for Inactive)
REMARK    1  A    between atoms: O_3  and  C_23
REMARK    2  A    between atoms: O_3  and  C_28
REMARK    3  A    between atoms: O_4  and  C_24
REMARK    4  A    between atoms: O_4  and  C_29
REMARK    5  A    between atoms: C_20  and  C_25
REMARK    6  A    between atoms: C_22  and  C_26
REMARK    7  A    between atoms: C_27  and  C_31
REMARK                            x       y       z     vdW  Elec       q    Type
REMARK                         _______ _______ _______ _____ _____    ______ ____
ROOT
ATOM      1  O   UNL     1     110.272 127.112 136.499  0.00  0.00    +0.000 OA
ATOM      2  O   UNL     1     110.387 125.513 134.613  0.00  0.00    +0.000 OA
ATOM      3  C   UNL     1     109.974 127.324 135.759  0.00  0.00    +0.000 C 
ATOM      4  C   UNL     1     111.268 125.384 137.506  0.00  0.00    +0.000 A 
ATOM      5  C   UNL     1     110.012 126.791 135.131  0.00  0.00    +0.000 C 
ATOM      6  C   UNL     1     110.609 126.367 136.610  0.00  0.00    +0.000 A 
ATOM      7  C   UNL     1     110.647 125.834 135.981  0.00  0.00    +0.000 A 
ATOM      8  C   UNL     1     110.916 126.158 137.384  0.00  0.00    +0.000 A 
ATOM      9  C   UNL     1     110.349 126.046 135.241  0.00  0.00    +0.000 C 
ATOM     10  C   UNL     1     111.308 124.829 136.852  0.00  0.00    +0.000 A 
ATOM     11  C   UNL     1     110.995 125.055 136.084  0.00  0.00    +0.000 A 
ENDROOT
BRANCH   3  13
ATOM     12  C   UNL     1     108.964 129.558 135.426  0.00  0.00    +0.000 A 
ATOM     13  C   UNL     1     109.637 128.069 135.648  0.00  0.00    +0.000 A 
ATOM     14  C   UNL     1     109.722 129.402 135.141  0.00  0.00    +0.000 A 
ATOM     15  C   UNL     1     108.543 128.971 135.822  0.00  0.00    +0.000 A 
ATOM     16  C   UNL     1     110.059 128.657 135.252  0.00  0.00    +0.000 A 
ATOM     17  C   UNL     1     108.879 128.226 135.933  0.00  0.00    +0.000 A 
BRANCH  12  18
ATOM     18  O   UNL     1     108.627 130.303 135.315  0.00  0.00    +0.000 OA
BRANCH  18  27
ATOM     19  O   UNL     1     109.318 131.076 136.298  0.00  0.00    +0.000 OA
ATOM     20  O   UNL     1     107.165 132.023 137.069  0.00  0.00    +0.000 OA
ATOM     21  O   UNL     1     108.575 132.480 137.795  0.00  0.00    +0.000 OA
ATOM     22  O   UNL     1     107.191 130.935 135.829  0.00  0.00    +0.000 OA
ATOM     23  C   UNL     1     107.883 131.707 136.812  0.00  0.00    +0.000 C 
ATOM     24  C   UNL     1     108.588 131.936 137.175  0.00  0.00    +0.000 C 
ATOM     25  C   UNL     1     107.896 131.163 136.192  0.00  0.00    +0.000 C 
ATOM     26  C   UNL     1     109.305 131.620 136.918  0.00  0.00    +0.000 C 
ATOM     27  C   UNL     1     108.613 130.848 135.935  0.00  0.00    +0.000 C 
BRANCH  26  29
ATOM     28  O   UNL     1     110.671 132.033 136.823  0.00  0.00    +0.000 OA
ATOM     29  C   UNL     1     110.010 131.849 137.282  0.00  0.00    +0.000 C 
ENDBRANCH  26  29
ENDBRANCH  18  27
ENDBRANCH  12  18
ENDBRANCH   3  13
BRANCH   4  30
ATOM     30  O   UNL     1     111.565 125.175 138.246  0.00  0.00    +0.000 OA
BRANCH  30  39
ATOM     31  O   UNL     1     112.931 125.584 138.151  0.00  0.00    +0.000 OA
ATOM     32  O   UNL     1     112.727 126.770 140.314  0.00  0.00    +0.000 OA
ATOM     33  O   UNL     1     114.160 126.784 139.497  0.00  0.00    +0.000 OA
ATOM     34  O   UNL     1     111.429 125.965 139.688  0.00  0.00    +0.000 OA
ATOM     35  C   UNL     1     112.795 126.374 139.593  0.00  0.00    +0.000 C 
ATOM     36  C   UNL     1     113.511 126.382 139.185  0.00  0.00    +0.000 C 
ATOM     37  C   UNL     1     112.146 125.972 139.280  0.00  0.00    +0.000 C 
ATOM     38  C   UNL     1     113.579 125.987 138.464  0.00  0.00    +0.000 C 
ATOM     39  C   UNL     1     112.214 125.577 138.559  0.00  0.00    +0.000 C 
BRANCH  38  41
ATOM     40  O   UNL     1     114.675 125.282 137.876  0.00  0.00    +0.000 OA
ATOM     41  C   UNL     1     114.296 125.993 138.055  0.00  0.00    +0.000 C 
ENDBRANCH  38  41
ENDBRANCH  30  39
ENDBRANCH   4  30
TORSDOF 7
ENDMDL
MODEL 4
REMARK VINA RESULT:      -9.9      1.825      3.076
REMARK  Name = 46869260
REMARK  7 active torsions:
REMARK  status: ('A' for Active; 'I' for Inactive)
REMARK    1  A    between atoms: O_3  and  C_23
REMARK    2  A    between atoms: O_3  and  C_28
REMARK    3  A    between atoms: O_4  and  C_24
REMARK    4  A    between atoms: O_4  and  C_29
REMARK    5  A    between atoms: C_20  and  C_25
REMARK    6  A    between atoms: C_22  and  C_26
REMARK    7  A    between atoms: C_27  and  C_31
REMARK                            x       y       z     vdW  Elec       q    Type
REMARK                         _______ _______ _______ _____ _____    ______ ____
ROOT
ATOM      1  O   UNL     1     111.975 129.340 137.300  0.00  0.00    +0.000 OA
ATOM      2  O   UNL     1     113.494 131.248 136.874  0.00  0.00    +0.000 OA
ATOM      3  C   UNL     1     112.737 129.205 137.014  0.00  0.00    +0.000 C 
ATOM      4  C   UNL     1     110.652 131.040 137.895  0.00  0.00    +0.000 A 
ATOM      5  C   UNL     1     113.243 129.841 136.872  0.00  0.00    +0.000 C 
ATOM      6  C   UNL     1     111.719 130.111 137.445  0.00  0.00    +0.000 A 
ATOM      7  C   UNL     1     112.226 130.747 137.302  0.00  0.00    +0.000 A 
ATOM      8  C   UNL     1     110.924 130.239 137.743  0.00  0.00    +0.000 A 
ATOM      9  C   UNL     1     112.988 130.612 137.016  0.00  0.00    +0.000 C 
ATOM     10  C   UNL     1     111.179 131.702 137.747  0.00  0.00    +0.000 A 
ATOM     11  C   UNL     1     111.971 131.554 137.449  0.00  0.00    +0.000 A 
ENDROOT
BRANCH   3  13
ATOM     12  C   UNL     1     113.505 126.892 136.582  0.00  0.00    +0.000 A 
ATOM     13  C   UNL     1     112.993 128.434 136.870  0.00  0.00    +0.000 A 
ATOM     14  C   UNL     1     113.372 127.407 135.951  0.00  0.00    +0.000 A 
ATOM     15  C   UNL     1     113.382 127.148 137.356  0.00  0.00    +0.000 A 
ATOM     16  C   UNL     1     113.116 128.178 136.095  0.00  0.00    +0.000 A 
ATOM     17  C   UNL     1     113.126 127.919 137.500  0.00  0.00    +0.000 A 
BRANCH  12  18
ATOM     18  O   UNL     1     113.761 126.121 136.438  0.00  0.00    +0.000 OA
BRANCH  18  27
ATOM     19  O   UNL     1     112.453 125.576 136.262  0.00  0.00    +0.000 OA
ATOM     20  O   UNL     1     113.216 123.428 137.225  0.00  0.00    +0.000 OA
ATOM     21  O   UNL     1     111.652 123.600 136.727  0.00  0.00    +0.000 OA
ATOM     22  O   UNL     1     114.271 124.689 137.081  0.00  0.00    +0.000 OA
ATOM     23  C   UNL     1     112.962 124.144 136.904  0.00  0.00    +0.000 C 
ATOM     24  C   UNL     1     112.180 124.230 136.655  0.00  0.00    +0.000 C 
ATOM     25  C   UNL     1     113.489 124.774 136.832  0.00  0.00    +0.000 C 
ATOM     26  C   UNL     1     111.925 124.946 136.334  0.00  0.00    +0.000 C 
ATOM     27  C   UNL     1     113.235 125.491 136.511  0.00  0.00    +0.000 C 
BRANCH  26  29
ATOM     28  O   UNL     1     110.979 125.302 135.323  0.00  0.00    +0.000 OA
ATOM     29  C   UNL     1     111.143 125.031 136.085  0.00  0.00    +0.000 C 
ENDBRANCH  26  29
ENDBRANCH  18  27
ENDBRANCH  12  18
ENDBRANCH   3  13
BRANCH   4  30
ATOM     30  O   UNL     1     109.890 131.172 138.181  0.00  0.00    +0.000 OA
BRANCH  30  39
ATOM     31  O   UNL     1     110.226 131.159 139.570  0.00  0.00    +0.000 OA
ATOM     32  O   UNL     1     108.089 130.019 140.077  0.00  0.00    +0.000 OA
ATOM     33  O   UNL     1     109.137 130.387 141.296  0.00  0.00    +0.000 OA
ATOM     34  O   UNL     1     108.465 130.412 138.519  0.00  0.00    +0.000 OA
ATOM     35  C   UNL     1     108.801 130.399 139.908  0.00  0.00    +0.000 C 
ATOM     36  C   UNL     1     109.325 130.583 140.517  0.00  0.00    +0.000 C 
ATOM     37  C   UNL     1     108.989 130.595 139.129  0.00  0.00    +0.000 C 
ATOM     38  C   UNL     1     110.038 130.963 140.348  0.00  0.00    +0.000 C 
ATOM     39  C   UNL     1     109.701 130.975 138.959  0.00  0.00    +0.000 C 
BRANCH  38  41
ATOM     40  O   UNL     1     110.827 131.923 141.053  0.00  0.00    +0.000 OA
ATOM     41  C   UNL     1     110.562 131.147 140.957  0.00  0.00    +0.000 C 
ENDBRANCH  38  41
ENDBRANCH  30  39
ENDBRANCH   4  30
TORSDOF 7
ENDMDL
MODEL 5
REMARK VINA RESULT:      -9.8      8.309     11.139
REMARK  Name = 46869260
REMARK  7 active torsions:
REMARK  status: ('A' for Active; 'I' for Inactive)
REMARK    1  A    between atoms: O_3  and  C_23
REMARK    2  A    between atoms: O_3  and  C_28
REMARK    3  A    between atoms: O_4  and  C_24
REMARK    4  A    between atoms: O_4  and  C_29
REMARK    5  A    between atoms: C_20  and  C_25
REMARK    6  A    between atoms: C_22  and  C_26
REMARK    7  A    between atoms: C_27  and  C_31
REMARK                            x       y       z     vdW  Elec       q    Type
REMARK                         _______ _______ _______ _____ _____    ______ ____
ROOT
ATOM      1  O   UNL     1     104.957 127.726 142.448  0.00  0.00    +0.000 OA
ATOM      2  O   UNL     1     107.201 128.736 142.180  0.00  0.00    +0.000 OA
ATOM      3  C   UNL     1     105.029 128.513 142.212  0.00  0.00    +0.000 C 
ATOM      4  C   UNL     1     106.244 125.982 142.994  0.00  0.00    +0.000 A 
ATOM      5  C   UNL     1     105.777 128.849 142.123  0.00  0.00    +0.000 C 
ATOM      6  C   UNL     1     105.632 127.275 142.595  0.00  0.00    +0.000 A 
ATOM      7  C   UNL     1     106.380 127.612 142.505  0.00  0.00    +0.000 A 
ATOM      8  C   UNL     1     105.544 126.456 142.839  0.00  0.00    +0.000 A 
ATOM      9  C   UNL     1     106.453 128.400 142.269  0.00  0.00    +0.000 C 
ATOM     10  C   UNL     1     107.022 126.333 142.901  0.00  0.00    +0.000 A 
ATOM     11  C   UNL     1     107.091 127.153 142.655  0.00  0.00    +0.000 A 
ENDROOT
BRANCH   3  13
ATOM     12  C   UNL     1     103.003 129.864 141.772  0.00  0.00    +0.000 A 
ATOM     13  C   UNL     1     104.354 128.963 142.066  0.00  0.00    +0.000 A 
ATOM     14  C   UNL     1     103.379 129.911 142.506  0.00  0.00    +0.000 A 
ATOM     15  C   UNL     1     103.303 129.368 141.186  0.00  0.00    +0.000 A 
ATOM     16  C   UNL     1     104.054 129.460 142.652  0.00  0.00    +0.000 A 
ATOM     17  C   UNL     1     103.979 128.918 141.332  0.00  0.00    +0.000 A 
BRANCH  12  18
ATOM     18  O   UNL     1     102.328 130.315 141.625  0.00  0.00    +0.000 OA
BRANCH  18  27
ATOM     19  O   UNL     1     103.026 131.423 141.056  0.00  0.00    +0.000 OA
ATOM     20  O   UNL     1     101.325 132.969 141.976  0.00  0.00    +0.000 OA
ATOM     21  O   UNL     1     102.591 133.562 141.099  0.00  0.00    +0.000 OA
ATOM     22  O   UNL     1     101.193 131.345 142.239  0.00  0.00    +0.000 OA
ATOM     23  C   UNL     1     101.892 132.454 141.669  0.00  0.00    +0.000 C 
ATOM     24  C   UNL     1     102.525 132.750 141.231  0.00  0.00    +0.000 C 
ATOM     25  C   UNL     1     101.826 131.642 141.801  0.00  0.00    +0.000 C 
ATOM     26  C   UNL     1     103.092 132.235 140.924  0.00  0.00    +0.000 C 
ATOM     27  C   UNL     1     102.393 131.127 141.494  0.00  0.00    +0.000 C 
BRANCH  26  29
ATOM     28  O   UNL     1     103.887 132.230 139.736  0.00  0.00    +0.000 OA
ATOM     29  C   UNL     1     103.725 132.533 140.486  0.00  0.00    +0.000 C 
ENDBRANCH  26  29
ENDBRANCH  18  27
ENDBRANCH  12  18
ENDBRANCH   3  13
BRANCH   4  30
ATOM     30  O   UNL     1     106.168 125.195 143.229  0.00  0.00    +0.000 OA
BRANCH  30  39
ATOM     31  O   UNL     1     106.325 125.401 144.635  0.00  0.00    +0.000 OA
ATOM     32  O   UNL     1     104.578 123.706 145.078  0.00  0.00    +0.000 OA
ATOM     33  O   UNL     1     105.317 124.476 146.334  0.00  0.00    +0.000 OA
ATOM     34  O   UNL     1     105.003 124.065 143.525  0.00  0.00    +0.000 OA
ATOM     35  C   UNL     1     105.160 124.271 144.930  0.00  0.00    +0.000 C 
ATOM     36  C   UNL     1     105.529 124.656 145.558  0.00  0.00    +0.000 C 
ATOM     37  C   UNL     1     105.373 124.450 144.153  0.00  0.00    +0.000 C 
ATOM     38  C   UNL     1     106.112 125.221 145.411  0.00  0.00    +0.000 C 
ATOM     39  C   UNL     1     105.955 125.015 144.005  0.00  0.00    +0.000 C 
BRANCH  38  41
ATOM     40  O   UNL     1     107.295 125.521 146.154  0.00  0.00    +0.000 OA
ATOM     41  C   UNL     1     106.482 125.607 146.039  0.00  0.00    +0.000 C 
ENDBRANCH  38  41
ENDBRANCH  30  39
ENDBRANCH   4  30
TORSDOF 7
ENDMDL
MODEL 6
REMARK VINA RESULT:      -9.8      1.667      7.074
REMARK  Name = 46869260
REMARK  7 active torsions:
REMARK  status: ('A' for Active; 'I' for Inactive)
REMARK    1  A    between atoms: O_3  and  C_23
REMARK    2  A    between atoms: O_3  and  C_28
REMARK    3  A    between atoms: O_4  and  C_24
REMARK    4  A    between atoms: O_4  and  C_29
REMARK    5  A    between atoms: C_20  and  C_25
REMARK    6  A    between atoms: C_22  and  C_26
REMARK    7  A    between atoms: C_27  and  C_31
REMARK                            x       y       z     vdW  Elec       q    Type
REMARK                         _______ _______ _______ _____ _____    ______ ____
ROOT
ATOM      1  O   UNL     1     112.597 128.794 136.776  0.00  0.00    +0.000 OA
ATOM      2  O   UNL     1     114.249 129.033 134.948  0.00  0.00    +0.000 OA
ATOM      3  C   UNL     1     112.626 129.490 136.334  0.00  0.00    +0.000 C 
ATOM      4  C   UNL     1     113.622 126.813 136.907  0.00  0.00    +0.000 A 
ATOM      5  C   UNL     1     113.176 129.569 135.725  0.00  0.00    +0.000 C 
ATOM      6  C   UNL     1     113.120 128.177 136.609  0.00  0.00    +0.000 A 
ATOM      7  C   UNL     1     113.670 128.258 135.999  0.00  0.00    +0.000 A 
ATOM      8  C   UNL     1     113.080 127.458 137.077  0.00  0.00    +0.000 A 
ATOM      9  C   UNL     1     113.698 128.954 135.557  0.00  0.00    +0.000 C 
ATOM     10  C   UNL     1     114.195 126.895 136.273  0.00  0.00    +0.000 A 
ATOM     11  C   UNL     1     114.219 127.623 135.816  0.00  0.00    +0.000 A 
ENDROOT
BRANCH   3  13
ATOM     12  C   UNL     1     111.060 131.339 136.835  0.00  0.00    +0.000 A 
ATOM     13  C   UNL     1     112.103 130.106 136.501  0.00  0.00    +0.000 A 
ATOM     14  C   UNL     1     110.804 130.692 136.392  0.00  0.00    +0.000 A 
ATOM     15  C   UNL     1     111.836 131.371 137.111  0.00  0.00    +0.000 A 
ATOM     16  C   UNL     1     111.326 130.075 136.225  0.00  0.00    +0.000 A 
ATOM     17  C   UNL     1     112.358 130.754 136.944  0.00  0.00    +0.000 A 
BRANCH  12  18
ATOM     18  O   UNL     1     110.537 131.956 137.002  0.00  0.00    +0.000 OA
BRANCH  18  27
ATOM     19  O   UNL     1     110.155 131.586 138.328  0.00  0.00    +0.000 OA
ATOM     20  O   UNL     1     107.795 132.109 137.795  0.00  0.00    +0.000 OA
ATOM     21  O   UNL     1     108.200 131.565 139.299  0.00  0.00    +0.000 OA
ATOM     22  O   UNL     1     108.963 132.304 136.646  0.00  0.00    +0.000 OA
ATOM     23  C   UNL     1     108.582 131.935 137.973  0.00  0.00    +0.000 C 
ATOM     24  C   UNL     1     108.784 131.663 138.725  0.00  0.00    +0.000 C 
ATOM     25  C   UNL     1     109.166 132.032 137.398  0.00  0.00    +0.000 C 
ATOM     26  C   UNL     1     109.571 131.488 138.903  0.00  0.00    +0.000 C 
ATOM     27  C   UNL     1     109.953 131.858 137.576  0.00  0.00    +0.000 C 
BRANCH  26  29
ATOM     28  O   UNL     1     110.389 131.573 140.072  0.00  0.00    +0.000 OA
ATOM     29  C   UNL     1     109.773 131.216 139.655  0.00  0.00    +0.000 C 
ENDBRANCH  26  29
ENDBRANCH  18  27
ENDBRANCH  12  18
ENDBRANCH   3  13
BRANCH   4  30
ATOM     30  O   UNL     1     113.592 126.118 137.351  0.00  0.00    +0.000 OA
BRANCH  30  39
ATOM     31  O   UNL     1     112.407 125.604 136.739  0.00  0.00    +0.000 OA
ATOM     32  O   UNL     1     113.284 123.302 136.974  0.00  0.00    +0.000 OA
ATOM     33  O   UNL     1     111.808 123.555 136.285  0.00  0.00    +0.000 OA
ATOM     34  O   UNL     1     114.176 124.583 137.507  0.00  0.00    +0.000 OA
ATOM     35  C   UNL     1     112.992 124.069 136.896  0.00  0.00    +0.000 C 
ATOM     36  C   UNL     1     112.254 124.195 136.551  0.00  0.00    +0.000 C 
ATOM     37  C   UNL     1     113.438 124.709 137.163  0.00  0.00    +0.000 C 
ATOM     38  C   UNL     1     111.961 124.963 136.473  0.00  0.00    +0.000 C 
ATOM     39  C   UNL     1     113.146 125.477 137.084  0.00  0.00    +0.000 C 
BRANCH  38  41
ATOM     40  O   UNL     1     110.645 125.516 136.536  0.00  0.00    +0.000 OA
ATOM     41  C   UNL     1     111.223 125.090 136.128  0.00  0.00    +0.000 C 
ENDBRANCH  38  41
ENDBRANCH  30  39
ENDBRANCH   4  30
TORSDOF 7
ENDMDL
MODEL 7
REMARK VINA RESULT:      -9.7      2.816      6.444
REMARK  Name = 46869260
REMARK  7 active torsions:
REMARK  status: ('A' for Active; 'I' for Inactive)
REMARK    1  A    between atoms: O_3  and  C_23
REMARK    2  A    between atoms: O_3  and  C_28
REMARK    3  A    between atoms: O_4  and  C_24
REMARK    4  A    between atoms: O_4  and  C_29
REMARK    5  A    between atoms: C_20  and  C_25
REMARK    6  A    between atoms: C_22  and  C_26
REMARK    7  A    between atoms: C_27  and  C_31
REMARK                            x       y       z     vdW  Elec       q    Type
REMARK                         _______ _______ _______ _____ _____    ______ ____
ROOT
ATOM      1  O   UNL     1     111.779 128.247 137.117  0.00  0.00    +0.000 OA
ATOM      2  O   UNL     1     113.849 127.730 135.861  0.00  0.00    +0.000 OA
ATOM      3  C   UNL     1     111.966 128.674 136.437  0.00  0.00    +0.000 C 
ATOM      4  C   UNL     1     112.595 126.583 138.366  0.00  0.00    +0.000 A 
ATOM      5  C   UNL     1     112.656 128.502 136.018  0.00  0.00    +0.000 C 
ATOM      6  C   UNL     1     112.281 127.647 137.379  0.00  0.00    +0.000 A 
ATOM      7  C   UNL     1     112.971 127.475 136.960  0.00  0.00    +0.000 A 
ATOM      8  C   UNL     1     112.075 127.209 138.088  0.00  0.00    +0.000 A 
ATOM      9  C   UNL     1     113.159 127.903 136.279  0.00  0.00    +0.000 C 
ATOM     10  C   UNL     1     113.313 126.404 137.930  0.00  0.00    +0.000 A 
ATOM     11  C   UNL     1     113.502 126.853 137.223  0.00  0.00    +0.000 A 
ENDROOT
BRANCH   3  13
ATOM     12  C   UNL     1     110.459 130.473 135.651  0.00  0.00    +0.000 A 
ATOM     13  C   UNL     1     111.464 129.274 136.175  0.00  0.00    +0.000 A 
ATOM     14  C   UNL     1     111.137 130.662 136.081  0.00  0.00    +0.000 A 
ATOM     15  C   UNL     1     110.284 129.686 135.482  0.00  0.00    +0.000 A 
ATOM     16  C   UNL     1     111.640 130.062 136.343  0.00  0.00    +0.000 A 
ATOM     17  C   UNL     1     110.786 129.086 135.744  0.00  0.00    +0.000 A 
BRANCH  12  18
ATOM     18  O   UNL     1     109.957 131.073 135.389  0.00  0.00    +0.000 OA
BRANCH  18  27
ATOM     19  O   UNL     1     109.338 131.418 136.629  0.00  0.00    +0.000 OA
ATOM     20  O   UNL     1     107.137 131.527 135.502  0.00  0.00    +0.000 OA
ATOM     21  O   UNL     1     107.252 131.836 137.119  0.00  0.00    +0.000 OA
ATOM     22  O   UNL     1     108.489 131.146 134.637  0.00  0.00    +0.000 OA
ATOM     23  C   UNL     1     107.871 131.491 135.878  0.00  0.00    +0.000 C 
ATOM     24  C   UNL     1     107.928 131.645 136.686  0.00  0.00    +0.000 C 
ATOM     25  C   UNL     1     108.547 131.300 135.445  0.00  0.00    +0.000 C 
ATOM     26  C   UNL     1     108.662 131.609 137.062  0.00  0.00    +0.000 C 
ATOM     27  C   UNL     1     109.280 131.263 135.821  0.00  0.00    +0.000 C 
BRANCH  26  29
ATOM     28  O   UNL     1     109.163 132.405 138.138  0.00  0.00    +0.000 OA
ATOM     29  C   UNL     1     108.719 131.763 137.871  0.00  0.00    +0.000 C 
ENDBRANCH  26  29
ENDBRANCH  18  27
ENDBRANCH  12  18
ENDBRANCH   3  13
BRANCH   4  30
ATOM     30  O   UNL     1     112.405 126.157 139.046  0.00  0.00    +0.000 OA
BRANCH  30  39
ATOM     31  O   UNL     1     113.153 126.929 139.987  0.00  0.00    +0.000 OA
ATOM     32  O   UNL     1     111.295 126.751 141.612  0.00  0.00    +0.000 OA
ATOM     33  O   UNL     1     112.662 127.582 142.011  0.00  0.00    +0.000 OA
ATOM     34  O   UNL     1     111.166 126.038 140.129  0.00  0.00    +0.000 OA
ATOM     35  C   UNL     1     111.914 126.810 141.070  0.00  0.00    +0.000 C 
ATOM     36  C   UNL     1     112.598 127.226 141.270  0.00  0.00    +0.000 C 
ATOM     37  C   UNL     1     111.849 126.454 140.329  0.00  0.00    +0.000 C 
ATOM     38  C   UNL     1     113.217 127.285 140.728  0.00  0.00    +0.000 C 
ATOM     39  C   UNL     1     112.469 126.513 139.787  0.00  0.00    +0.000 C 
BRANCH  38  41
ATOM     40  O   UNL     1     114.638 127.332 140.874  0.00  0.00    +0.000 OA
ATOM     41  C   UNL     1     113.901 127.701 140.928  0.00  0.00    +0.000 C 
ENDBRANCH  38  41
ENDBRANCH  30  39
ENDBRANCH   4  30
TORSDOF 7
ENDMDL
MODEL 8
REMARK VINA RESULT:      -9.6      7.468      9.031
REMARK  Name = 46869260
REMARK  7 active torsions:
REMARK  status: ('A' for Active; 'I' for Inactive)
REMARK    1  A    between atoms: O_3  and  C_23
REMARK    2  A    between atoms: O_3  and  C_28
REMARK    3  A    between atoms: O_4  and  C_24
REMARK    4  A    between atoms: O_4  and  C_29
REMARK    5  A    between atoms: C_20  and  C_25
REMARK    6  A    between atoms: C_22  and  C_26
REMARK    7  A    between atoms: C_27  and  C_31
REMARK                            x       y       z     vdW  Elec       q    Type
REMARK                         _______ _______ _______ _____ _____    ______ ____
ROOT
ATOM      1  O   UNL     1     103.376 131.076 142.112  0.00  0.00    +0.000 OA
ATOM      2  O   UNL     1     101.012 130.929 141.390  0.00  0.00    +0.000 OA
ATOM      3  C   UNL     1     103.052 130.346 141.904  0.00  0.00    +0.000 C 
ATOM      4  C   UNL     1     102.781 133.224 142.265  0.00  0.00    +0.000 A 
ATOM      5  C   UNL     1     102.264 130.297 141.664  0.00  0.00    +0.000 C 
ATOM      6  C   UNL     1     102.911 131.757 142.079  0.00  0.00    +0.000 A 
ATOM      7  C   UNL     1     102.123 131.708 141.838  0.00  0.00    +0.000 A 
ATOM      8  C   UNL     1     103.260 132.512 142.298  0.00  0.00    +0.000 A 
ATOM      9  C   UNL     1     101.800 130.978 141.631  0.00  0.00    +0.000 C 
ATOM     10  C   UNL     1     101.961 133.174 142.015  0.00  0.00    +0.000 A 
ATOM     11  C   UNL     1     101.630 132.411 141.800  0.00  0.00    +0.000 A 
ENDROOT
BRANCH   3  13
ATOM     12  C   UNL     1     104.444 128.302 142.002  0.00  0.00    +0.000 A 
ATOM     13  C   UNL     1     103.516 129.665 141.937  0.00  0.00    +0.000 A 
ATOM     14  C   UNL     1     104.298 128.735 142.690  0.00  0.00    +0.000 A 
ATOM     15  C   UNL     1     104.127 128.550 141.284  0.00  0.00    +0.000 A 
ATOM     16  C   UNL     1     103.834 129.416 142.657  0.00  0.00    +0.000 A 
ATOM     17  C   UNL     1     103.663 129.232 141.251  0.00  0.00    +0.000 A 
BRANCH  12  18
ATOM     18  O   UNL     1     104.908 127.621 142.035  0.00  0.00    +0.000 OA
BRANCH  18  27
ATOM     19  O   UNL     1     106.174 128.266 141.889  0.00  0.00    +0.000 OA
ATOM     20  O   UNL     1     107.180 126.657 143.478  0.00  0.00    +0.000 OA
ATOM     21  O   UNL     1     108.111 127.839 142.801  0.00  0.00    +0.000 OA
ATOM     22  O   UNL     1     105.578 126.547 143.096  0.00  0.00    +0.000 OA
ATOM     23  C   UNL     1     106.845 127.193 142.949  0.00  0.00    +0.000 C 
ATOM     24  C   UNL     1     107.310 127.784 142.610  0.00  0.00    +0.000 C 
ATOM     25  C   UNL     1     106.044 127.138 142.757  0.00  0.00    +0.000 C 
ATOM     26  C   UNL     1     106.975 128.321 142.080  0.00  0.00    +0.000 C 
ATOM     27  C   UNL     1     105.709 127.675 142.227  0.00  0.00    +0.000 C 
BRANCH  26  29
ATOM     28  O   UNL     1     107.401 129.056 140.931  0.00  0.00    +0.000 OA
ATOM     29  C   UNL     1     107.441 128.912 141.742  0.00  0.00    +0.000 C 
ENDBRANCH  26  29
ENDBRANCH  18  27
ENDBRANCH  12  18
ENDBRANCH   3  13
BRANCH   4  30
ATOM     30  O   UNL     1     103.107 133.953 142.474  0.00  0.00    +0.000 OA
BRANCH  30  39
ATOM     31  O   UNL     1     103.299 134.471 141.156  0.00  0.00    +0.000 OA
ATOM     32  O   UNL     1     105.477 135.421 141.846  0.00  0.00    +0.000 OA
ATOM     33  O   UNL     1     104.943 135.622 140.299  0.00  0.00    +0.000 OA
ATOM     34  O   UNL     1     104.559 134.587 142.934  0.00  0.00    +0.000 OA
ATOM     35  C   UNL     1     104.751 135.105 141.616  0.00  0.00    +0.000 C 
ATOM     36  C   UNL     1     104.484 135.205 140.842  0.00  0.00    +0.000 C 
ATOM     37  C   UNL     1     104.292 134.687 142.161  0.00  0.00    +0.000 C 
ATOM     38  C   UNL     1     103.758 134.888 140.612  0.00  0.00    +0.000 C 
ATOM     39  C   UNL     1     103.566 134.370 141.930  0.00  0.00    +0.000 C 
BRANCH  38  41
ATOM     40  O   UNL     1     102.746 135.317 139.699  0.00  0.00    +0.000 OA
ATOM     41  C   UNL     1     103.491 134.988 139.838  0.00  0.00    +0.000 C 
ENDBRANCH  38  41
ENDBRANCH  30  39
ENDBRANCH   4  30
TORSDOF 7
ENDMDL
MODEL 9
REMARK VINA RESULT:      -9.5      2.021      7.078
REMARK  Name = 46869260
REMARK  7 active torsions:
REMARK  status: ('A' for Active; 'I' for Inactive)
REMARK    1  A    between atoms: O_3  and  C_23
REMARK    2  A    between atoms: O_3  and  C_28
REMARK    3  A    between atoms: O_4  and  C_24
REMARK    4  A    between atoms: O_4  and  C_29
REMARK    5  A    between atoms: C_20  and  C_25
REMARK    6  A    between atoms: C_22  and  C_26
REMARK    7  A    between atoms: C_27  and  C_31
REMARK                            x       y       z     vdW  Elec       q    Type
REMARK                         _______ _______ _______ _____ _____    ______ ____
ROOT
ATOM      1  O   UNL     1     111.769 128.625 138.509  0.00  0.00    +0.000 OA
ATOM      2  O   UNL     1     113.758 129.190 139.870  0.00  0.00    +0.000 OA
ATOM      3  C   UNL     1     111.971 129.415 138.636  0.00  0.00    +0.000 C 
ATOM      4  C   UNL     1     112.486 126.574 139.032  0.00  0.00    +0.000 A 
ATOM      5  C   UNL     1     112.634 129.603 139.090  0.00  0.00    +0.000 C 
ATOM      6  C   UNL     1     112.230 128.023 138.835  0.00  0.00    +0.000 A 
ATOM      7  C   UNL     1     112.893 128.212 139.288  0.00  0.00    +0.000 A 
ATOM      8  C   UNL     1     112.009 127.205 138.695  0.00  0.00    +0.000 A 
ATOM      9  C   UNL     1     113.095 129.002 139.416  0.00  0.00    +0.000 C 
ATOM     10  C   UNL     1     113.176 126.770 139.504  0.00  0.00    +0.000 A 
ATOM     11  C   UNL     1     113.381 127.594 139.633  0.00  0.00    +0.000 A 
ENDROOT
BRANCH   3  13
ATOM     12  C   UNL     1     110.588 131.219 137.659  0.00  0.00    +0.000 A 
ATOM     13  C   UNL     1     111.510 130.016 138.310  0.00  0.00    +0.000 A 
ATOM     14  C   UNL     1     111.304 131.011 137.305  0.00  0.00    +0.000 A 
ATOM     15  C   UNL     1     110.333 130.827 138.338  0.00  0.00    +0.000 A 
ATOM     16  C   UNL     1     111.765 130.409 137.631  0.00  0.00    +0.000 A 
ATOM     17  C   UNL     1     110.794 130.225 138.664  0.00  0.00    +0.000 A 
BRANCH  12  18
ATOM     18  O   UNL     1     110.127 131.821 137.333  0.00  0.00    +0.000 OA
BRANCH  18  27
ATOM     19  O   UNL     1     109.318 130.946 136.545  0.00  0.00    +0.000 OA
ATOM     20  O   UNL     1     109.075 132.714 134.829  0.00  0.00    +0.000 OA
ATOM     21  O   UNL     1     108.347 131.249 134.614  0.00  0.00    +0.000 OA
ATOM     22  O   UNL     1     109.965 133.000 136.189  0.00  0.00    +0.000 OA
ATOM     23  C   UNL     1     109.156 132.125 135.401  0.00  0.00    +0.000 C 
ATOM     24  C   UNL     1     108.792 131.392 135.293  0.00  0.00    +0.000 C 
ATOM     25  C   UNL     1     109.601 132.268 136.081  0.00  0.00    +0.000 C 
ATOM     26  C   UNL     1     108.873 130.803 135.865  0.00  0.00    +0.000 C 
ATOM     27  C   UNL     1     109.682 131.679 136.653  0.00  0.00    +0.000 C 
BRANCH  26  29
ATOM     28  O   UNL     1     107.867 129.854 136.228  0.00  0.00    +0.000 OA
ATOM     29  C   UNL     1     108.508 130.070 135.757  0.00  0.00    +0.000 C 
ENDBRANCH  26  29
ENDBRANCH  18  27
ENDBRANCH  12  18
ENDBRANCH   3  13
BRANCH   4  30
ATOM     30  O   UNL     1     112.282 125.786 138.903  0.00  0.00    +0.000 OA
BRANCH  30  39
ATOM     31  O   UNL     1     113.297 125.443 137.958  0.00  0.00    +0.000 OA
ATOM     32  O   UNL     1     111.628 124.209 136.610  0.00  0.00    +0.000 OA
ATOM     33  O   UNL     1     113.200 124.278 136.115  0.00  0.00    +0.000 OA
ATOM     34  O   UNL     1     111.169 124.963 138.004  0.00  0.00    +0.000 OA
ATOM     35  C   UNL     1     112.185 124.620 137.059  0.00  0.00    +0.000 C 
ATOM     36  C   UNL     1     112.970 124.655 136.812  0.00  0.00    +0.000 C 
ATOM     37  C   UNL     1     111.954 124.997 137.756  0.00  0.00    +0.000 C 
ATOM     38  C   UNL     1     113.527 125.066 137.261  0.00  0.00    +0.000 C 
ATOM     39  C   UNL     1     112.511 125.409 138.206  0.00  0.00    +0.000 C 
BRANCH  38  41
ATOM     40  O   UNL     1     114.913 124.821 137.506  0.00  0.00    +0.000 OA
ATOM     41  C   UNL     1     114.313 125.101 137.013  0.00  0.00    +0.000 C 
ENDBRANCH  38  41
ENDBRANCH  30  39
ENDBRANCH   4  30
TORSDOF 7
ENDMDL
MODEL 10
REMARK VINA RESULT:      -9.5      2.836      6.052
REMARK  Name = 46869260
REMARK  7 active torsions:
REMARK  status: ('A' for Active; 'I' for Inactive)
REMARK    1  A    between atoms: O_3  and  C_23
REMARK    2  A    between atoms: O_3  and  C_28
REMARK    3  A    between atoms: O_4  and  C_24
REMARK    4  A    between atoms: O_4  and  C_29
REMARK    5  A    between atoms: C_20  and  C_25
REMARK    6  A    between atoms: C_22  and  C_26
REMARK    7  A    between atoms: C_27  and  C_31
REMARK                            x       y       z     vdW  Elec       q    Type
REMARK                         _______ _______ _______ _____ _____    ______ ____
ROOT
ATOM      1  O   UNL     1     112.117 126.777 138.313  0.00  0.00    +0.000 OA
ATOM      2  O   UNL     1     113.497 124.907 137.459  0.00  0.00    +0.000 OA
ATOM      3  C   UNL     1     112.877 126.655 138.610  0.00  0.00    +0.000 C 
ATOM      4  C   UNL     1     110.707 125.893 136.822  0.00  0.00    +0.000 A 
ATOM      5  C   UNL     1     113.337 126.032 138.326  0.00  0.00    +0.000 C 
ATOM      6  C   UNL     1     111.817 126.275 137.730  0.00  0.00    +0.000 A 
ATOM      7  C   UNL     1     112.278 125.652 137.446  0.00  0.00    +0.000 A 
ATOM      8  C   UNL     1     111.025 126.412 137.428  0.00  0.00    +0.000 A 
ATOM      9  C   UNL     1     113.037 125.530 137.744  0.00  0.00    +0.000 C 
ATOM     10  C   UNL     1     111.186 125.244 136.525  0.00  0.00    +0.000 A 
ATOM     11  C   UNL     1     111.976 125.123 136.839  0.00  0.00    +0.000 A 
ENDROOT
BRANCH   3  13
ATOM     12  C   UNL     1     113.778 128.158 140.358  0.00  0.00    +0.000 A 
ATOM     13  C   UNL     1     113.177 127.156 139.193  0.00  0.00    +0.000 A 
ATOM     14  C   UNL     1     113.640 128.446 139.597  0.00  0.00    +0.000 A 
ATOM     15  C   UNL     1     113.615 127.370 140.536  0.00  0.00    +0.000 A 
ATOM     16  C   UNL     1     113.340 127.945 139.014  0.00  0.00    +0.000 A 
ATOM     17  C   UNL     1     113.315 126.869 139.954  0.00  0.00    +0.000 A 
BRANCH  12  18
ATOM     18  O   UNL     1     114.078 128.659 140.940  0.00  0.00    +0.000 OA
BRANCH  18  27
ATOM     19  O   UNL     1     112.893 128.937 141.688  0.00  0.00    +0.000 OA
ATOM     20  O   UNL     1     113.465 131.345 141.705  0.00  0.00    +0.000 OA
ATOM     21  O   UNL     1     112.089 130.819 142.447  0.00  0.00    +0.000 OA
ATOM     22  O   UNL     1     114.460 130.266 140.951  0.00  0.00    +0.000 OA
ATOM     23  C   UNL     1     113.274 130.542 141.699  0.00  0.00    +0.000 C 
ATOM     24  C   UNL     1     112.586 130.279 142.071  0.00  0.00    +0.000 C 
ATOM     25  C   UNL     1     113.772 130.003 141.322  0.00  0.00    +0.000 C 
ATOM     26  C   UNL     1     112.395 129.476 142.065  0.00  0.00    +0.000 C 
ATOM     27  C   UNL     1     113.581 129.200 141.317  0.00  0.00    +0.000 C 
BRANCH  26  29
ATOM     28  O   UNL     1     111.743 128.602 142.989  0.00  0.00    +0.000 OA
ATOM     29  C   UNL     1     111.707 129.214 142.437  0.00  0.00    +0.000 C 
ENDBRANCH  26  29
ENDBRANCH  18  27
ENDBRANCH  12  18
ENDBRANCH   3  13
BRANCH   4  30
ATOM     30  O   UNL     1     109.947 126.017 136.526  0.00  0.00    +0.000 OA
BRANCH  30  39
ATOM     31  O   UNL     1     110.280 127.025 135.569  0.00  0.00    +0.000 OA
ATOM     32  O   UNL     1     108.190 128.233 136.116  0.00  0.00    +0.000 OA
ATOM     33  O   UNL     1     109.219 128.838 134.978  0.00  0.00    +0.000 OA
ATOM     34  O   UNL     1     108.554 126.823 136.890  0.00  0.00    +0.000 OA
ATOM     35  C   UNL     1     108.887 127.831 135.933  0.00  0.00    +0.000 C 
ATOM     36  C   UNL     1     109.401 128.133 135.365  0.00  0.00    +0.000 C 
ATOM     37  C   UNL     1     109.068 127.125 136.321  0.00  0.00    +0.000 C 
ATOM     38  C   UNL     1     110.097 127.731 135.182  0.00  0.00    +0.000 C 
ATOM     39  C   UNL     1     109.765 126.722 136.139  0.00  0.00    +0.000 C 
BRANCH  38  41
ATOM     40  O   UNL     1     111.373 128.270 134.830  0.00  0.00    +0.000 OA
ATOM     41  C   UNL     1     110.612 128.033 134.613  0.00  0.00    +0.000 C 
ENDBRANCH  38  41
ENDBRANCH  30  39
ENDBRANCH   4  30
TORSDOF 7
ENDMDL
