MODEL 1
REMARK VINA RESULT:     -11.3      0.000      0.000
REMARK  Name = 131751356
REMARK  8 active torsions:
REMARK  status: ('A' for Active; 'I' for Inactive)
REMARK    1  A    between atoms: O_2  and  C_15
REMARK    2  A    between atoms: O_5  and  C_21
REMARK    3  A    between atoms: O_5  and  C_29
REMARK    4  A    between atoms: C_18  and  C_20
REMARK    5  A    between atoms: C_19  and  C_21
REMARK    6  A    between atoms: C_29  and  C_33
REMARK    7  A    between atoms: C_31  and  C_32
REMARK    8  A    between atoms: C_36  and  C_39
REMARK                            x       y       z     vdW  Elec       q    Type
REMARK                         _______ _______ _______ _____ _____    ______ ____
ROOT
ATOM      1  O   UNL     1     106.189 125.966 142.573  0.00  0.00    +0.000 OA
ATOM      2  O   UNL     1     108.255 127.158 141.913  0.00  0.00    +0.000 OA
ATOM      3  O   UNL     1     107.415 126.281 140.795  0.00  0.00    +0.000 OA
ATOM      4  C   UNL     1     107.298 126.801 142.912  0.00  0.00    +0.000 C 
ATOM      5  C   UNL     1     107.567 126.760 142.133  0.00  0.00    +0.000 C 
ATOM      6  C   UNL     1     107.146 126.322 141.575  0.00  0.00    +0.000 C 
ATOM      7  C   UNL     1     106.458 125.925 141.795  0.00  0.00    +0.000 C 
ATOM      8  C   UNL     1     106.609 126.404 143.133  0.00  0.00    +0.000 C 
ENDROOT
BRANCH   7  13
ATOM      9  O   UNL     1     105.268 126.643 140.905  0.00  0.00    +0.000 OA
ATOM     10  O   UNL     1     106.809 124.329 141.567  0.00  0.00    +0.000 OA
ATOM     11  O   UNL     1     104.771 124.142 139.539  0.00  0.00    +0.000 OA
ATOM     12  O   UNL     1     104.239 126.591 139.896  0.00  0.00    +0.000 OA
ATOM     13  C   UNL     1     106.038 125.487 141.236  0.00  0.00    +0.000 A 
ATOM     14  C   UNL     1     105.444 125.845 140.791  0.00  0.00    +0.000 A 
ATOM     15  C   UNL     1     106.214 124.689 141.121  0.00  0.00    +0.000 A 
ATOM     16  C   UNL     1     105.024 125.407 140.232  0.00  0.00    +0.000 A 
ATOM     17  C   UNL     1     105.795 124.250 140.563  0.00  0.00    +0.000 A 
ATOM     18  C   UNL     1     105.200 124.609 140.118  0.00  0.00    +0.000 A 
ATOM     19  C   UNL     1     104.408 125.793 139.775  0.00  0.00    +0.000 A 
ATOM     20  C   UNL     1     103.967 125.341 139.191  0.00  0.00    +0.000 A 
ATOM     21  C   UNL     1     104.150 124.510 139.072  0.00  0.00    +0.000 A 
BRANCH  21  24
ATOM     22  O   UNL     1     104.101 122.991 136.652  0.00  0.00    +0.000 OA
ATOM     23  O   UNL     1     102.480 122.744 136.840  0.00  0.00    +0.000 OA
ATOM     24  C   UNL     1     103.732 124.068 138.513  0.00  0.00    +0.000 A 
ATOM     25  C   UNL     1     104.126 123.751 137.862  0.00  0.00    +0.000 A 
ATOM     26  C   UNL     1     102.923 123.946 138.608  0.00  0.00    +0.000 A 
ATOM     27  C   UNL     1     103.708 123.309 137.304  0.00  0.00    +0.000 A 
ATOM     28  C   UNL     1     102.505 123.504 138.050  0.00  0.00    +0.000 A 
ATOM     29  C   UNL     1     102.898 123.186 137.398  0.00  0.00    +0.000 A 
ENDBRANCH  21  24
ENDBRANCH   7  13
BRANCH   4  30
ATOM     30  O   UNL     1     107.718 127.240 143.471  0.00  0.00    +0.000 OA
ATOM     31  C   UNL     1     107.751 128.062 143.411  0.00  0.00    +0.000 C 
ENDBRANCH   4  30
BRANCH   8  32
ATOM     32  C   UNL     1     106.341 126.445 143.911  0.00  0.00    +0.000 C 
BRANCH  32  33
ATOM     33  O   UNL     1     106.085 125.762 144.297  0.00  0.00    +0.000 OA
BRANCH  33  35
ATOM     34  O   UNL     1     105.059 126.110 145.228  0.00  0.00    +0.000 OA
ATOM     35  C   UNL     1     105.809 125.804 145.073  0.00  0.00    +0.000 C 
BRANCH  35  36
ATOM     36  C   UNL     1     106.284 125.541 145.694  0.00  0.00    +0.000 C 
ATOM     37  C   UNL     1     105.993 125.545 146.466  0.00  0.00    +0.000 C 
BRANCH  37  40
ATOM     38  O   UNL     1     106.303 124.055 148.885  0.00  0.00    +0.000 OA
ATOM     39  O   UNL     1     107.893 124.493 148.951  0.00  0.00    +0.000 OA
ATOM     40  C   UNL     1     106.468 125.282 147.087  0.00  0.00    +0.000 A 
ATOM     41  C   UNL     1     106.148 124.800 147.675  0.00  0.00    +0.000 A 
ATOM     42  C   UNL     1     107.262 125.501 147.121  0.00  0.00    +0.000 A 
ATOM     43  C   UNL     1     106.623 124.536 148.297  0.00  0.00    +0.000 A 
ATOM     44  C   UNL     1     107.738 125.238 147.742  0.00  0.00    +0.000 A 
ATOM     45  C   UNL     1     107.417 124.756 148.330  0.00  0.00    +0.000 A 
ENDBRANCH  37  40
ENDBRANCH  35  36
ENDBRANCH  33  35
ENDBRANCH  32  33
ENDBRANCH   8  32
TORSDOF 8
ENDMDL
MODEL 2
REMARK VINA RESULT:     -11.0      3.472      4.860
REMARK  Name = 131751356
REMARK  8 active torsions:
REMARK  status: ('A' for Active; 'I' for Inactive)
REMARK    1  A    between atoms: O_2  and  C_15
REMARK    2  A    between atoms: O_5  and  C_21
REMARK    3  A    between atoms: O_5  and  C_29
REMARK    4  A    between atoms: C_18  and  C_20
REMARK    5  A    between atoms: C_19  and  C_21
REMARK    6  A    between atoms: C_29  and  C_33
REMARK    7  A    between atoms: C_31  and  C_32
REMARK    8  A    between atoms: C_36  and  C_39
REMARK                            x       y       z     vdW  Elec       q    Type
REMARK                         _______ _______ _______ _____ _____    ______ ____
ROOT
ATOM      1  O   UNL     1     105.517 126.959 142.819  0.00  0.00    +0.000 OA
ATOM      2  O   UNL     1     107.537 126.933 141.389  0.00  0.00    +0.000 OA
ATOM      3  O   UNL     1     106.540 128.249 141.387  0.00  0.00    +0.000 OA
ATOM      4  C   UNL     1     106.688 126.292 142.344  0.00  0.00    +0.000 C 
ATOM      5  C   UNL     1     106.863 126.942 141.866  0.00  0.00    +0.000 C 
ATOM      6  C   UNL     1     106.365 127.599 141.865  0.00  0.00    +0.000 C 
ATOM      7  C   UNL     1     105.692 127.607 142.342  0.00  0.00    +0.000 C 
ATOM      8  C   UNL     1     106.015 126.301 142.821  0.00  0.00    +0.000 C 
ENDROOT
BRANCH   7  13
ATOM      9  O   UNL     1     104.516 127.751 141.193  0.00  0.00    +0.000 OA
ATOM     10  O   UNL     1     105.873 128.780 143.488  0.00  0.00    +0.000 OA
ATOM     11  O   UNL     1     103.688 130.272 142.348  0.00  0.00    +0.000 OA
ATOM     12  O   UNL     1     103.418 128.467 140.593  0.00  0.00    +0.000 OA
ATOM     13  C   UNL     1     105.194 128.266 142.340  0.00  0.00    +0.000 A 
ATOM     14  C   UNL     1     104.607 128.338 141.767  0.00  0.00    +0.000 A 
ATOM     15  C   UNL     1     105.285 128.852 142.913  0.00  0.00    +0.000 A 
ATOM     16  C   UNL     1     104.109 128.996 141.765  0.00  0.00    +0.000 A 
ATOM     17  C   UNL     1     104.788 129.510 142.913  0.00  0.00    +0.000 A 
ATOM     18  C   UNL     1     104.199 129.582 142.338  0.00  0.00    +0.000 A 
ATOM     19  C   UNL     1     103.501 129.059 141.162  0.00  0.00    +0.000 A 
ATOM     20  C   UNL     1     102.979 129.743 141.155  0.00  0.00    +0.000 A 
ATOM     21  C   UNL     1     103.074 130.353 141.752  0.00  0.00    +0.000 A 
BRANCH  21  24
ATOM     22  O   UNL     1     102.612 133.105 141.132  0.00  0.00    +0.000 OA
ATOM     23  O   UNL     1     101.091 132.991 141.760  0.00  0.00    +0.000 OA
ATOM     24  C   UNL     1     102.578 131.013 141.754  0.00  0.00    +0.000 A 
ATOM     25  C   UNL     1     102.843 131.729 141.442  0.00  0.00    +0.000 A 
ATOM     26  C   UNL     1     101.818 130.955 142.068  0.00  0.00    +0.000 A 
ATOM     27  C   UNL     1     102.347 132.388 141.444  0.00  0.00    +0.000 A 
ATOM     28  C   UNL     1     101.322 131.615 142.070  0.00  0.00    +0.000 A 
ATOM     29  C   UNL     1     101.586 132.331 141.758  0.00  0.00    +0.000 A 
ENDBRANCH  21  24
ENDBRANCH   7  13
BRANCH   4  30
ATOM     30  O   UNL     1     107.186 125.635 142.345  0.00  0.00    +0.000 OA
ATOM     31  C   UNL     1     107.276 125.184 141.660  0.00  0.00    +0.000 C 
ENDBRANCH   4  30
BRANCH   8  32
ATOM     32  C   UNL     1     105.840 125.652 143.299  0.00  0.00    +0.000 C 
BRANCH  32  33
ATOM     33  O   UNL     1     105.603 125.766 144.081  0.00  0.00    +0.000 OA
BRANCH  33  35
ATOM     34  O   UNL     1     104.967 124.529 144.406  0.00  0.00    +0.000 OA
ATOM     35  C   UNL     1     105.515 125.119 144.584  0.00  0.00    +0.000 C 
BRANCH  35  36
ATOM     36  C   UNL     1     105.975 125.062 145.267  0.00  0.00    +0.000 C 
ATOM     37  C   UNL     1     105.619 125.105 146.010  0.00  0.00    +0.000 C 
BRANCH  37  40
ATOM     38  O   UNL     1     105.896 124.349 148.752  0.00  0.00    +0.000 OA
ATOM     39  O   UNL     1     107.460 124.876 148.739  0.00  0.00    +0.000 OA
ATOM     40  C   UNL     1     106.079 125.048 146.692  0.00  0.00    +0.000 A 
ATOM     41  C   UNL     1     105.758 124.727 147.381  0.00  0.00    +0.000 A 
ATOM     42  C   UNL     1     106.861 125.311 146.686  0.00  0.00    +0.000 A 
ATOM     43  C   UNL     1     106.218 124.670 148.063  0.00  0.00    +0.000 A 
ATOM     44  C   UNL     1     107.321 125.254 147.368  0.00  0.00    +0.000 A 
ATOM     45  C   UNL     1     106.999 124.933 148.057  0.00  0.00    +0.000 A 
ENDBRANCH  37  40
ENDBRANCH  35  36
ENDBRANCH  33  35
ENDBRANCH  32  33
ENDBRANCH   8  32
TORSDOF 8
ENDMDL
MODEL 3
REMARK VINA RESULT:     -10.8      8.037      9.295
REMARK  Name = 131751356
REMARK  8 active torsions:
REMARK  status: ('A' for Active; 'I' for Inactive)
REMARK    1  A    between atoms: O_2  and  C_15
REMARK    2  A    between atoms: O_5  and  C_21
REMARK    3  A    between atoms: O_5  and  C_29
REMARK    4  A    between atoms: C_18  and  C_20
REMARK    5  A    between atoms: C_19  and  C_21
REMARK    6  A    between atoms: C_29  and  C_33
REMARK    7  A    between atoms: C_31  and  C_32
REMARK    8  A    between atoms: C_36  and  C_39
REMARK                            x       y       z     vdW  Elec       q    Type
REMARK                         _______ _______ _______ _____ _____    ______ ____
ROOT
ATOM      1  O   UNL     1     112.569 127.102 138.051  0.00  0.00    +0.000 OA
ATOM      2  O   UNL     1     113.080 125.153 136.613  0.00  0.00    +0.000 OA
ATOM      3  O   UNL     1     111.982 126.280 136.116  0.00  0.00    +0.000 OA
ATOM      4  C   UNL     1     113.288 125.889 137.821  0.00  0.00    +0.000 C 
ATOM      5  C   UNL     1     112.909 125.803 137.093  0.00  0.00    +0.000 C 
ATOM      6  C   UNL     1     112.360 126.366 136.845  0.00  0.00    +0.000 C 
ATOM      7  C   UNL     1     112.190 127.016 137.324  0.00  0.00    +0.000 C 
ATOM      8  C   UNL     1     113.118 126.539 138.300  0.00  0.00    +0.000 C 
ENDROOT
BRANCH   7  13
ATOM      9  O   UNL     1     112.698 128.372 136.533  0.00  0.00    +0.000 OA
ATOM     10  O   UNL     1     110.583 126.785 137.616  0.00  0.00    +0.000 OA
ATOM     11  O   UNL     1     109.959 129.283 136.322  0.00  0.00    +0.000 OA
ATOM     12  O   UNL     1     112.428 129.629 135.878  0.00  0.00    +0.000 OA
ATOM     13  C   UNL     1     111.641 127.579 137.074  0.00  0.00    +0.000 A 
ATOM     14  C   UNL     1     111.894 128.257 136.679  0.00  0.00    +0.000 A 
ATOM     15  C   UNL     1     110.837 127.464 137.221  0.00  0.00    +0.000 A 
ATOM     16  C   UNL     1     111.345 128.820 136.430  0.00  0.00    +0.000 A 
ATOM     17  C   UNL     1     110.287 128.026 136.972  0.00  0.00    +0.000 A 
ATOM     18  C   UNL     1     110.542 128.704 136.576  0.00  0.00    +0.000 A 
ATOM     19  C   UNL     1     111.622 129.522 136.020  0.00  0.00    +0.000 A 
ATOM     20  C   UNL     1     111.054 130.112 135.758  0.00  0.00    +0.000 A 
ATOM     21  C   UNL     1     110.218 129.991 135.910  0.00  0.00    +0.000 A 
BRANCH  21  24
ATOM     22  O   UNL     1     108.371 132.086 136.521  0.00  0.00    +0.000 OA
ATOM     23  O   UNL     1     108.008 132.233 134.918  0.00  0.00    +0.000 OA
ATOM     24  C   UNL     1     109.665 130.552 135.662  0.00  0.00    +0.000 A 
ATOM     25  C   UNL     1     109.294 131.039 136.216  0.00  0.00    +0.000 A 
ATOM     26  C   UNL     1     109.484 130.625 134.861  0.00  0.00    +0.000 A 
ATOM     27  C   UNL     1     108.742 131.599 135.968  0.00  0.00    +0.000 A 
ATOM     28  C   UNL     1     108.932 131.185 134.613  0.00  0.00    +0.000 A 
ATOM     29  C   UNL     1     108.561 131.672 135.166  0.00  0.00    +0.000 A 
ENDBRANCH  21  24
ENDBRANCH   7  13
BRANCH   4  30
ATOM     30  O   UNL     1     113.837 125.326 138.069  0.00  0.00    +0.000 OA
ATOM     31  C   UNL     1     114.533 125.210 137.641  0.00  0.00    +0.000 C 
ENDBRANCH   4  30
BRANCH   8  32
ATOM     32  C   UNL     1     113.496 126.625 139.027  0.00  0.00    +0.000 C 
BRANCH  32  33
ATOM     33  O   UNL     1     113.222 127.180 139.573  0.00  0.00    +0.000 OA
BRANCH  33  35
ATOM     34  O   UNL     1     113.792 126.813 140.830  0.00  0.00    +0.000 OA
ATOM     35  C   UNL     1     113.678 127.371 140.233  0.00  0.00    +0.000 C 
BRANCH  35  36
ATOM     36  C   UNL     1     114.021 128.119 140.297  0.00  0.00    +0.000 C 
ATOM     37  C   UNL     1     113.683 128.687 140.789  0.00  0.00    +0.000 C 
BRANCH  37  40
ATOM     38  O   UNL     1     113.610 131.368 141.777  0.00  0.00    +0.000 OA
ATOM     39  O   UNL     1     115.055 131.677 141.043  0.00  0.00    +0.000 OA
ATOM     40  C   UNL     1     114.025 129.435 140.853  0.00  0.00    +0.000 A 
ATOM     41  C   UNL     1     113.646 130.028 141.283  0.00  0.00    +0.000 A 
ATOM     42  C   UNL     1     114.748 129.590 140.486  0.00  0.00    +0.000 A 
ATOM     43  C   UNL     1     113.989 130.775 141.347  0.00  0.00    +0.000 A 
ATOM     44  C   UNL     1     115.091 130.337 140.549  0.00  0.00    +0.000 A 
ATOM     45  C   UNL     1     114.712 130.930 140.980  0.00  0.00    +0.000 A 
ENDBRANCH  37  40
ENDBRANCH  35  36
ENDBRANCH  33  35
ENDBRANCH  32  33
ENDBRANCH   8  32
TORSDOF 8
ENDMDL
MODEL 4
REMARK VINA RESULT:     -10.8      3.703      6.755
REMARK  Name = 131751356
REMARK  8 active torsions:
REMARK  status: ('A' for Active; 'I' for Inactive)
REMARK    1  A    between atoms: O_2  and  C_15
REMARK    2  A    between atoms: O_5  and  C_21
REMARK    3  A    between atoms: O_5  and  C_29
REMARK    4  A    between atoms: C_18  and  C_20
REMARK    5  A    between atoms: C_19  and  C_21
REMARK    6  A    between atoms: C_29  and  C_33
REMARK    7  A    between atoms: C_31  and  C_32
REMARK    8  A    between atoms: C_36  and  C_39
REMARK                            x       y       z     vdW  Elec       q    Type
REMARK                         _______ _______ _______ _____ _____    ______ ____
ROOT
ATOM      1  O   UNL     1     107.939 125.885 140.952  0.00  0.00    +0.000 OA
ATOM      2  O   UNL     1     108.119 127.982 142.256  0.00  0.00    +0.000 OA
ATOM      3  O   UNL     1     109.365 127.504 141.286  0.00  0.00    +0.000 OA
ATOM      4  C   UNL     1     107.375 126.823 141.872  0.00  0.00    +0.000 C 
ATOM      5  C   UNL     1     108.059 127.283 141.821  0.00  0.00    +0.000 C 
ATOM      6  C   UNL     1     108.682 127.043 141.336  0.00  0.00    +0.000 C 
ATOM      7  C   UNL     1     108.622 126.345 140.902  0.00  0.00    +0.000 C 
ATOM      8  C   UNL     1     107.315 126.124 141.437  0.00  0.00    +0.000 C 
ENDROOT
BRANCH   7  13
ATOM      9  O   UNL     1     108.596 126.695 139.290  0.00  0.00    +0.000 OA
ATOM     10  O   UNL     1     109.895 125.516 141.546  0.00  0.00    +0.000 OA
ATOM     11  O   UNL     1     111.148 125.374 138.955  0.00  0.00    +0.000 OA
ATOM     12  O   UNL     1     109.190 126.646 137.976  0.00  0.00    +0.000 OA
ATOM     13  C   UNL     1     109.245 126.106 140.417  0.00  0.00    +0.000 A 
ATOM     14  C   UNL     1     109.233 126.281 139.612  0.00  0.00    +0.000 A 
ATOM     15  C   UNL     1     109.882 125.692 140.739  0.00  0.00    +0.000 A 
ATOM     16  C   UNL     1     109.856 126.043 139.127  0.00  0.00    +0.000 A 
ATOM     17  C   UNL     1     110.506 125.453 140.255  0.00  0.00    +0.000 A 
ATOM     18  C   UNL     1     110.493 125.629 139.449  0.00  0.00    +0.000 A 
ATOM     19  C   UNL     1     109.831 126.231 138.289  0.00  0.00    +0.000 A 
ATOM     20  C   UNL     1     110.478 125.985 137.779  0.00  0.00    +0.000 A 
ATOM     21  C   UNL     1     111.141 125.554 138.114  0.00  0.00    +0.000 A 
BRANCH  21  24
ATOM     22  O   UNL     1     113.636 126.109 136.836  0.00  0.00    +0.000 OA
ATOM     23  O   UNL     1     113.643 124.592 136.189  0.00  0.00    +0.000 OA
ATOM     24  C   UNL     1     111.767 125.314 137.633  0.00  0.00    +0.000 A 
ATOM     25  C   UNL     1     112.389 125.832 137.475  0.00  0.00    +0.000 A 
ATOM     26  C   UNL     1     111.769 124.555 137.310  0.00  0.00    +0.000 A 
ATOM     27  C   UNL     1     113.014 125.591 136.994  0.00  0.00    +0.000 A 
ATOM     28  C   UNL     1     112.394 124.314 136.829  0.00  0.00    +0.000 A 
ATOM     29  C   UNL     1     113.017 124.832 136.671  0.00  0.00    +0.000 A 
ENDBRANCH  21  24
ENDBRANCH   7  13
BRANCH   4  30
ATOM     30  O   UNL     1     106.753 127.062 142.357  0.00  0.00    +0.000 OA
ATOM     31  C   UNL     1     106.345 127.760 142.191  0.00  0.00    +0.000 C 
ENDBRANCH   4  30
BRANCH   8  32
ATOM     32  C   UNL     1     106.633 125.665 141.488  0.00  0.00    +0.000 C 
BRANCH  32  33
ATOM     33  O   UNL     1     106.532 125.017 140.986  0.00  0.00    +0.000 OA
BRANCH  33  35
ATOM     34  O   UNL     1     105.649 124.180 141.734  0.00  0.00    +0.000 OA
ATOM     35  C   UNL     1     105.845 124.563 141.031  0.00  0.00    +0.000 C 
BRANCH  35  36
ATOM     36  C   UNL     1     105.353 124.493 140.372  0.00  0.00    +0.000 C 
ATOM     37  C   UNL     1     105.007 123.767 140.191  0.00  0.00    +0.000 C 
BRANCH  37  40
ATOM     38  O   UNL     1     102.395 123.458 139.072  0.00  0.00    +0.000 OA
ATOM     39  O   UNL     1     103.043 123.484 137.554  0.00  0.00    +0.000 OA
ATOM     40  C   UNL     1     104.515 123.696 139.532  0.00  0.00    +0.000 A 
ATOM     41  C   UNL     1     103.701 123.613 139.631  0.00  0.00    +0.000 A 
ATOM     42  C   UNL     1     104.839 123.708 138.773  0.00  0.00    +0.000 A 
ATOM     43  C   UNL     1     103.209 123.542 138.972  0.00  0.00    +0.000 A 
ATOM     44  C   UNL     1     104.349 123.638 138.114  0.00  0.00    +0.000 A 
ATOM     45  C   UNL     1     103.533 123.554 138.214  0.00  0.00    +0.000 A 
ENDBRANCH  37  40
ENDBRANCH  35  36
ENDBRANCH  33  35
ENDBRANCH  32  33
ENDBRANCH   8  32
TORSDOF 8
ENDMDL
MODEL 5
REMARK VINA RESULT:     -10.7      7.148     10.761
REMARK  Name = 131751356
REMARK  8 active torsions:
REMARK  status: ('A' for Active; 'I' for Inactive)
REMARK    1  A    between atoms: O_2  and  C_15
REMARK    2  A    between atoms: O_5  and  C_21
REMARK    3  A    between atoms: O_5  and  C_29
REMARK    4  A    between atoms: C_18  and  C_20
REMARK    5  A    between atoms: C_19  and  C_21
REMARK    6  A    between atoms: C_29  and  C_33
REMARK    7  A    between atoms: C_31  and  C_32
REMARK    8  A    between atoms: C_36  and  C_39
REMARK                            x       y       z     vdW  Elec       q    Type
REMARK                         _______ _______ _______ _____ _____    ______ ____
ROOT
ATOM      1  O   UNL     1     113.276 129.343 137.605  0.00  0.00    +0.000 OA
ATOM      2  O   UNL     1     113.568 131.506 136.438  0.00  0.00    +0.000 OA
ATOM      3  O   UNL     1     112.984 131.473 137.981  0.00  0.00    +0.000 OA
ATOM      4  C   UNL     1     113.665 130.080 136.445  0.00  0.00    +0.000 C 
ATOM      5  C   UNL     1     113.470 130.785 136.827  0.00  0.00    +0.000 C 
ATOM      6  C   UNL     1     113.179 130.768 137.599  0.00  0.00    +0.000 C 
ATOM      7  C   UNL     1     113.082 130.047 137.988  0.00  0.00    +0.000 C 
ATOM      8  C   UNL     1     113.568 129.359 136.834  0.00  0.00    +0.000 C 
ENDROOT
BRANCH   7  13
ATOM      9  O   UNL     1     114.124 130.080 139.266  0.00  0.00    +0.000 OA
ATOM     10  O   UNL     1     111.454 129.983 138.251  0.00  0.00    +0.000 OA
ATOM     11  O   UNL     1     111.887 129.983 141.100  0.00  0.00    +0.000 OA
ATOM     12  O   UNL     1     114.383 130.082 140.685  0.00  0.00    +0.000 OA
ATOM     13  C   UNL     1     112.789 130.031 138.759  0.00  0.00    +0.000 A 
ATOM     14  C   UNL     1     113.310 130.048 139.398  0.00  0.00    +0.000 A 
ATOM     15  C   UNL     1     111.976 129.999 138.891  0.00  0.00    +0.000 A 
ATOM     16  C   UNL     1     113.018 130.032 140.170  0.00  0.00    +0.000 A 
ATOM     17  C   UNL     1     111.683 129.983 139.662  0.00  0.00    +0.000 A 
ATOM     18  C   UNL     1     112.204 130.000 140.302  0.00  0.00    +0.000 A 
ATOM     19  C   UNL     1     113.571 130.050 140.827  0.00  0.00    +0.000 A 
ATOM     20  C   UNL     1     113.272 130.033 141.633  0.00  0.00    +0.000 A 
ATOM     21  C   UNL     1     112.425 130.000 141.770  0.00  0.00    +0.000 A 
BRANCH  21  24
ATOM     22  O   UNL     1     111.460 128.528 144.022  0.00  0.00    +0.000 OA
ATOM     23  O   UNL     1     111.241 129.937 144.850  0.00  0.00    +0.000 OA
ATOM     24  C   UNL     1     112.129 129.984 142.541  0.00  0.00    +0.000 A 
ATOM     25  C   UNL     1     111.942 129.263 142.896  0.00  0.00    +0.000 A 
ATOM     26  C   UNL     1     112.020 130.689 142.954  0.00  0.00    +0.000 A 
ATOM     27  C   UNL     1     111.646 129.248 143.666  0.00  0.00    +0.000 A 
ATOM     28  C   UNL     1     111.724 130.674 143.724  0.00  0.00    +0.000 A 
ATOM     29  C   UNL     1     111.537 129.953 144.080  0.00  0.00    +0.000 A 
ENDBRANCH  21  24
ENDBRANCH   7  13
BRANCH   4  30
ATOM     30  O   UNL     1     113.957 130.097 135.673  0.00  0.00    +0.000 OA
ATOM     31  C   UNL     1     114.682 130.458 135.514  0.00  0.00    +0.000 C 
ENDBRANCH   4  30
BRANCH   8  32
ATOM     32  C   UNL     1     113.763 128.655 136.451  0.00  0.00    +0.000 C 
BRANCH  32  33
ATOM     33  O   UNL     1     113.545 127.931 136.782  0.00  0.00    +0.000 OA
BRANCH  33  35
ATOM     34  O   UNL     1     114.503 127.197 136.019  0.00  0.00    +0.000 OA
ATOM     35  C   UNL     1     113.789 127.226 136.431  0.00  0.00    +0.000 C 
BRANCH  35  36
ATOM     36  C   UNL     1     113.320 126.550 136.491  0.00  0.00    +0.000 C 
ATOM     37  C   UNL     1     113.585 125.901 136.924  0.00  0.00    +0.000 C 
BRANCH  37  40
ATOM     38  O   UNL     1     111.353 124.529 138.067  0.00  0.00    +0.000 OA
ATOM     39  O   UNL     1     111.711 123.195 137.163  0.00  0.00    +0.000 OA
ATOM     40  C   UNL     1     113.116 125.225 136.984  0.00  0.00    +0.000 A 
ATOM     41  C   UNL     1     112.469 125.215 137.495  0.00  0.00    +0.000 A 
ATOM     42  C   UNL     1     113.295 124.558 136.533  0.00  0.00    +0.000 A 
ATOM     43  C   UNL     1     112.000 124.539 137.556  0.00  0.00    +0.000 A 
ATOM     44  C   UNL     1     112.827 123.881 136.592  0.00  0.00    +0.000 A 
ATOM     45  C   UNL     1     112.179 123.872 137.104  0.00  0.00    +0.000 A 
ENDBRANCH  37  40
ENDBRANCH  35  36
ENDBRANCH  33  35
ENDBRANCH  32  33
ENDBRANCH   8  32
TORSDOF 8
ENDMDL
MODEL 6
REMARK VINA RESULT:     -10.7      6.445      9.882
REMARK  Name = 131751356
REMARK  8 active torsions:
REMARK  status: ('A' for Active; 'I' for Inactive)
REMARK    1  A    between atoms: O_2  and  C_15
REMARK    2  A    between atoms: O_5  and  C_21
REMARK    3  A    between atoms: O_5  and  C_29
REMARK    4  A    between atoms: C_18  and  C_20
REMARK    5  A    between atoms: C_19  and  C_21
REMARK    6  A    between atoms: C_29  and  C_33
REMARK    7  A    between atoms: C_31  and  C_32
REMARK    8  A    between atoms: C_36  and  C_39
REMARK                            x       y       z     vdW  Elec       q    Type
REMARK                         _______ _______ _______ _____ _____    ______ ____
ROOT
ATOM      1  O   UNL     1     109.125 130.404 137.679  0.00  0.00    +0.000 OA
ATOM      2  O   UNL     1     109.032 132.719 136.809  0.00  0.00    +0.000 OA
ATOM      3  O   UNL     1     109.457 132.444 138.379  0.00  0.00    +0.000 OA
ATOM      4  C   UNL     1     108.881 131.312 136.603  0.00  0.00    +0.000 C 
ATOM      5  C   UNL     1     109.063 131.947 137.099  0.00  0.00    +0.000 C 
ATOM      6  C   UNL     1     109.276 131.809 137.884  0.00  0.00    +0.000 C 
ATOM      7  C   UNL     1     109.306 131.037 138.174  0.00  0.00    +0.000 C 
ATOM      8  C   UNL     1     108.912 130.541 136.893  0.00  0.00    +0.000 C 
ENDROOT
BRANCH   7  13
ATOM      9  O   UNL     1     110.889 130.791 138.570  0.00  0.00    +0.000 OA
ATOM     10  O   UNL     1     108.148 131.010 139.348  0.00  0.00    +0.000 OA
ATOM     11  O   UNL     1     110.151 130.486 141.352  0.00  0.00    +0.000 OA
ATOM     12  O   UNL     1     111.922 130.529 139.543  0.00  0.00    +0.000 OA
ATOM     13  C   UNL     1     109.519 130.901 138.959  0.00  0.00    +0.000 A 
ATOM     14  C   UNL     1     110.310 130.778 139.158  0.00  0.00    +0.000 A 
ATOM     15  C   UNL     1     108.940 130.887 139.546  0.00  0.00    +0.000 A 
ATOM     16  C   UNL     1     110.522 130.641 139.943  0.00  0.00    +0.000 A 
ATOM     17  C   UNL     1     109.151 130.750 140.332  0.00  0.00    +0.000 A 
ATOM     18  C   UNL     1     109.943 130.627 140.530  0.00  0.00    +0.000 A 
ATOM     19  C   UNL     1     111.349 130.514 140.137  0.00  0.00    +0.000 A 
ATOM     20  C   UNL     1     111.577 130.371 140.953  0.00  0.00    +0.000 A 
ATOM     21  C   UNL     1     110.974 130.357 141.565  0.00  0.00    +0.000 A 
BRANCH  21  24
ATOM     22  O   UNL     1     111.423 128.544 143.728  0.00  0.00    +0.000 OA
ATOM     23  O   UNL     1     111.807 129.812 144.711  0.00  0.00    +0.000 OA
ATOM     24  C   UNL     1     111.182 130.220 142.352  0.00  0.00    +0.000 A 
ATOM     25  C   UNL     1     111.198 129.450 142.646  0.00  0.00    +0.000 A 
ATOM     26  C   UNL     1     111.374 130.854 142.842  0.00  0.00    +0.000 A 
ATOM     27  C   UNL     1     111.407 129.314 143.433  0.00  0.00    +0.000 A 
ATOM     28  C   UNL     1     111.582 130.719 143.629  0.00  0.00    +0.000 A 
ATOM     29  C   UNL     1     111.599 129.949 143.924  0.00  0.00    +0.000 A 
ENDBRANCH  21  24
ENDBRANCH   7  13
BRANCH   4  30
ATOM     30  O   UNL     1     108.669 131.451 135.818  0.00  0.00    +0.000 OA
ATOM     31  C   UNL     1     107.980 131.870 135.644  0.00  0.00    +0.000 C 
ENDBRANCH   4  30
BRANCH   8  32
ATOM     32  C   UNL     1     108.731 129.907 136.398  0.00  0.00    +0.000 C 
BRANCH  32  33
ATOM     33  O   UNL     1     108.912 129.136 136.630  0.00  0.00    +0.000 OA
BRANCH  33  35
ATOM     34  O   UNL     1     108.020 128.471 135.735  0.00  0.00    +0.000 OA
ATOM     35  C   UNL     1     108.744 128.504 136.128  0.00  0.00    +0.000 C 
BRANCH  35  36
ATOM     36  C   UNL     1     109.300 127.904 136.019  0.00  0.00    +0.000 C 
ATOM     37  C   UNL     1     109.066 127.114 136.048  0.00  0.00    +0.000 C 
BRANCH  37  40
ATOM     38  O   UNL     1     110.969 125.275 137.128  0.00  0.00    +0.000 OA
ATOM     39  O   UNL     1     111.289 124.714 135.609  0.00  0.00    +0.000 OA
ATOM     40  C   UNL     1     109.622 126.514 135.939  0.00  0.00    +0.000 A 
ATOM     41  C   UNL     1     110.018 126.194 136.588  0.00  0.00    +0.000 A 
ATOM     42  C   UNL     1     109.782 126.234 135.180  0.00  0.00    +0.000 A 
ATOM     43  C   UNL     1     110.574 125.594 136.479  0.00  0.00    +0.000 A 
ATOM     44  C   UNL     1     110.338 125.634 135.069  0.00  0.00    +0.000 A 
ATOM     45  C   UNL     1     110.734 125.314 135.719  0.00  0.00    +0.000 A 
ENDBRANCH  37  40
ENDBRANCH  35  36
ENDBRANCH  33  35
ENDBRANCH  32  33
ENDBRANCH   8  32
TORSDOF 8
ENDMDL
MODEL 7
REMARK VINA RESULT:     -10.6      1.434      2.529
REMARK  Name = 131751356
REMARK  8 active torsions:
REMARK  status: ('A' for Active; 'I' for Inactive)
REMARK    1  A    between atoms: O_2  and  C_15
REMARK    2  A    between atoms: O_5  and  C_21
REMARK    3  A    between atoms: O_5  and  C_29
REMARK    4  A    between atoms: C_18  and  C_20
REMARK    5  A    between atoms: C_19  and  C_21
REMARK    6  A    between atoms: C_29  and  C_33
REMARK    7  A    between atoms: C_31  and  C_32
REMARK    8  A    between atoms: C_36  and  C_39
REMARK                            x       y       z     vdW  Elec       q    Type
REMARK                         _______ _______ _______ _____ _____    ______ ____
ROOT
ATOM      1  O   UNL     1     106.915 127.871 144.043  0.00  0.00    +0.000 OA
ATOM      2  O   UNL     1     108.306 129.694 143.112  0.00  0.00    +0.000 OA
ATOM      3  O   UNL     1     107.530 128.648 142.098  0.00  0.00    +0.000 OA
ATOM      4  C   UNL     1     107.767 129.001 144.240  0.00  0.00    +0.000 C 
ATOM      5  C   UNL     1     107.843 129.086 143.422  0.00  0.00    +0.000 C 
ATOM      6  C   UNL     1     107.454 128.563 142.916  0.00  0.00    +0.000 C 
ATOM      7  C   UNL     1     106.990 127.956 143.227  0.00  0.00    +0.000 C 
ATOM      8  C   UNL     1     107.303 128.394 144.551  0.00  0.00    +0.000 C 
ENDROOT
BRANCH   7  13
ATOM      9  O   UNL     1     107.752 126.586 142.711  0.00  0.00    +0.000 OA
ATOM     10  O   UNL     1     105.452 128.281 142.728  0.00  0.00    +0.000 OA
ATOM     11  O   UNL     1     105.410 125.854 141.177  0.00  0.00    +0.000 OA
ATOM     12  O   UNL     1     107.772 125.362 141.948  0.00  0.00    +0.000 OA
ATOM     13  C   UNL     1     106.602 127.433 142.719  0.00  0.00    +0.000 A 
ATOM     14  C   UNL     1     106.983 126.749 142.462  0.00  0.00    +0.000 A 
ATOM     15  C   UNL     1     105.833 127.596 142.470  0.00  0.00    +0.000 A 
ATOM     16  C   UNL     1     106.595 126.226 141.954  0.00  0.00    +0.000 A 
ATOM     17  C   UNL     1     105.444 127.075 141.963  0.00  0.00    +0.000 A 
ATOM     18  C   UNL     1     105.826 126.389 141.705  0.00  0.00    +0.000 A 
ATOM     19  C   UNL     1     107.002 125.517 141.693  0.00  0.00    +0.000 A 
ATOM     20  C   UNL     1     106.603 124.969 141.164  0.00  0.00    +0.000 A 
ATOM     21  C   UNL     1     105.802 125.138 140.905  0.00  0.00    +0.000 A 
BRANCH  21  24
ATOM     22  O   UNL     1     104.808 124.495 138.303  0.00  0.00    +0.000 OA
ATOM     23  O   UNL     1     104.236 123.059 138.877  0.00  0.00    +0.000 OA
ATOM     24  C   UNL     1     105.410 124.618 140.397  0.00  0.00    +0.000 A 
ATOM     25  C   UNL     1     105.305 124.817 139.603  0.00  0.00    +0.000 A 
ATOM     26  C   UNL     1     105.125 123.901 140.685  0.00  0.00    +0.000 A 
ATOM     27  C   UNL     1     104.914 124.297 139.097  0.00  0.00    +0.000 A 
ATOM     28  C   UNL     1     104.733 123.380 140.178  0.00  0.00    +0.000 A 
ATOM     29  C   UNL     1     104.628 123.579 139.384  0.00  0.00    +0.000 A 
ENDBRANCH  21  24
ENDBRANCH   7  13
BRANCH   4  30
ATOM     30  O   UNL     1     108.155 129.524 144.746  0.00  0.00    +0.000 OA
ATOM     31  C   UNL     1     107.973 130.329 144.727  0.00  0.00    +0.000 C 
ENDBRANCH   4  30
BRANCH   8  32
ATOM     32  C   UNL     1     107.227 128.309 145.367  0.00  0.00    +0.000 C 
BRANCH  32  33
ATOM     33  O   UNL     1     106.990 127.587 145.688  0.00  0.00    +0.000 OA
BRANCH  33  35
ATOM     34  O   UNL     1     106.169 128.068 146.752  0.00  0.00    +0.000 OA
ATOM     35  C   UNL     1     106.742 127.545 146.473  0.00  0.00    +0.000 C 
BRANCH  35  36
ATOM     36  C   UNL     1     107.067 126.980 146.979  0.00  0.00    +0.000 C 
ATOM     37  C   UNL     1     106.601 126.359 147.258  0.00  0.00    +0.000 C 
BRANCH  37  40
ATOM     38  O   UNL     1     106.414 124.738 149.604  0.00  0.00    +0.000 OA
ATOM     39  O   UNL     1     107.902 124.100 149.282  0.00  0.00    +0.000 OA
ATOM     40  C   UNL     1     106.926 125.794 147.764  0.00  0.00    +0.000 A 
ATOM     41  C   UNL     1     106.508 125.548 148.431  0.00  0.00    +0.000 A 
ATOM     42  C   UNL     1     107.670 125.475 147.603  0.00  0.00    +0.000 A 
ATOM     43  C   UNL     1     106.833 124.984 148.937  0.00  0.00    +0.000 A 
ATOM     44  C   UNL     1     107.995 124.911 148.109  0.00  0.00    +0.000 A 
ATOM     45  C   UNL     1     107.576 124.665 148.776  0.00  0.00    +0.000 A 
ENDBRANCH  37  40
ENDBRANCH  35  36
ENDBRANCH  33  35
ENDBRANCH  32  33
ENDBRANCH   8  32
TORSDOF 8
ENDMDL
MODEL 8
REMARK VINA RESULT:     -10.6      6.352     10.105
REMARK  Name = 131751356
REMARK  8 active torsions:
REMARK  status: ('A' for Active; 'I' for Inactive)
REMARK    1  A    between atoms: O_2  and  C_15
REMARK    2  A    between atoms: O_5  and  C_21
REMARK    3  A    between atoms: O_5  and  C_29
REMARK    4  A    between atoms: C_18  and  C_20
REMARK    5  A    between atoms: C_19  and  C_21
REMARK    6  A    between atoms: C_29  and  C_33
REMARK    7  A    between atoms: C_31  and  C_32
REMARK    8  A    between atoms: C_36  and  C_39
REMARK                            x       y       z     vdW  Elec       q    Type
REMARK                         _______ _______ _______ _____ _____    ______ ____
ROOT
ATOM      1  O   UNL     1     112.439 126.582 137.880  0.00  0.00    +0.000 OA
ATOM      2  O   UNL     1     114.560 125.311 137.984  0.00  0.00    +0.000 OA
ATOM      3  O   UNL     1     114.071 126.206 139.281  0.00  0.00    +0.000 OA
ATOM      4  C   UNL     1     113.391 125.711 137.266  0.00  0.00    +0.000 C 
ATOM      5  C   UNL     1     113.853 125.735 137.950  0.00  0.00    +0.000 C 
ATOM      6  C   UNL     1     113.608 126.183 138.598  0.00  0.00    +0.000 C 
ATOM      7  C   UNL     1     112.901 126.606 138.563  0.00  0.00    +0.000 C 
ATOM      8  C   UNL     1     112.684 126.135 137.231  0.00  0.00    +0.000 C 
ENDROOT
BRANCH   7  13
ATOM      9  O   UNL     1     111.930 125.932 139.714  0.00  0.00    +0.000 OA
ATOM     10  O   UNL     1     113.384 128.177 138.709  0.00  0.00    +0.000 OA
ATOM     11  O   UNL     1     111.922 128.427 141.178  0.00  0.00    +0.000 OA
ATOM     12  O   UNL     1     111.185 126.016 140.946  0.00  0.00    +0.000 OA
ATOM     13  C   UNL     1     112.657 127.054 139.212  0.00  0.00    +0.000 A 
ATOM     14  C   UNL     1     112.172 126.717 139.786  0.00  0.00    +0.000 A 
ATOM     15  C   UNL     1     112.898 127.839 139.284  0.00  0.00    +0.000 A 
ATOM     16  C   UNL     1     111.927 127.165 140.435  0.00  0.00    +0.000 A 
ATOM     17  C   UNL     1     112.655 128.288 139.932  0.00  0.00    +0.000 A 
ATOM     18  C   UNL     1     112.169 127.950 140.508  0.00  0.00    +0.000 A 
ATOM     19  C   UNL     1     111.422 126.802 141.027  0.00  0.00    +0.000 A 
ATOM     20  C   UNL     1     111.164 127.264 141.705  0.00  0.00    +0.000 A 
ATOM     21  C   UNL     1     111.416 128.081 141.781  0.00  0.00    +0.000 A 
BRANCH  21  24
ATOM     22  O   UNL     1     111.926 129.156 144.380  0.00  0.00    +0.000 OA
ATOM     23  O   UNL     1     110.447 129.886 144.369  0.00  0.00    +0.000 OA
ATOM     24  C   UNL     1     111.173 128.533 142.429  0.00  0.00    +0.000 A 
ATOM     25  C   UNL     1     111.671 128.618 143.081  0.00  0.00    +0.000 A 
ATOM     26  C   UNL     1     110.434 128.897 142.422  0.00  0.00    +0.000 A 
ATOM     27  C   UNL     1     111.429 129.070 143.728  0.00  0.00    +0.000 A 
ATOM     28  C   UNL     1     110.191 129.348 143.069  0.00  0.00    +0.000 A 
ATOM     29  C   UNL     1     110.689 129.434 143.722  0.00  0.00    +0.000 A 
ENDBRANCH  21  24
ENDBRANCH   7  13
BRANCH   4  30
ATOM     30  O   UNL     1     113.636 125.263 136.618  0.00  0.00    +0.000 OA
ATOM     31  C   UNL     1     113.720 124.445 136.689  0.00  0.00    +0.000 C 
ENDBRANCH   4  30
BRANCH   8  32
ATOM     32  C   UNL     1     112.222 126.111 136.549  0.00  0.00    +0.000 C 
BRANCH  32  33
ATOM     33  O   UNL     1     111.463 126.433 136.552  0.00  0.00    +0.000 OA
BRANCH  33  35
ATOM     34  O   UNL     1     111.050 126.082 135.231  0.00  0.00    +0.000 OA
ATOM     35  C   UNL     1     111.097 126.635 135.841  0.00  0.00    +0.000 C 
BRANCH  35  36
ATOM     36  C   UNL     1     110.777 127.389 135.740  0.00  0.00    +0.000 C 
ATOM     37  C   UNL     1     109.998 127.476 135.484  0.00  0.00    +0.000 C 
BRANCH  37  40
ATOM     38  O   UNL     1     107.991 129.417 136.094  0.00  0.00    +0.000 OA
ATOM     39  O   UNL     1     108.722 130.492 135.078  0.00  0.00    +0.000 OA
ATOM     40  C   UNL     1     109.679 128.230 135.383  0.00  0.00    +0.000 A 
ATOM     41  C   UNL     1     108.995 128.447 135.789  0.00  0.00    +0.000 A 
ATOM     42  C   UNL     1     110.044 128.768 134.875  0.00  0.00    +0.000 A 
ATOM     43  C   UNL     1     108.675 129.201 135.688  0.00  0.00    +0.000 A 
ATOM     44  C   UNL     1     109.726 129.522 134.773  0.00  0.00    +0.000 A 
ATOM     45  C   UNL     1     109.041 129.738 135.180  0.00  0.00    +0.000 A 
ENDBRANCH  37  40
ENDBRANCH  35  36
ENDBRANCH  33  35
ENDBRANCH  32  33
ENDBRANCH   8  32
TORSDOF 8
ENDMDL
MODEL 9
REMARK VINA RESULT:     -10.6      7.961      9.424
REMARK  Name = 131751356
REMARK  8 active torsions:
REMARK  status: ('A' for Active; 'I' for Inactive)
REMARK    1  A    between atoms: O_2  and  C_15
REMARK    2  A    between atoms: O_5  and  C_21
REMARK    3  A    between atoms: O_5  and  C_29
REMARK    4  A    between atoms: C_18  and  C_20
REMARK    5  A    between atoms: C_19  and  C_21
REMARK    6  A    between atoms: C_29  and  C_33
REMARK    7  A    between atoms: C_31  and  C_32
REMARK    8  A    between atoms: C_36  and  C_39
REMARK                            x       y       z     vdW  Elec       q    Type
REMARK                         _______ _______ _______ _____ _____    ______ ____
ROOT
ATOM      1  O   UNL     1     112.295 129.290 138.874  0.00  0.00    +0.000 OA
ATOM      2  O   UNL     1     114.270 130.732 139.250  0.00  0.00    +0.000 OA
ATOM      3  O   UNL     1     112.951 131.330 138.460  0.00  0.00    +0.000 OA
ATOM      4  C   UNL     1     113.613 129.471 139.395  0.00  0.00    +0.000 C 
ATOM      5  C   UNL     1     113.612 130.251 139.125  0.00  0.00    +0.000 C 
ATOM      6  C   UNL     1     112.952 130.550 138.730  0.00  0.00    +0.000 C 
ATOM      7  C   UNL     1     112.293 130.069 138.604  0.00  0.00    +0.000 C 
ATOM      8  C   UNL     1     112.954 128.990 139.269  0.00  0.00    +0.000 C 
ENDROOT
BRANCH   7  13
ATOM      9  O   UNL     1     112.101 129.791 136.989  0.00  0.00    +0.000 OA
ATOM     10  O   UNL     1     111.166 130.947 139.430  0.00  0.00    +0.000 OA
ATOM     11  O   UNL     1     109.624 131.286 137.020  0.00  0.00    +0.000 OA
ATOM     12  O   UNL     1     111.359 129.938 135.761  0.00  0.00    +0.000 OA
ATOM     13  C   UNL     1     111.634 130.369 138.209  0.00  0.00    +0.000 A 
ATOM     14  C   UNL     1     111.538 130.230 137.402  0.00  0.00    +0.000 A 
ATOM     15  C   UNL     1     111.070 130.807 138.622  0.00  0.00    +0.000 A 
ATOM     16  C   UNL     1     110.878 130.529 137.007  0.00  0.00    +0.000 A 
ATOM     17  C   UNL     1     110.411 131.107 138.228  0.00  0.00    +0.000 A 
ATOM     18  C   UNL     1     110.315 130.968 137.420  0.00  0.00    +0.000 A 
ATOM     19  C   UNL     1     110.790 130.378 136.166  0.00  0.00    +0.000 A 
ATOM     20  C   UNL     1     110.105 130.688 135.749  0.00  0.00    +0.000 A 
ATOM     21  C   UNL     1     109.518 131.145 136.179  0.00  0.00    +0.000 A 
BRANCH  21  24
ATOM     22  O   UNL     1     106.681 131.383 135.934  0.00  0.00    +0.000 OA
ATOM     23  O   UNL     1     106.876 132.351 134.612  0.00  0.00    +0.000 OA
ATOM     24  C   UNL     1     108.857 131.446 135.787  0.00  0.00    +0.000 A 
ATOM     25  C   UNL     1     108.099 131.264 136.057  0.00  0.00    +0.000 A 
ATOM     26  C   UNL     1     108.956 131.929 135.127  0.00  0.00    +0.000 A 
ATOM     27  C   UNL     1     107.439 131.565 135.665  0.00  0.00    +0.000 A 
ATOM     28  C   UNL     1     108.295 132.231 134.735  0.00  0.00    +0.000 A 
ATOM     29  C   UNL     1     107.537 132.049 135.004  0.00  0.00    +0.000 A 
ENDBRANCH  21  24
ENDBRANCH   7  13
BRANCH   4  30
ATOM     30  O   UNL     1     114.273 129.173 139.790  0.00  0.00    +0.000 OA
ATOM     31  C   UNL     1     114.531 129.527 140.489  0.00  0.00    +0.000 C 
ENDBRANCH   4  30
BRANCH   8  32
ATOM     32  C   UNL     1     112.955 128.211 139.538  0.00  0.00    +0.000 C 
BRANCH  32  33
ATOM     33  O   UNL     1     112.348 127.697 139.320  0.00  0.00    +0.000 OA
BRANCH  33  35
ATOM     34  O   UNL     1     112.620 126.541 140.114  0.00  0.00    +0.000 OA
ATOM     35  C   UNL     1     112.455 126.882 139.380  0.00  0.00    +0.000 C 
BRANCH  35  36
ATOM     36  C   UNL     1     112.397 126.406 138.709  0.00  0.00    +0.000 C 
ATOM     37  C   UNL     1     111.688 126.026 138.532  0.00  0.00    +0.000 C 
BRANCH  37  40
ATOM     38  O   UNL     1     111.263 125.755 135.719  0.00  0.00    +0.000 OA
ATOM     39  O   UNL     1     111.457 124.121 135.847  0.00  0.00    +0.000 OA
ATOM     40  C   UNL     1     111.630 125.550 137.860  0.00  0.00    +0.000 A 
ATOM     41  C   UNL     1     111.475 125.890 137.125  0.00  0.00    +0.000 A 
ATOM     42  C   UNL     1     111.727 124.733 137.924  0.00  0.00    +0.000 A 
ATOM     43  C   UNL     1     111.417 125.414 136.454  0.00  0.00    +0.000 A 
ATOM     44  C   UNL     1     111.670 124.257 137.253  0.00  0.00    +0.000 A 
ATOM     45  C   UNL     1     111.515 124.598 136.518  0.00  0.00    +0.000 A 
ENDBRANCH  37  40
ENDBRANCH  35  36
ENDBRANCH  33  35
ENDBRANCH  32  33
ENDBRANCH   8  32
TORSDOF 8
ENDMDL
MODEL 10
REMARK VINA RESULT:     -10.4      7.057      9.173
REMARK  Name = 131751356
REMARK  8 active torsions:
REMARK  status: ('A' for Active; 'I' for Inactive)
REMARK    1  A    between atoms: O_2  and  C_15
REMARK    2  A    between atoms: O_5  and  C_21
REMARK    3  A    between atoms: O_5  and  C_29
REMARK    4  A    between atoms: C_18  and  C_20
REMARK    5  A    between atoms: C_19  and  C_21
REMARK    6  A    between atoms: C_29  and  C_33
REMARK    7  A    between atoms: C_31  and  C_32
REMARK    8  A    between atoms: C_36  and  C_39
REMARK                            x       y       z     vdW  Elec       q    Type
REMARK                         _______ _______ _______ _____ _____    ______ ____
ROOT
ATOM      1  O   UNL     1     111.143 130.003 139.492  0.00  0.00    +0.000 OA
ATOM      2  O   UNL     1     111.914 130.024 141.844  0.00  0.00    +0.000 OA
ATOM      3  O   UNL     1     112.150 128.684 140.910  0.00  0.00    +0.000 OA
ATOM      4  C   UNL     1     111.282 130.681 140.742  0.00  0.00    +0.000 C 
ATOM      5  C   UNL     1     111.657 130.017 141.060  0.00  0.00    +0.000 C 
ATOM      6  C   UNL     1     111.775 129.348 140.593  0.00  0.00    +0.000 C 
ATOM      7  C   UNL     1     111.518 129.341 139.809  0.00  0.00    +0.000 C 
ATOM      8  C   UNL     1     111.025 130.673 139.958  0.00  0.00    +0.000 C 
ENDROOT
BRANCH   7  13
ATOM      9  O   UNL     1     110.325 128.209 139.670  0.00  0.00    +0.000 OA
ATOM     10  O   UNL     1     112.949 129.132 139.015  0.00  0.00    +0.000 OA
ATOM     11  O   UNL     1     112.010 126.637 137.921  0.00  0.00    +0.000 OA
ATOM     12  O   UNL     1     109.818 126.966 139.143  0.00  0.00    +0.000 OA
ATOM     13  C   UNL     1     111.636 128.670 139.342  0.00  0.00    +0.000 A 
ATOM     14  C   UNL     1     111.040 128.105 139.273  0.00  0.00    +0.000 A 
ATOM     15  C   UNL     1     112.352 128.566 138.945  0.00  0.00    +0.000 A 
ATOM     16  C   UNL     1     111.159 127.435 138.806  0.00  0.00    +0.000 A 
ATOM     17  C   UNL     1     112.472 127.896 138.479  0.00  0.00    +0.000 A 
ATOM     18  C   UNL     1     111.874 127.330 138.409  0.00  0.00    +0.000 A 
ATOM     19  C   UNL     1     110.530 126.853 138.742  0.00  0.00    +0.000 A 
ATOM     20  C   UNL     1     110.648 126.153 138.258  0.00  0.00    +0.000 A 
ATOM     21  C   UNL     1     111.393 126.044 137.844  0.00  0.00    +0.000 A 
BRANCH  21  24
ATOM     22  O   UNL     1     111.014 124.639 135.384  0.00  0.00    +0.000 OA
ATOM     23  O   UNL     1     111.883 123.368 135.976  0.00  0.00    +0.000 OA
ATOM     24  C   UNL     1     111.515 125.375 137.377  0.00  0.00    +0.000 A 
ATOM     25  C   UNL     1     111.203 125.342 136.614  0.00  0.00    +0.000 A 
ATOM     26  C   UNL     1     111.950 124.740 137.673  0.00  0.00    +0.000 A 
ATOM     27  C   UNL     1     111.326 124.673 136.147  0.00  0.00    +0.000 A 
ATOM     28  C   UNL     1     112.073 124.071 137.207  0.00  0.00    +0.000 A 
ATOM     29  C   UNL     1     111.761 124.037 136.444  0.00  0.00    +0.000 A 
ENDBRANCH  21  24
ENDBRANCH   7  13
BRANCH   4  30
ATOM     30  O   UNL     1     111.164 131.350 141.209  0.00  0.00    +0.000 OA
ATOM     31  C   UNL     1     110.720 131.297 141.903  0.00  0.00    +0.000 C 
ENDBRANCH   4  30
BRANCH   8  32
ATOM     32  C   UNL     1     110.650 131.336 139.642  0.00  0.00    +0.000 C 
BRANCH  32  33
ATOM     33  O   UNL     1     110.689 131.485 138.831  0.00  0.00    +0.000 OA
BRANCH  33  35
ATOM     34  O   UNL     1     110.104 132.788 138.818  0.00  0.00    +0.000 OA
ATOM     35  C   UNL     1     110.181 132.036 138.487  0.00  0.00    +0.000 C 
BRANCH  35  36
ATOM     36  C   UNL     1     109.750 131.837 137.812  0.00  0.00    +0.000 C 
ATOM     37  C   UNL     1     109.469 132.429 137.312  0.00  0.00    +0.000 C 
BRANCH  37  40
ATOM     38  O   UNL     1     107.080 131.425 136.107  0.00  0.00    +0.000 OA
ATOM     39  O   UNL     1     107.747 131.633 134.612  0.00  0.00    +0.000 OA
ATOM     40  C   UNL     1     109.038 132.230 136.638  0.00  0.00    +0.000 A 
ATOM     41  C   UNL     1     108.275 131.927 136.710  0.00  0.00    +0.000 A 
ATOM     42  C   UNL     1     109.372 132.333 135.890  0.00  0.00    +0.000 A 
ATOM     43  C   UNL     1     107.844 131.728 136.035  0.00  0.00    +0.000 A 
ATOM     44  C   UNL     1     108.942 132.135 135.215  0.00  0.00    +0.000 A 
ATOM     45  C   UNL     1     108.177 131.832 135.287  0.00  0.00    +0.000 A 
ENDBRANCH  37  40
ENDBRANCH  35  36
ENDBRANCH  33  35
ENDBRANCH  32  33
ENDBRANCH   8  32
TORSDOF 8
ENDMDL
