MODEL 1
REMARK VINA RESULT:     -10.1      0.000      0.000
REMARK  Name = 44257998
REMARK  7 active torsions:
REMARK  status: ('A' for Active; 'I' for Inactive)
REMARK    1  A    between atoms: O_4  and  C_21
REMARK    2  A    between atoms: O_4  and  C_23
REMARK    3  A    between atoms: O_6  and  C_22
REMARK    4  A    between atoms: O_6  and  C_26
REMARK    5  A    between atoms: C_19  and  C_22
REMARK    6  A    between atoms: C_26  and  C_30
REMARK    7  A    between atoms: C_32  and  C_36
REMARK                            x       y       z     vdW  Elec       q    Type
REMARK                         _______ _______ _______ _____ _____    ______ ____
ROOT
ATOM      1  O   UNL     1     113.002 129.439 134.920  0.00  0.00    +0.000 OA
ENDROOT
BRANCH   1   6
ATOM      2  O   UNL     1     111.890 126.934 135.906  0.00  0.00    +0.000 OA
ATOM      3  O   UNL     1     110.145 128.880 134.674  0.00  0.00    +0.000 OA
ATOM      4  O   UNL     1     109.630 127.628 135.174  0.00  0.00    +0.000 OA
ATOM      5  O   UNL     1     109.848 126.165 135.905  0.00  0.00    +0.000 OA
ATOM      6  C   UNL     1     112.355 128.941 135.040  0.00  0.00    +0.000 A 
ATOM      7  C   UNL     1     112.461 128.177 135.420  0.00  0.00    +0.000 A 
ATOM      8  C   UNL     1     111.570 129.182 134.786  0.00  0.00    +0.000 A 
ATOM      9  C   UNL     1     111.782 127.666 135.541  0.00  0.00    +0.000 A 
ATOM     10  C   UNL     1     111.029 127.897 135.296  0.00  0.00    +0.000 A 
ATOM     11  C   UNL     1     110.903 128.657 134.915  0.00  0.00    +0.000 A 
ATOM     12  C   UNL     1     110.384 127.397 135.418  0.00  0.00    +0.000 A 
ATOM     13  C   UNL     1     111.246 126.433 136.028  0.00  0.00    +0.000 A 
ATOM     14  C   UNL     1     110.493 126.665 135.783  0.00  0.00    +0.000 A 
BRANCH  13  17
ATOM     15  O   UNL     1     111.382 124.849 138.402  0.00  0.00    +0.000 OA
ATOM     16  O   UNL     1     111.678 123.507 137.490  0.00  0.00    +0.000 OA
ATOM     17  C   UNL     1     111.354 125.701 136.393  0.00  0.00    +0.000 A 
ATOM     18  C   UNL     1     111.314 125.642 137.214  0.00  0.00    +0.000 A 
ATOM     19  C   UNL     1     111.502 125.030 135.937  0.00  0.00    +0.000 A 
ATOM     20  C   UNL     1     111.422 124.910 137.581  0.00  0.00    +0.000 A 
ATOM     21  C   UNL     1     111.610 124.299 136.303  0.00  0.00    +0.000 A 
ATOM     22  C   UNL     1     111.570 124.239 137.124  0.00  0.00    +0.000 A 
ENDBRANCH  13  17
ENDBRANCH   1   6
BRANCH   1  31
ATOM     23  O   UNL     1     112.871 130.064 136.198  0.00  0.00    +0.000 OA
ATOM     24  O   UNL     1     114.353 131.033 137.475  0.00  0.00    +0.000 OA
ATOM     25  O   UNL     1     115.291 130.579 136.195  0.00  0.00    +0.000 OA
ATOM     26  O   UNL     1     114.616 129.782 134.918  0.00  0.00    +0.000 OA
ATOM     27  C   UNL     1     114.015 130.634 136.836  0.00  0.00    +0.000 C 
ATOM     28  C   UNL     1     114.484 130.407 136.196  0.00  0.00    +0.000 C 
ATOM     29  C   UNL     1     113.208 130.463 136.837  0.00  0.00    +0.000 C 
ATOM     30  C   UNL     1     114.146 130.009 135.558  0.00  0.00    +0.000 C 
ATOM     31  C   UNL     1     113.339 129.837 135.559  0.00  0.00    +0.000 C 
BRANCH  29  32
ATOM     32  C   UNL     1     112.739 130.689 137.476  0.00  0.00    +0.000 C 
BRANCH  32  33
ATOM     33  O   UNL     1     112.284 130.128 137.875  0.00  0.00    +0.000 OA
BRANCH  33  35
ATOM     34  O   UNL     1     111.660 131.125 138.686  0.00  0.00    +0.000 OA
ATOM     35  C   UNL     1     111.659 130.369 138.356  0.00  0.00    +0.000 C 
BRANCH  35  39
ATOM     36  O   UNL     1     110.656 127.981 139.565  0.00  0.00    +0.000 OA
ATOM     37  O   UNL     1     108.904 129.667 138.062  0.00  0.00    +0.000 OA
ATOM     38  O   UNL     1     109.154 128.309 138.966  0.00  0.00    +0.000 OA
ATOM     39  C   UNL     1     111.032 129.854 138.508  0.00  0.00    +0.000 A 
ATOM     40  C   UNL     1     110.282 130.018 138.209  0.00  0.00    +0.000 A 
ATOM     41  C   UNL     1     111.157 129.175 138.960  0.00  0.00    +0.000 A 
ATOM     42  C   UNL     1     110.531 128.660 139.113  0.00  0.00    +0.000 A 
ATOM     43  C   UNL     1     109.656 129.503 138.361  0.00  0.00    +0.000 A 
ATOM     44  C   UNL     1     109.781 128.825 138.813  0.00  0.00    +0.000 A 
ENDBRANCH  35  39
ENDBRANCH  33  35
ENDBRANCH  32  33
ENDBRANCH  29  32
ENDBRANCH   1  31
TORSDOF 7
ENDMDL
MODEL 2
REMARK VINA RESULT:     -10.1      2.014      5.203
REMARK  Name = 44257998
REMARK  7 active torsions:
REMARK  status: ('A' for Active; 'I' for Inactive)
REMARK    1  A    between atoms: O_4  and  C_21
REMARK    2  A    between atoms: O_4  and  C_23
REMARK    3  A    between atoms: O_6  and  C_22
REMARK    4  A    between atoms: O_6  and  C_26
REMARK    5  A    between atoms: C_19  and  C_22
REMARK    6  A    between atoms: C_26  and  C_30
REMARK    7  A    between atoms: C_32  and  C_36
REMARK                            x       y       z     vdW  Elec       q    Type
REMARK                         _______ _______ _______ _____ _____    ______ ____
ROOT
ATOM      1  O   UNL     1     111.326 127.018 136.034  0.00  0.00    +0.000 OA
ENDROOT
BRANCH   1   6
ATOM      2  O   UNL     1     111.308 129.754 137.031  0.00  0.00    +0.000 OA
ATOM      3  O   UNL     1     113.802 128.559 136.197  0.00  0.00    +0.000 OA
ATOM      4  O   UNL     1     113.754 129.912 136.696  0.00  0.00    +0.000 OA
ATOM      5  O   UNL     1     112.919 131.201 137.298  0.00  0.00    +0.000 OA
ATOM      6  C   UNL     1     111.727 127.714 136.222  0.00  0.00    +0.000 A 
ATOM      7  C   UNL     1     111.299 128.389 136.536  0.00  0.00    +0.000 A 
ATOM      8  C   UNL     1     112.577 127.769 136.106  0.00  0.00    +0.000 A 
ATOM      9  C   UNL     1     111.725 129.109 136.730  0.00  0.00    +0.000 A 
ATOM     10  C   UNL     1     112.541 129.162 136.618  0.00  0.00    +0.000 A 
ATOM     11  C   UNL     1     112.986 128.497 136.305  0.00  0.00    +0.000 A 
ATOM     12  C   UNL     1     112.938 129.859 136.808  0.00  0.00    +0.000 A 
ATOM     13  C   UNL     1     111.705 130.452 137.221  0.00  0.00    +0.000 A 
ATOM     14  C   UNL     1     112.521 130.504 137.109  0.00  0.00    +0.000 A 
BRANCH  13  17
ATOM     15  O   UNL     1     110.465 131.786 139.421  0.00  0.00    +0.000 OA
ATOM     16  O   UNL     1     110.037 133.031 138.426  0.00  0.00    +0.000 OA
ATOM     17  C   UNL     1     111.288 131.097 137.522  0.00  0.00    +0.000 A 
ATOM     18  C   UNL     1     111.085 131.119 138.321  0.00  0.00    +0.000 A 
ATOM     19  C   UNL     1     111.074 131.719 137.024  0.00  0.00    +0.000 A 
ATOM     20  C   UNL     1     110.668 131.764 138.623  0.00  0.00    +0.000 A 
ATOM     21  C   UNL     1     110.657 132.363 137.326  0.00  0.00    +0.000 A 
ATOM     22  C   UNL     1     110.454 132.386 138.125  0.00  0.00    +0.000 A 
ENDBRANCH  13  17
ENDBRANCH   1   6
BRANCH   1  31
ATOM     23  O   UNL     1     111.479 126.459 137.340  0.00  0.00    +0.000 OA
ATOM     24  O   UNL     1     111.580 124.382 138.003  0.00  0.00    +0.000 OA
ATOM     25  O   UNL     1     111.401 124.182 136.375  0.00  0.00    +0.000 OA
ATOM     26  O   UNL     1     111.274 125.499 135.390  0.00  0.00    +0.000 OA
ATOM     27  C   UNL     1     111.516 125.041 137.511  0.00  0.00    +0.000 C 
ATOM     28  C   UNL     1     111.427 124.941 136.697  0.00  0.00    +0.000 C 
ATOM     29  C   UNL     1     111.542 125.801 137.833  0.00  0.00    +0.000 C 
ATOM     30  C   UNL     1     111.364 125.600 136.205  0.00  0.00    +0.000 C 
ATOM     31  C   UNL     1     111.390 126.359 136.527  0.00  0.00    +0.000 C 
BRANCH  29  32
ATOM     32  C   UNL     1     111.632 125.901 138.646  0.00  0.00    +0.000 C 
BRANCH  32  33
ATOM     33  O   UNL     1     112.238 126.377 138.940  0.00  0.00    +0.000 OA
BRANCH  33  35
ATOM     34  O   UNL     1     111.692 126.266 140.255  0.00  0.00    +0.000 OA
ATOM     35  C   UNL     1     112.252 126.582 139.739  0.00  0.00    +0.000 C 
BRANCH  35  39
ATOM     36  O   UNL     1     113.106 129.248 140.315  0.00  0.00    +0.000 OA
ATOM     37  O   UNL     1     114.840 127.042 140.860  0.00  0.00    +0.000 OA
ATOM     38  O   UNL     1     114.547 128.666 140.870  0.00  0.00    +0.000 OA
ATOM     39  C   UNL     1     112.826 127.102 140.022  0.00  0.00    +0.000 A 
ATOM     40  C   UNL     1     113.546 126.812 140.299  0.00  0.00    +0.000 A 
ATOM     41  C   UNL     1     112.680 127.914 140.027  0.00  0.00    +0.000 A 
ATOM     42  C   UNL     1     113.253 128.436 140.310  0.00  0.00    +0.000 A 
ATOM     43  C   UNL     1     114.120 127.333 140.582  0.00  0.00    +0.000 A 
ATOM     44  C   UNL     1     113.973 128.144 140.587  0.00  0.00    +0.000 A 
ENDBRANCH  35  39
ENDBRANCH  33  35
ENDBRANCH  32  33
ENDBRANCH  29  32
ENDBRANCH   1  31
TORSDOF 7
ENDMDL
MODEL 3
REMARK VINA RESULT:     -10.0      1.464      4.868
REMARK  Name = 44257998
REMARK  7 active torsions:
REMARK  status: ('A' for Active; 'I' for Inactive)
REMARK    1  A    between atoms: O_4  and  C_21
REMARK    2  A    between atoms: O_4  and  C_23
REMARK    3  A    between atoms: O_6  and  C_22
REMARK    4  A    between atoms: O_6  and  C_26
REMARK    5  A    between atoms: C_19  and  C_22
REMARK    6  A    between atoms: C_26  and  C_30
REMARK    7  A    between atoms: C_32  and  C_36
REMARK                            x       y       z     vdW  Elec       q    Type
REMARK                         _______ _______ _______ _____ _____    ______ ____
ROOT
ATOM      1  O   UNL     1     113.868 126.208 136.792  0.00  0.00    +0.000 OA
ENDROOT
BRANCH   1   6
ATOM      2  O   UNL     1     112.484 128.449 138.036  0.00  0.00    +0.000 OA
ATOM      3  O   UNL     1     113.543 128.736 135.363  0.00  0.00    +0.000 OA
ATOM      4  O   UNL     1     112.852 129.824 136.012  0.00  0.00    +0.000 OA
ATOM      5  O   UNL     1     112.049 130.459 137.305  0.00  0.00    +0.000 OA
ATOM      6  C   UNL     1     113.590 126.985 136.761  0.00  0.00    +0.000 A 
ATOM      7  C   UNL     1     113.171 127.322 137.431  0.00  0.00    +0.000 A 
ATOM      8  C   UNL     1     113.718 127.462 136.057  0.00  0.00    +0.000 A 
ATOM      9  C   UNL     1     112.886 128.131 137.389  0.00  0.00    +0.000 A 
ATOM     10  C   UNL     1     113.008 128.589 136.714  0.00  0.00    +0.000 A 
ATOM     11  C   UNL     1     113.425 128.270 136.034  0.00  0.00    +0.000 A 
ATOM     12  C   UNL     1     112.729 129.365 136.687  0.00  0.00    +0.000 A 
ATOM     13  C   UNL     1     112.205 129.225 138.009  0.00  0.00    +0.000 A 
ATOM     14  C   UNL     1     112.328 129.683 137.334  0.00  0.00    +0.000 A 
BRANCH  13  17
ATOM     15  O   UNL     1     112.248 130.549 140.540  0.00  0.00    +0.000 OA
ATOM     16  O   UNL     1     110.599 130.497 140.596  0.00  0.00    +0.000 OA
ATOM     17  C   UNL     1     111.803 129.543 138.656  0.00  0.00    +0.000 A 
ATOM     18  C   UNL     1     112.227 129.887 139.274  0.00  0.00    +0.000 A 
ATOM     19  C   UNL     1     110.979 129.516 138.683  0.00  0.00    +0.000 A 
ATOM     20  C   UNL     1     111.825 130.205 139.922  0.00  0.00    +0.000 A 
ATOM     21  C   UNL     1     110.579 129.834 139.330  0.00  0.00    +0.000 A 
ATOM     22  C   UNL     1     111.001 130.179 139.949  0.00  0.00    +0.000 A 
ENDBRANCH  13  17
ENDBRANCH   1   6
BRANCH   1  31
ATOM     23  O   UNL     1     112.648 125.690 136.258  0.00  0.00    +0.000 OA
ATOM     24  O   UNL     1     111.779 123.690 136.362  0.00  0.00    +0.000 OA
ATOM     25  O   UNL     1     113.173 123.469 137.216  0.00  0.00    +0.000 OA
ATOM     26  O   UNL     1     114.218 124.728 137.431  0.00  0.00    +0.000 OA
ATOM     27  C   UNL     1     112.300 124.320 136.469  0.00  0.00    +0.000 C 
ATOM     28  C   UNL     1     112.998 124.209 136.897  0.00  0.00    +0.000 C 
ATOM     29  C   UNL     1     112.125 125.060 136.150  0.00  0.00    +0.000 C 
ATOM     30  C   UNL     1     113.520 124.839 137.004  0.00  0.00    +0.000 C 
ATOM     31  C   UNL     1     113.345 125.579 136.684  0.00  0.00    +0.000 C 
BRANCH  29  32
ATOM     32  C   UNL     1     111.428 125.171 135.724  0.00  0.00    +0.000 C 
BRANCH  32  33
ATOM     33  O   UNL     1     110.892 125.755 135.952  0.00  0.00    +0.000 OA
BRANCH  33  35
ATOM     34  O   UNL     1     110.121 125.564 134.765  0.00  0.00    +0.000 OA
ATOM     35  C   UNL     1     110.322 126.023 135.420  0.00  0.00    +0.000 C 
BRANCH  35  39
ATOM     36  O   UNL     1     109.844 128.722 134.612  0.00  0.00    +0.000 OA
ATOM     37  O   UNL     1     108.583 127.688 136.959  0.00  0.00    +0.000 OA
ATOM     38  O   UNL     1     108.843 128.933 135.907  0.00  0.00    +0.000 OA
ATOM     39  C   UNL     1     109.952 126.750 135.543  0.00  0.00    +0.000 A 
ATOM     40  C   UNL     1     109.453 126.856 136.190  0.00  0.00    +0.000 A 
ATOM     41  C   UNL     1     110.083 127.373 135.017  0.00  0.00    +0.000 A 
ATOM     42  C   UNL     1     109.713 128.100 135.138  0.00  0.00    +0.000 A 
ATOM     43  C   UNL     1     109.083 127.583 136.312  0.00  0.00    +0.000 A 
ATOM     44  C   UNL     1     109.213 128.205 135.786  0.00  0.00    +0.000 A 
ENDBRANCH  35  39
ENDBRANCH  33  35
ENDBRANCH  32  33
ENDBRANCH  29  32
ENDBRANCH   1  31
TORSDOF 7
ENDMDL
MODEL 4
REMARK VINA RESULT:     -10.0      2.187      4.349
REMARK  Name = 44257998
REMARK  7 active torsions:
REMARK  status: ('A' for Active; 'I' for Inactive)
REMARK    1  A    between atoms: O_4  and  C_21
REMARK    2  A    between atoms: O_4  and  C_23
REMARK    3  A    between atoms: O_6  and  C_22
REMARK    4  A    between atoms: O_6  and  C_26
REMARK    5  A    between atoms: C_19  and  C_22
REMARK    6  A    between atoms: C_26  and  C_30
REMARK    7  A    between atoms: C_32  and  C_36
REMARK                            x       y       z     vdW  Elec       q    Type
REMARK                         _______ _______ _______ _____ _____    ______ ____
ROOT
ATOM      1  O   UNL     1     113.350 130.541 138.655  0.00  0.00    +0.000 OA
ENDROOT
BRANCH   1   6
ATOM      2  O   UNL     1     111.280 129.503 136.889  0.00  0.00    +0.000 OA
ATOM      3  O   UNL     1     113.972 129.828 135.891  0.00  0.00    +0.000 OA
ATOM      4  O   UNL     1     112.921 129.317 135.045  0.00  0.00    +0.000 OA
ATOM      5  O   UNL     1     111.351 128.870 134.802  0.00  0.00    +0.000 OA
ATOM      6  C   UNL     1     113.116 130.256 137.917  0.00  0.00    +0.000 A 
ATOM      7  C   UNL     1     112.300 130.022 137.783  0.00  0.00    +0.000 A 
ATOM      8  C   UNL     1     113.686 130.192 137.276  0.00  0.00    +0.000 A 
ATOM      9  C   UNL     1     112.065 129.726 137.011  0.00  0.00    +0.000 A 
ATOM     10  C   UNL     1     112.612 129.664 136.397  0.00  0.00    +0.000 A 
ATOM     11  C   UNL     1     113.432 129.894 136.512  0.00  0.00    +0.000 A 
ATOM     12  C   UNL     1     112.374 129.379 135.661  0.00  0.00    +0.000 A 
ATOM     13  C   UNL     1     111.042 129.217 136.153  0.00  0.00    +0.000 A 
ATOM     14  C   UNL     1     111.589 129.155 135.538  0.00  0.00    +0.000 A 
BRANCH  13  17
ATOM     15  O   UNL     1     108.338 129.911 135.542  0.00  0.00    +0.000 OA
ATOM     16  O   UNL     1     107.903 128.324 135.663  0.00  0.00    +0.000 OA
ATOM     17  C   UNL     1     110.257 128.993 136.030  0.00  0.00    +0.000 A 
ATOM     18  C   UNL     1     109.691 129.564 135.848  0.00  0.00    +0.000 A 
ATOM     19  C   UNL     1     110.040 128.200 136.091  0.00  0.00    +0.000 A 
ATOM     20  C   UNL     1     108.905 129.341 135.725  0.00  0.00    +0.000 A 
ATOM     21  C   UNL     1     109.256 127.977 135.968  0.00  0.00    +0.000 A 
ATOM     22  C   UNL     1     108.688 128.547 135.785  0.00  0.00    +0.000 A 
ENDBRANCH  13  17
ENDBRANCH   1   6
BRANCH   1  31
ATOM     23  O   UNL     1     113.418 129.231 139.220  0.00  0.00    +0.000 OA
ATOM     24  O   UNL     1     114.554 128.464 140.919  0.00  0.00    +0.000 OA
ATOM     25  O   UNL     1     115.022 130.047 140.920  0.00  0.00    +0.000 OA
ATOM     26  O   UNL     1     114.420 131.085 139.788  0.00  0.00    +0.000 OA
ATOM     27  C   UNL     1     114.253 128.983 140.353  0.00  0.00    +0.000 C 
ATOM     28  C   UNL     1     114.487 129.775 140.353  0.00  0.00    +0.000 C 
ATOM     29  C   UNL     1     113.718 128.711 139.786  0.00  0.00    +0.000 C 
ATOM     30  C   UNL     1     114.186 130.294 139.787  0.00  0.00    +0.000 C 
ATOM     31  C   UNL     1     113.651 130.022 139.221  0.00  0.00    +0.000 C 
BRANCH  29  32
ATOM     32  C   UNL     1     113.485 127.920 139.786  0.00  0.00    +0.000 C 
BRANCH  32  33
ATOM     33  O   UNL     1     113.645 127.443 139.133  0.00  0.00    +0.000 OA
BRANCH  33  35
ATOM     34  O   UNL     1     112.764 126.442 139.646  0.00  0.00    +0.000 OA
ATOM     35  C   UNL     1     113.267 126.714 139.051  0.00  0.00    +0.000 C 
BRANCH  35  39
ATOM     36  O   UNL     1     112.407 125.823 136.476  0.00  0.00    +0.000 OA
ATOM     37  O   UNL     1     114.867 124.866 137.571  0.00  0.00    +0.000 OA
ATOM     38  O   UNL     1     113.760 124.888 136.348  0.00  0.00    +0.000 OA
ATOM     39  C   UNL     1     113.391 126.257 138.375  0.00  0.00    +0.000 A 
ATOM     40  C   UNL     1     114.067 125.790 138.311  0.00  0.00    +0.000 A 
ATOM     41  C   UNL     1     112.837 126.268 137.764  0.00  0.00    +0.000 A 
ATOM     42  C   UNL     1     112.960 125.812 137.088  0.00  0.00    +0.000 A 
ATOM     43  C   UNL     1     114.190 125.334 137.636  0.00  0.00    +0.000 A 
ATOM     44  C   UNL     1     113.637 125.345 137.024  0.00  0.00    +0.000 A 
ENDBRANCH  35  39
ENDBRANCH  33  35
ENDBRANCH  32  33
ENDBRANCH  29  32
ENDBRANCH   1  31
TORSDOF 7
ENDMDL
MODEL 5
REMARK VINA RESULT:     -10.0      1.910      4.666
REMARK  Name = 44257998
REMARK  7 active torsions:
REMARK  status: ('A' for Active; 'I' for Inactive)
REMARK    1  A    between atoms: O_4  and  C_21
REMARK    2  A    between atoms: O_4  and  C_23
REMARK    3  A    between atoms: O_6  and  C_22
REMARK    4  A    between atoms: O_6  and  C_26
REMARK    5  A    between atoms: C_19  and  C_22
REMARK    6  A    between atoms: C_26  and  C_30
REMARK    7  A    between atoms: C_32  and  C_36
REMARK                            x       y       z     vdW  Elec       q    Type
REMARK                         _______ _______ _______ _____ _____    ______ ____
ROOT
ATOM      1  O   UNL     1     113.244 128.806 138.490  0.00  0.00    +0.000 OA
ENDROOT
BRANCH   1   6
ATOM      2  O   UNL     1     111.053 129.717 136.803  0.00  0.00    +0.000 OA
ATOM      3  O   UNL     1     113.302 128.358 135.604  0.00  0.00    +0.000 OA
ATOM      4  O   UNL     1     112.198 128.823 134.800  0.00  0.00    +0.000 OA
ATOM      5  O   UNL     1     110.736 129.572 134.648  0.00  0.00    +0.000 OA
ATOM      6  C   UNL     1     112.898 128.881 137.745  0.00  0.00    +0.000 A 
ATOM      7  C   UNL     1     112.137 129.270 137.659  0.00  0.00    +0.000 A 
ATOM      8  C   UNL     1     113.296 128.570 137.049  0.00  0.00    +0.000 A 
ATOM      9  C   UNL     1     111.784 129.343 136.879  0.00  0.00    +0.000 A 
ATOM     10  C   UNL     1     112.166 129.045 136.212  0.00  0.00    +0.000 A 
ATOM     11  C   UNL     1     112.927 128.653 136.278  0.00  0.00    +0.000 A 
ATOM     12  C   UNL     1     111.816 129.121 135.468  0.00  0.00    +0.000 A 
ATOM     13  C   UNL     1     110.703 129.794 136.060  0.00  0.00    +0.000 A 
ATOM     14  C   UNL     1     111.085 129.496 135.392  0.00  0.00    +0.000 A 
BRANCH  13  17
ATOM     15  O   UNL     1     107.848 129.673 136.069  0.00  0.00    +0.000 OA
ATOM     16  O   UNL     1     107.778 131.291 135.755  0.00  0.00    +0.000 OA
ATOM     17  C   UNL     1     109.972 130.169 135.983  0.00  0.00    +0.000 A 
ATOM     18  C   UNL     1     109.276 129.733 136.065  0.00  0.00    +0.000 A 
ATOM     19  C   UNL     1     109.937 130.978 135.826  0.00  0.00    +0.000 A 
ATOM     20  C   UNL     1     108.544 130.108 135.988  0.00  0.00    +0.000 A 
ATOM     21  C   UNL     1     109.206 131.351 135.750  0.00  0.00    +0.000 A 
ATOM     22  C   UNL     1     108.509 130.917 135.831  0.00  0.00    +0.000 A 
ENDBRANCH  13  17
ENDBRANCH   1   6
BRANCH   1  31
ATOM     23  O   UNL     1     112.654 127.519 138.683  0.00  0.00    +0.000 OA
ATOM     24  O   UNL     1     112.321 126.357 140.501  0.00  0.00    +0.000 OA
ATOM     25  O   UNL     1     113.041 127.707 141.120  0.00  0.00    +0.000 OA
ATOM     26  O   UNL     1     113.502 128.931 140.115  0.00  0.00    +0.000 OA
ATOM     27  C   UNL     1     112.551 126.969 139.998  0.00  0.00    +0.000 C 
ATOM     28  C   UNL     1     112.912 127.644 140.308  0.00  0.00    +0.000 C 
ATOM     29  C   UNL     1     112.422 126.906 139.185  0.00  0.00    +0.000 C 
ATOM     30  C   UNL     1     113.142 128.256 139.805  0.00  0.00    +0.000 C 
ATOM     31  C   UNL     1     113.013 128.193 138.992  0.00  0.00    +0.000 C 
BRANCH  29  32
ATOM     32  C   UNL     1     112.063 126.232 138.876  0.00  0.00    +0.000 C 
BRANCH  32  33
ATOM     33  O   UNL     1     111.381 126.301 138.416  0.00  0.00    +0.000 OA
BRANCH  33  35
ATOM     34  O   UNL     1     111.306 124.894 138.187  0.00  0.00    +0.000 OA
ATOM     35  C   UNL     1     111.126 125.665 137.958  0.00  0.00    +0.000 C 
BRANCH  35  39
ATOM     36  O   UNL     1     108.769 126.653 136.677  0.00  0.00    +0.000 OA
ATOM     37  O   UNL     1     110.862 125.487 135.118  0.00  0.00    +0.000 OA
ATOM     38  O   UNL     1     109.379 126.205 135.211  0.00  0.00    +0.000 OA
ATOM     39  C   UNL     1     110.689 125.800 137.271  0.00  0.00    +0.000 A 
ATOM     40  C   UNL     1     110.994 125.576 136.538  0.00  0.00    +0.000 A 
ATOM     41  C   UNL     1     109.948 126.159 137.317  0.00  0.00    +0.000 A 
ATOM     42  C   UNL     1     109.511 126.294 136.631  0.00  0.00    +0.000 A 
ATOM     43  C   UNL     1     110.557 125.711 135.852  0.00  0.00    +0.000 A 
ATOM     44  C   UNL     1     109.816 126.070 135.898  0.00  0.00    +0.000 A 
ENDBRANCH  35  39
ENDBRANCH  33  35
ENDBRANCH  32  33
ENDBRANCH  29  32
ENDBRANCH   1  31
TORSDOF 7
ENDMDL
MODEL 6
REMARK VINA RESULT:      -9.9      2.230      3.285
REMARK  Name = 44257998
REMARK  7 active torsions:
REMARK  status: ('A' for Active; 'I' for Inactive)
REMARK    1  A    between atoms: O_4  and  C_21
REMARK    2  A    between atoms: O_4  and  C_23
REMARK    3  A    between atoms: O_6  and  C_22
REMARK    4  A    between atoms: O_6  and  C_26
REMARK    5  A    between atoms: C_19  and  C_22
REMARK    6  A    between atoms: C_26  and  C_30
REMARK    7  A    between atoms: C_32  and  C_36
REMARK                            x       y       z     vdW  Elec       q    Type
REMARK                         _______ _______ _______ _____ _____    ______ ____
ROOT
ATOM      1  O   UNL     1     110.577 128.797 135.291  0.00  0.00    +0.000 OA
ENDROOT
BRANCH   1   6
ATOM      2  O   UNL     1     112.284 126.625 136.214  0.00  0.00    +0.000 OA
ATOM      3  O   UNL     1     109.703 126.018 135.066  0.00  0.00    +0.000 OA
ATOM      4  O   UNL     1     110.576 124.969 135.534  0.00  0.00    +0.000 OA
ATOM      5  O   UNL     1     111.990 124.463 136.216  0.00  0.00    +0.000 OA
ATOM      6  C   UNL     1     110.711 127.991 135.404  0.00  0.00    +0.000 A 
ATOM      7  C   UNL     1     111.446 127.720 135.758  0.00  0.00    +0.000 A 
ATOM      8  C   UNL     1     110.118 127.415 135.167  0.00  0.00    +0.000 A 
ATOM      9  C   UNL     1     111.577 126.879 135.872  0.00  0.00    +0.000 A 
ATOM     10  C   UNL     1     111.007 126.327 135.646  0.00  0.00    +0.000 A 
ATOM     11  C   UNL     1     110.267 126.578 135.289  0.00  0.00    +0.000 A 
ATOM     12  C   UNL     1     111.146 125.522 135.760  0.00  0.00    +0.000 A 
ATOM     13  C   UNL     1     112.423 125.820 136.328  0.00  0.00    +0.000 A 
ATOM     14  C   UNL     1     111.853 125.268 136.101  0.00  0.00    +0.000 A 
BRANCH  13  17
ATOM     15  O   UNL     1     115.176 125.103 136.071  0.00  0.00    +0.000 OA
ATOM     16  O   UNL     1     115.251 124.806 137.692  0.00  0.00    +0.000 OA
ATOM     17  C   UNL     1     113.130 125.567 136.670  0.00  0.00    +0.000 A 
ATOM     18  C   UNL     1     113.799 125.462 136.199  0.00  0.00    +0.000 A 
ATOM     19  C   UNL     1     113.167 125.418 137.480  0.00  0.00    +0.000 A 
ATOM     20  C   UNL     1     114.507 125.208 136.540  0.00  0.00    +0.000 A 
ATOM     21  C   UNL     1     113.874 125.165 137.820  0.00  0.00    +0.000 A 
ATOM     22  C   UNL     1     114.544 125.060 137.351  0.00  0.00    +0.000 A 
ENDBRANCH  13  17
ENDBRANCH   1   6
BRANCH   1  31
ATOM     23  O   UNL     1     110.017 129.059 136.579  0.00  0.00    +0.000 OA
ATOM     24  O   UNL     1     108.395 130.386 137.189  0.00  0.00    +0.000 OA
ATOM     25  O   UNL     1     108.423 130.656 135.561  0.00  0.00    +0.000 OA
ATOM     26  O   UNL     1     109.514 129.861 134.612  0.00  0.00    +0.000 OA
ATOM     27  C   UNL     1     108.941 129.989 136.715  0.00  0.00    +0.000 C 
ATOM     28  C   UNL     1     108.955 130.124 135.901  0.00  0.00    +0.000 C 
ATOM     29  C   UNL     1     109.472 129.456 137.054  0.00  0.00    +0.000 C 
ATOM     30  C   UNL     1     109.500 129.726 135.427  0.00  0.00    +0.000 C 
ATOM     31  C   UNL     1     110.031 129.194 135.766  0.00  0.00    +0.000 C 
BRANCH  29  32
ATOM     32  C   UNL     1     109.458 129.322 137.867  0.00  0.00    +0.000 C 
BRANCH  32  33
ATOM     33  O   UNL     1     109.907 128.712 138.193  0.00  0.00    +0.000 OA
BRANCH  33  35
ATOM     34  O   UNL     1     109.283 128.926 139.460  0.00  0.00    +0.000 OA
ATOM     35  C   UNL     1     109.815 128.509 138.987  0.00  0.00    +0.000 C 
BRANCH  35  39
ATOM     36  O   UNL     1     112.063 127.595 140.497  0.00  0.00    +0.000 OA
ATOM     37  O   UNL     1     110.208 125.711 139.413  0.00  0.00    +0.000 OA
ATOM     38  O   UNL     1     111.576 126.034 140.278  0.00  0.00    +0.000 OA
ATOM     39  C   UNL     1     110.255 127.890 139.310  0.00  0.00    +0.000 A 
ATOM     40  C   UNL     1     110.012 127.110 139.200  0.00  0.00    +0.000 A 
ATOM     41  C   UNL     1     110.939 128.052 139.742  0.00  0.00    +0.000 A 
ATOM     42  C   UNL     1     111.379 127.434 140.065  0.00  0.00    +0.000 A 
ATOM     43  C   UNL     1     110.451 126.492 139.523  0.00  0.00    +0.000 A 
ATOM     44  C   UNL     1     111.135 126.653 139.955  0.00  0.00    +0.000 A 
ENDBRANCH  35  39
ENDBRANCH  33  35
ENDBRANCH  32  33
ENDBRANCH  29  32
ENDBRANCH   1  31
TORSDOF 7
ENDMDL
MODEL 7
REMARK VINA RESULT:      -9.9      1.365      3.046
REMARK  Name = 44257998
REMARK  7 active torsions:
REMARK  status: ('A' for Active; 'I' for Inactive)
REMARK    1  A    between atoms: O_4  and  C_21
REMARK    2  A    between atoms: O_4  and  C_23
REMARK    3  A    between atoms: O_6  and  C_22
REMARK    4  A    between atoms: O_6  and  C_26
REMARK    5  A    between atoms: C_19  and  C_22
REMARK    6  A    between atoms: C_26  and  C_30
REMARK    7  A    between atoms: C_32  and  C_36
REMARK                            x       y       z     vdW  Elec       q    Type
REMARK                         _______ _______ _______ _____ _____    ______ ____
ROOT
ATOM      1  O   UNL     1     110.550 129.648 135.049  0.00  0.00    +0.000 OA
ENDROOT
BRANCH   1   6
ATOM      2  O   UNL     1     111.555 127.139 136.136  0.00  0.00    +0.000 OA
ATOM      3  O   UNL     1     113.407 129.273 135.531  0.00  0.00    +0.000 OA
ATOM      4  O   UNL     1     113.868 128.017 136.070  0.00  0.00    +0.000 OA
ATOM      5  O   UNL     1     113.580 126.490 136.625  0.00  0.00    +0.000 OA
ATOM      6  C   UNL     1     111.179 129.179 135.304  0.00  0.00    +0.000 A 
ATOM      7  C   UNL     1     111.037 128.383 135.594  0.00  0.00    +0.000 A 
ATOM      8  C   UNL     1     111.983 129.484 135.281  0.00  0.00    +0.000 A 
ATOM      9  C   UNL     1     111.699 127.903 135.858  0.00  0.00    +0.000 A 
ATOM     10  C   UNL     1     112.469 128.196 135.836  0.00  0.00    +0.000 A 
ATOM     11  C   UNL     1     112.632 128.989 135.549  0.00  0.00    +0.000 A 
ATOM     12  C   UNL     1     113.096 127.724 136.092  0.00  0.00    +0.000 A 
ATOM     13  C   UNL     1     112.182 126.668 136.392  0.00  0.00    +0.000 A 
ATOM     14  C   UNL     1     112.953 126.961 136.370  0.00  0.00    +0.000 A 
BRANCH  13  17
ATOM     15  O   UNL     1     111.340 124.914 138.484  0.00  0.00    +0.000 OA
ATOM     16  O   UNL     1     111.608 123.614 137.503  0.00  0.00    +0.000 OA
ATOM     17  C   UNL     1     112.038 125.904 136.669  0.00  0.00    +0.000 A 
ATOM     18  C   UNL     1     111.761 125.792 137.438  0.00  0.00    +0.000 A 
ATOM     19  C   UNL     1     112.173 125.255 136.179  0.00  0.00    +0.000 A 
ATOM     20  C   UNL     1     111.617 125.028 137.716  0.00  0.00    +0.000 A 
ATOM     21  C   UNL     1     112.029 124.492 136.457  0.00  0.00    +0.000 A 
ATOM     22  C   UNL     1     111.751 124.378 137.226  0.00  0.00    +0.000 A 
ENDBRANCH  13  17
ENDBRANCH   1   6
BRANCH   1  31
ATOM     23  O   UNL     1     110.314 130.219 136.337  0.00  0.00    +0.000 OA
ATOM     24  O   UNL     1     108.481 130.973 137.252  0.00  0.00    +0.000 OA
ATOM     25  O   UNL     1     107.919 130.492 135.777  0.00  0.00    +0.000 OA
ATOM     26  O   UNL     1     108.953 129.829 134.676  0.00  0.00    +0.000 OA
ATOM     27  C   UNL     1     108.999 130.642 136.702  0.00  0.00    +0.000 C 
ATOM     28  C   UNL     1     108.717 130.401 135.964  0.00  0.00    +0.000 C 
ATOM     29  C   UNL     1     109.797 130.551 136.889  0.00  0.00    +0.000 C 
ATOM     30  C   UNL     1     109.235 130.070 135.414  0.00  0.00    +0.000 C 
ATOM     31  C   UNL     1     110.033 129.979 135.600  0.00  0.00    +0.000 C 
BRANCH  29  32
ATOM     32  C   UNL     1     110.078 130.791 137.625  0.00  0.00    +0.000 C 
BRANCH  32  33
ATOM     33  O   UNL     1     110.505 130.265 138.096  0.00  0.00    +0.000 OA
BRANCH  33  35
ATOM     34  O   UNL     1     110.850 131.286 139.034  0.00  0.00    +0.000 OA
ATOM     35  C   UNL     1     111.001 130.551 138.690  0.00  0.00    +0.000 C 
BRANCH  35  39
ATOM     36  O   UNL     1     113.824 130.248 139.009  0.00  0.00    +0.000 OA
ATOM     37  O   UNL     1     112.058 128.174 139.873  0.00  0.00    +0.000 OA
ATOM     38  O   UNL     1     113.588 128.764 139.691  0.00  0.00    +0.000 OA
ATOM     39  C   UNL     1     111.647 130.104 138.941  0.00  0.00    +0.000 A 
ATOM     40  C   UNL     1     111.529 129.363 139.281  0.00  0.00    +0.000 A 
ATOM     41  C   UNL     1     112.412 130.399 138.850  0.00  0.00    +0.000 A 
ATOM     42  C   UNL     1     113.059 129.953 139.100  0.00  0.00    +0.000 A 
ATOM     43  C   UNL     1     112.175 128.916 139.531  0.00  0.00    +0.000 A 
ATOM     44  C   UNL     1     112.940 129.211 139.441  0.00  0.00    +0.000 A 
ENDBRANCH  35  39
ENDBRANCH  33  35
ENDBRANCH  32  33
ENDBRANCH  29  32
ENDBRANCH   1  31
TORSDOF 7
ENDMDL
MODEL 8
REMARK VINA RESULT:      -9.9      2.336      4.814
REMARK  Name = 44257998
REMARK  7 active torsions:
REMARK  status: ('A' for Active; 'I' for Inactive)
REMARK    1  A    between atoms: O_4  and  C_21
REMARK    2  A    between atoms: O_4  and  C_23
REMARK    3  A    between atoms: O_6  and  C_22
REMARK    4  A    between atoms: O_6  and  C_26
REMARK    5  A    between atoms: C_19  and  C_22
REMARK    6  A    between atoms: C_26  and  C_30
REMARK    7  A    between atoms: C_32  and  C_36
REMARK                            x       y       z     vdW  Elec       q    Type
REMARK                         _______ _______ _______ _____ _____    ______ ____
ROOT
ATOM      1  O   UNL     1     112.397 129.106 136.466  0.00  0.00    +0.000 OA
ENDROOT
BRANCH   1   6
ATOM      2  O   UNL     1     110.122 130.864 135.999  0.00  0.00    +0.000 OA
ATOM      3  O   UNL     1     112.325 131.786 137.625  0.00  0.00    +0.000 OA
ATOM      4  O   UNL     1     111.182 132.629 137.373  0.00  0.00    +0.000 OA
ATOM      5  O   UNL     1     109.708 132.895 136.680  0.00  0.00    +0.000 OA
ATOM      6  C   UNL     1     112.016 129.829 136.579  0.00  0.00    +0.000 A 
ATOM      7  C   UNL     1     111.248 129.974 136.222  0.00  0.00    +0.000 A 
ATOM      8  C   UNL     1     112.384 130.442 137.056  0.00  0.00    +0.000 A 
ATOM      9  C   UNL     1     110.859 130.730 136.345  0.00  0.00    +0.000 A 
ATOM     10  C   UNL     1     111.213 131.318 136.803  0.00  0.00    +0.000 A 
ATOM     11  C   UNL     1     111.980 131.191 137.169  0.00  0.00    +0.000 A 
ATOM     12  C   UNL     1     110.829 132.040 136.915  0.00  0.00    +0.000 A 
ATOM     13  C   UNL     1     109.738 131.585 136.111  0.00  0.00    +0.000 A 
ATOM     14  C   UNL     1     110.092 132.174 136.568  0.00  0.00    +0.000 A 
BRANCH  13  17
ATOM     15  O   UNL     1     106.896 131.292 136.150  0.00  0.00    +0.000 OA
ATOM     16  O   UNL     1     106.790 132.120 134.727  0.00  0.00    +0.000 OA
ATOM     17  C   UNL     1     109.001 131.719 135.764  0.00  0.00    +0.000 A 
ATOM     18  C   UNL     1     108.318 131.439 136.131  0.00  0.00    +0.000 A 
ATOM     19  C   UNL     1     108.949 132.133 135.053  0.00  0.00    +0.000 A 
ATOM     20  C   UNL     1     107.580 131.572 135.785  0.00  0.00    +0.000 A 
ATOM     21  C   UNL     1     108.212 132.267 134.708  0.00  0.00    +0.000 A 
ATOM     22  C   UNL     1     107.527 131.986 135.073  0.00  0.00    +0.000 A 
ENDBRANCH  13  17
ENDBRANCH   1   6
BRANCH   1  31
ATOM     23  O   UNL     1     111.885 128.547 137.677  0.00  0.00    +0.000 OA
ATOM     24  O   UNL     1     111.509 126.475 138.249  0.00  0.00    +0.000 OA
ATOM     25  O   UNL     1     112.088 126.276 136.716  0.00  0.00    +0.000 OA
ATOM     26  O   UNL     1     112.532 127.591 135.825  0.00  0.00    +0.000 OA
ATOM     27  C   UNL     1     111.730 127.133 137.803  0.00  0.00    +0.000 C 
ATOM     28  C   UNL     1     112.020 127.033 137.037  0.00  0.00    +0.000 C 
ATOM     29  C   UNL     1     111.663 127.890 138.124  0.00  0.00    +0.000 C 
ATOM     30  C   UNL     1     112.242 127.691 136.592  0.00  0.00    +0.000 C 
ATOM     31  C   UNL     1     112.175 128.448 136.912  0.00  0.00    +0.000 C 
BRANCH  29  32
ATOM     32  C   UNL     1     111.373 127.989 138.889  0.00  0.00    +0.000 C 
BRANCH  32  33
ATOM     33  O   UNL     1     110.731 128.488 139.027  0.00  0.00    +0.000 OA
BRANCH  33  35
ATOM     34  O   UNL     1     110.842 128.347 140.444  0.00  0.00    +0.000 OA
ATOM     35  C   UNL     1     110.585 128.774 139.786  0.00  0.00    +0.000 C 
BRANCH  35  39
ATOM     36  O   UNL     1     110.523 131.463 140.752  0.00  0.00    +0.000 OA
ATOM     37  O   UNL     1     108.234 130.363 139.441  0.00  0.00    +0.000 OA
ATOM     38  O   UNL     1     108.976 131.626 140.200  0.00  0.00    +0.000 OA
ATOM     39  C   UNL     1     110.182 129.487 139.889  0.00  0.00    +0.000 A 
ATOM     40  C   UNL     1     109.409 129.568 139.613  0.00  0.00    +0.000 A 
ATOM     41  C   UNL     1     110.553 130.118 140.269  0.00  0.00    +0.000 A 
ATOM     42  C   UNL     1     110.152 130.831 140.373  0.00  0.00    +0.000 A 
ATOM     43  C   UNL     1     109.007 130.281 139.717  0.00  0.00    +0.000 A 
ATOM     44  C   UNL     1     109.379 130.912 140.096  0.00  0.00    +0.000 A 
ENDBRANCH  35  39
ENDBRANCH  33  35
ENDBRANCH  32  33
ENDBRANCH  29  32
ENDBRANCH   1  31
TORSDOF 7
ENDMDL
MODEL 9
REMARK VINA RESULT:      -9.8      1.927      5.117
REMARK  Name = 44257998
REMARK  7 active torsions:
REMARK  status: ('A' for Active; 'I' for Inactive)
REMARK    1  A    between atoms: O_4  and  C_21
REMARK    2  A    between atoms: O_4  and  C_23
REMARK    3  A    between atoms: O_6  and  C_22
REMARK    4  A    between atoms: O_6  and  C_26
REMARK    5  A    between atoms: C_19  and  C_22
REMARK    6  A    between atoms: C_26  and  C_30
REMARK    7  A    between atoms: C_32  and  C_36
REMARK                            x       y       z     vdW  Elec       q    Type
REMARK                         _______ _______ _______ _____ _____    ______ ____
ROOT
ATOM      1  O   UNL     1     113.488 126.185 138.819  0.00  0.00    +0.000 OA
ENDROOT
BRANCH   1   6
ATOM      2  O   UNL     1     112.133 128.705 138.275  0.00  0.00    +0.000 OA
ATOM      3  O   UNL     1     110.879 126.757 140.002  0.00  0.00    +0.000 OA
ATOM      4  O   UNL     1     110.237 128.016 139.710  0.00  0.00    +0.000 OA
ATOM      5  O   UNL     1     110.212 129.485 138.959  0.00  0.00    +0.000 OA
ATOM      6  C   UNL     1     112.842 126.688 138.924  0.00  0.00    +0.000 A 
ATOM      7  C   UNL     1     112.822 127.454 138.536  0.00  0.00    +0.000 A 
ATOM      8  C   UNL     1     112.184 126.448 139.422  0.00  0.00    +0.000 A 
ATOM      9  C   UNL     1     112.146 127.970 138.651  0.00  0.00    +0.000 A 
ATOM     10  C   UNL     1     111.514 127.740 139.129  0.00  0.00    +0.000 A 
ATOM     11  C   UNL     1     111.515 126.978 139.525  0.00  0.00    +0.000 A 
ATOM     12  C   UNL     1     110.870 128.246 139.231  0.00  0.00    +0.000 A 
ATOM     13  C   UNL     1     111.489 129.210 138.377  0.00  0.00    +0.000 A 
ATOM     14  C   UNL     1     110.857 128.980 138.856  0.00  0.00    +0.000 A 
BRANCH  13  17
ATOM     15  O   UNL     1     110.875 130.809 136.091  0.00  0.00    +0.000 OA
ATOM     16  O   UNL     1     111.436 132.148 136.875  0.00  0.00    +0.000 OA
ATOM     17  C   UNL     1     111.476 129.945 138.002  0.00  0.00    +0.000 A 
ATOM     18  C   UNL     1     111.182 130.009 137.234  0.00  0.00    +0.000 A 
ATOM     19  C   UNL     1     111.757 130.614 138.395  0.00  0.00    +0.000 A 
ATOM     20  C   UNL     1     111.169 130.744 136.858  0.00  0.00    +0.000 A 
ATOM     21  C   UNL     1     111.743 131.348 138.019  0.00  0.00    +0.000 A 
ATOM     22  C   UNL     1     111.449 131.413 137.251  0.00  0.00    +0.000 A 
ENDBRANCH  13  17
ENDBRANCH   1   6
BRANCH   1  31
ATOM     23  O   UNL     1     112.876 125.581 137.678  0.00  0.00    +0.000 OA
ATOM     24  O   UNL     1     113.720 124.342 136.092  0.00  0.00    +0.000 OA
ATOM     25  O   UNL     1     115.060 124.629 137.010  0.00  0.00    +0.000 OA
ATOM     26  O   UNL     1     114.945 125.551 138.374  0.00  0.00    +0.000 OA
ATOM     27  C   UNL     1     113.661 124.803 136.773  0.00  0.00    +0.000 C 
ATOM     28  C   UNL     1     114.332 124.946 137.233  0.00  0.00    +0.000 C 
ATOM     29  C   UNL     1     112.933 125.120 136.996  0.00  0.00    +0.000 C 
ATOM     30  C   UNL     1     114.274 125.407 137.914  0.00  0.00    +0.000 C 
ATOM     31  C   UNL     1     113.545 125.724 138.137  0.00  0.00    +0.000 C 
BRANCH  29  32
ATOM     32  C   UNL     1     112.263 124.977 136.537  0.00  0.00    +0.000 C 
BRANCH  32  33
ATOM     33  O   UNL     1     111.818 125.608 136.247  0.00  0.00    +0.000 OA
BRANCH  33  35
ATOM     34  O   UNL     1     110.853 124.715 135.689  0.00  0.00    +0.000 OA
ATOM     35  C   UNL     1     111.069 125.474 135.930  0.00  0.00    +0.000 C 
BRANCH  35  39
ATOM     36  O   UNL     1     108.706 126.826 136.799  0.00  0.00    +0.000 OA
ATOM     37  O   UNL     1     110.224 127.865 134.612  0.00  0.00    +0.000 OA
ATOM     38  O   UNL     1     108.930 127.969 135.631  0.00  0.00    +0.000 OA
ATOM     39  C   UNL     1     110.535 126.098 135.855  0.00  0.00    +0.000 A 
ATOM     40  C   UNL     1     110.647 126.669 135.271  0.00  0.00    +0.000 A 
ATOM     41  C   UNL     1     109.888 126.150 136.364  0.00  0.00    +0.000 A 
ATOM     42  C   UNL     1     109.353 126.774 136.290  0.00  0.00    +0.000 A 
ATOM     43  C   UNL     1     110.112 127.293 135.196  0.00  0.00    +0.000 A 
ATOM     44  C   UNL     1     109.465 127.345 135.705  0.00  0.00    +0.000 A 
ENDBRANCH  35  39
ENDBRANCH  33  35
ENDBRANCH  32  33
ENDBRANCH  29  32
ENDBRANCH   1  31
TORSDOF 7
ENDMDL
MODEL 10
REMARK VINA RESULT:      -9.7      2.017      4.196
REMARK  Name = 44257998
REMARK  7 active torsions:
REMARK  status: ('A' for Active; 'I' for Inactive)
REMARK    1  A    between atoms: O_4  and  C_21
REMARK    2  A    between atoms: O_4  and  C_23
REMARK    3  A    between atoms: O_6  and  C_22
REMARK    4  A    between atoms: O_6  and  C_26
REMARK    5  A    between atoms: C_19  and  C_22
REMARK    6  A    between atoms: C_26  and  C_30
REMARK    7  A    between atoms: C_32  and  C_36
REMARK                            x       y       z     vdW  Elec       q    Type
REMARK                         _______ _______ _______ _____ _____    ______ ____
ROOT
ATOM      1  O   UNL     1     111.015 130.700 136.304  0.00  0.00    +0.000 OA
ENDROOT
BRANCH   1   6
ATOM      2  O   UNL     1     112.259 128.742 138.066  0.00  0.00    +0.000 OA
ATOM      3  O   UNL     1     112.797 128.650 135.229  0.00  0.00    +0.000 OA
ATOM      4  O   UNL     1     113.395 127.697 136.132  0.00  0.00    +0.000 OA
ATOM      5  O   UNL     1     113.622 127.090 137.648  0.00  0.00    +0.000 OA
ATOM      6  C   UNL     1     111.508 130.048 136.415  0.00  0.00    +0.000 A 
ATOM      7  C   UNL     1     111.630 129.726 137.202  0.00  0.00    +0.000 A 
ATOM      8  C   UNL     1     111.902 129.684 135.743  0.00  0.00    +0.000 A 
ATOM      9  C   UNL     1     112.145 129.046 137.307  0.00  0.00    +0.000 A 
ATOM     10  C   UNL     1     112.524 128.698 136.662  0.00  0.00    +0.000 A 
ATOM     11  C   UNL     1     112.414 129.005 135.868  0.00  0.00    +0.000 A 
ATOM     12  C   UNL     1     113.016 128.046 136.777  0.00  0.00    +0.000 A 
ATOM     13  C   UNL     1     112.751 128.090 138.180  0.00  0.00    +0.000 A 
ATOM     14  C   UNL     1     113.130 127.742 137.535  0.00  0.00    +0.000 A 
BRANCH  13  17
ATOM     15  O   UNL     1     111.980 126.300 140.269  0.00  0.00    +0.000 OA
ATOM     16  O   UNL     1     113.206 126.873 141.213  0.00  0.00    +0.000 OA
ATOM     17  C   UNL     1     112.865 127.786 138.939  0.00  0.00    +0.000 A 
ATOM     18  C   UNL     1     112.365 127.195 139.224  0.00  0.00    +0.000 A 
ATOM     19  C   UNL     1     113.478 128.073 139.410  0.00  0.00    +0.000 A 
ATOM     20  C   UNL     1     112.479 126.891 139.983  0.00  0.00    +0.000 A 
ATOM     21  C   UNL     1     113.591 127.768 140.168  0.00  0.00    +0.000 A 
ATOM     22  C   UNL     1     113.092 127.177 140.455  0.00  0.00    +0.000 A 
ENDBRANCH  13  17
ENDBRANCH   1   6
BRANCH   1  31
ATOM     23  O   UNL     1     109.886 129.851 136.090  0.00  0.00    +0.000 OA
ATOM     24  O   UNL     1     107.746 130.285 136.113  0.00  0.00    +0.000 OA
ATOM     25  O   UNL     1     108.371 131.775 136.446  0.00  0.00    +0.000 OA
ATOM     26  O   UNL     1     110.005 131.983 136.541  0.00  0.00    +0.000 OA
ATOM     27  C   UNL     1     108.563 130.388 136.161  0.00  0.00    +0.000 C 
ATOM     28  C   UNL     1     108.876 131.134 136.327  0.00  0.00    +0.000 C 
ATOM     29  C   UNL     1     109.068 129.746 136.042  0.00  0.00    +0.000 C 
ATOM     30  C   UNL     1     109.693 131.237 136.375  0.00  0.00    +0.000 C 
ATOM     31  C   UNL     1     110.198 130.595 136.256  0.00  0.00    +0.000 C 
BRANCH  29  32
ATOM     32  C   UNL     1     108.756 129.001 135.876  0.00  0.00    +0.000 C 
BRANCH  32  33
ATOM     33  O   UNL     1     109.101 128.327 136.203  0.00  0.00    +0.000 OA
BRANCH  33  35
ATOM     34  O   UNL     1     108.056 127.473 135.736  0.00  0.00    +0.000 OA
ATOM     35  C   UNL     1     108.837 127.578 135.979  0.00  0.00    +0.000 C 
BRANCH  35  39
ATOM     36  O   UNL     1     110.515 125.711 134.614  0.00  0.00    +0.000 OA
ATOM     37  O   UNL     1     110.256 125.586 137.457  0.00  0.00    +0.000 OA
ATOM     38  O   UNL     1     110.902 125.005 136.055  0.00  0.00    +0.000 OA
ATOM     39  C   UNL     1     109.353 126.935 135.999  0.00  0.00    +0.000 A 
ATOM     40  C   UNL     1     109.546 126.582 136.718  0.00  0.00    +0.000 A 
ATOM     41  C   UNL     1     109.676 126.644 135.297  0.00  0.00    +0.000 A 
ATOM     42  C   UNL     1     110.192 126.001 135.316  0.00  0.00    +0.000 A 
ATOM     43  C   UNL     1     110.062 125.939 136.737  0.00  0.00    +0.000 A 
ATOM     44  C   UNL     1     110.385 125.649 136.036  0.00  0.00    +0.000 A 
ENDBRANCH  35  39
ENDBRANCH  33  35
ENDBRANCH  32  33
ENDBRANCH  29  32
ENDBRANCH   1  31
TORSDOF 7
ENDMDL
