MODEL 1
REMARK VINA RESULT:     -10.4      0.000      0.000
REMARK  Name = 14861262
REMARK  4 active torsions:
REMARK  status: ('A' for Active; 'I' for Inactive)
REMARK    1  A    between atoms: O_10  and  C_32
REMARK    2  A    between atoms: C_14  and  C_17
REMARK    3  A    between atoms: C_16  and  C_18
REMARK    4  A    between atoms: C_25  and  C_27
REMARK                            x       y       z     vdW  Elec       q    Type
REMARK                         _______ _______ _______ _____ _____    ______ ____
ROOT
ATOM      1  O   UNL     1     106.119 124.341 141.487  0.00  0.00    +0.000 OA
ATOM      2  O   UNL     1     105.158 126.996 141.047  0.00  0.00    +0.000 OA
ATOM      3  O   UNL     1     104.290 124.870 139.308  0.00  0.00    +0.000 OA
ATOM      4  O   UNL     1     105.709 123.249 140.639  0.00  0.00    +0.000 OA
ATOM      5  C   UNL     1     105.639 125.669 141.268  0.00  0.00    +0.000 A 
ATOM      6  C   UNL     1     105.658 124.871 141.055  0.00  0.00    +0.000 A 
ATOM      7  C   UNL     1     105.178 126.199 140.836  0.00  0.00    +0.000 A 
ATOM      8  C   UNL     1     105.216 124.605 140.412  0.00  0.00    +0.000 A 
ATOM      9  C   UNL     1     104.736 125.932 140.192  0.00  0.00    +0.000 A 
ATOM     10  C   UNL     1     104.755 125.135 139.980  0.00  0.00    +0.000 A 
ATOM     11  C   UNL     1     105.244 123.772 140.201  0.00  0.00    +0.000 A 
ATOM     12  C   UNL     1     104.306 124.041 139.083  0.00  0.00    +0.000 A 
ATOM     13  C   UNL     1     104.786 123.488 139.532  0.00  0.00    +0.000 A 
ENDROOT
BRANCH   5  20
ATOM     14  O   UNL     1     105.753 125.930 142.668  0.00  0.00    +0.000 OA
ATOM     15  O   UNL     1     107.180 126.214 141.041  0.00  0.00    +0.000 OA
ATOM     16  O   UNL     1     108.064 126.748 142.328  0.00  0.00    +0.000 OA
ATOM     17  O   UNL     1     107.407 126.736 143.840  0.00  0.00    +0.000 OA
ATOM     18  C   UNL     1     106.851 126.208 141.797  0.00  0.00    +0.000 C 
ATOM     19  C   UNL     1     107.294 126.475 142.441  0.00  0.00    +0.000 C 
ATOM     20  C   UNL     1     106.081 125.935 141.911  0.00  0.00    +0.000 C 
ATOM     21  C   UNL     1     106.965 126.469 143.198  0.00  0.00    +0.000 C 
ATOM     22  C   UNL     1     106.195 126.196 143.311  0.00  0.00    +0.000 C 
BRANCH  22  24
ATOM     23  O   UNL     1     105.136 125.831 144.198  0.00  0.00    +0.000 OA
ATOM     24  C   UNL     1     105.867 126.191 144.067  0.00  0.00    +0.000 C 
ENDBRANCH  22  24
ENDBRANCH   5  20
BRANCH  12  26
ATOM     25  O   UNL     1     101.772 123.522 137.866  0.00  0.00    +0.000 OA
ATOM     26  C   UNL     1     103.863 123.778 138.438  0.00  0.00    +0.000 A 
ATOM     27  C   UNL     1     103.038 123.782 138.475  0.00  0.00    +0.000 A 
ATOM     28  C   UNL     1     104.244 123.510 137.757  0.00  0.00    +0.000 A 
ATOM     29  C   UNL     1     102.596 123.518 137.830  0.00  0.00    +0.000 A 
ATOM     30  C   UNL     1     103.802 123.247 137.113  0.00  0.00    +0.000 A 
ATOM     31  C   UNL     1     102.978 123.251 137.149  0.00  0.00    +0.000 A 
BRANCH  31  32
ATOM     32  O   UNL     1     102.534 122.988 136.505  0.00  0.00    +0.000 OA
ATOM     33  C   UNL     1     102.896 122.882 135.771  0.00  0.00    +0.000 C 
ENDBRANCH  31  32
ENDBRANCH  12  26
TORSDOF 4
ENDMDL
MODEL 2
REMARK VINA RESULT:      -9.4      8.163      9.241
REMARK  Name = 14861262
REMARK  4 active torsions:
REMARK  status: ('A' for Active; 'I' for Inactive)
REMARK    1  A    between atoms: O_10  and  C_32
REMARK    2  A    between atoms: C_14  and  C_17
REMARK    3  A    between atoms: C_16  and  C_18
REMARK    4  A    between atoms: C_25  and  C_27
REMARK                            x       y       z     vdW  Elec       q    Type
REMARK                         _______ _______ _______ _____ _____    ______ ____
ROOT
ATOM      1  O   UNL     1     114.109 128.354 140.998  0.00  0.00    +0.000 OA
ATOM      2  O   UNL     1     112.931 130.165 139.128  0.00  0.00    +0.000 OA
ATOM      3  O   UNL     1     113.139 127.371 138.455  0.00  0.00    +0.000 OA
ATOM      4  O   UNL     1     114.232 126.949 140.700  0.00  0.00    +0.000 OA
ATOM      5  C   UNL     1     113.520 129.260 140.064  0.00  0.00    +0.000 A 
ATOM      6  C   UNL     1     113.753 128.495 140.268  0.00  0.00    +0.000 A 
ATOM      7  C   UNL     1     113.164 129.401 139.333  0.00  0.00    +0.000 A 
ATOM      8  C   UNL     1     113.629 127.872 139.742  0.00  0.00    +0.000 A 
ATOM      9  C   UNL     1     113.040 128.777 138.806  0.00  0.00    +0.000 A 
ATOM     10  C   UNL     1     113.273 128.013 139.012  0.00  0.00    +0.000 A 
ATOM     11  C   UNL     1     113.876 127.080 139.967  0.00  0.00    +0.000 A 
ATOM     12  C   UNL     1     113.380 126.573 138.663  0.00  0.00    +0.000 A 
ATOM     13  C   UNL     1     113.751 126.426 139.424  0.00  0.00    +0.000 A 
ENDROOT
BRANCH   5  20
ATOM     14  O   UNL     1     113.087 130.045 141.177  0.00  0.00    +0.000 OA
ATOM     15  O   UNL     1     114.880 130.186 139.940  0.00  0.00    +0.000 OA
ATOM     16  O   UNL     1     115.127 131.434 140.991  0.00  0.00    +0.000 OA
ATOM     17  O   UNL     1     114.015 131.755 142.165  0.00  0.00    +0.000 OA
ATOM     18  C   UNL     1     114.323 130.346 140.527  0.00  0.00    +0.000 C 
ATOM     19  C   UNL     1     114.447 130.971 141.053  0.00  0.00    +0.000 C 
ATOM     20  C   UNL     1     113.643 129.883 140.589  0.00  0.00    +0.000 C 
ATOM     21  C   UNL     1     113.890 131.131 141.640  0.00  0.00    +0.000 C 
ATOM     22  C   UNL     1     113.210 130.668 141.702  0.00  0.00    +0.000 C 
BRANCH  22  24
ATOM     23  O   UNL     1     111.882 130.549 142.214  0.00  0.00    +0.000 OA
ATOM     24  C   UNL     1     112.654 130.829 142.289  0.00  0.00    +0.000 C 
ENDBRANCH  22  24
ENDBRANCH   5  20
BRANCH  12  26
ATOM     25  O   UNL     1     114.366 124.790 136.658  0.00  0.00    +0.000 OA
ATOM     26  C   UNL     1     113.254 125.952 138.134  0.00  0.00    +0.000 A 
ATOM     27  C   UNL     1     113.873 125.682 137.660  0.00  0.00    +0.000 A 
ATOM     28  C   UNL     1     112.510 125.600 138.081  0.00  0.00    +0.000 A 
ATOM     29  C   UNL     1     113.747 125.060 137.132  0.00  0.00    +0.000 A 
ATOM     30  C   UNL     1     112.384 124.979 137.553  0.00  0.00    +0.000 A 
ATOM     31  C   UNL     1     113.003 124.709 137.078  0.00  0.00    +0.000 A 
BRANCH  31  32
ATOM     32  O   UNL     1     112.878 124.088 136.550  0.00  0.00    +0.000 OA
ATOM     33  C   UNL     1     112.139 123.723 136.510  0.00  0.00    +0.000 C 
ENDBRANCH  31  32
ENDBRANCH  12  26
TORSDOF 4
ENDMDL
MODEL 3
REMARK VINA RESULT:      -9.3      4.440      6.248
REMARK  Name = 14861262
REMARK  4 active torsions:
REMARK  status: ('A' for Active; 'I' for Inactive)
REMARK    1  A    between atoms: O_10  and  C_32
REMARK    2  A    between atoms: C_14  and  C_17
REMARK    3  A    between atoms: C_16  and  C_18
REMARK    4  A    between atoms: C_25  and  C_27
REMARK                            x       y       z     vdW  Elec       q    Type
REMARK                         _______ _______ _______ _____ _____    ______ ____
ROOT
ATOM      1  O   UNL     1     106.565 124.636 146.118  0.00  0.00    +0.000 OA
ATOM      2  O   UNL     1     106.834 127.035 147.647  0.00  0.00    +0.000 OA
ATOM      3  O   UNL     1     106.140 127.205 144.856  0.00  0.00    +0.000 OA
ATOM      4  O   UNL     1     106.218 124.678 144.718  0.00  0.00    +0.000 OA
ATOM      5  C   UNL     1     106.699 125.835 146.883  0.00  0.00    +0.000 A 
ATOM      6  C   UNL     1     106.540 125.459 146.166  0.00  0.00    +0.000 A 
ATOM      7  C   UNL     1     106.674 126.658 146.931  0.00  0.00    +0.000 A 
ATOM      8  C   UNL     1     106.355 125.905 145.497  0.00  0.00    +0.000 A 
ATOM      9  C   UNL     1     106.490 127.105 146.261  0.00  0.00    +0.000 A 
ATOM     10  C   UNL     1     106.331 126.728 145.545  0.00  0.00    +0.000 A 
ATOM     11  C   UNL     1     106.191 125.501 144.756  0.00  0.00    +0.000 A 
ATOM     12  C   UNL     1     105.973 126.818 144.107  0.00  0.00    +0.000 A 
ATOM     13  C   UNL     1     105.999 125.961 144.057  0.00  0.00    +0.000 A 
ENDROOT
BRANCH   5  20
ATOM     14  O   UNL     1     106.280 125.103 148.036  0.00  0.00    +0.000 OA
ATOM     15  O   UNL     1     108.275 125.513 147.250  0.00  0.00    +0.000 OA
ATOM     16  O   UNL     1     108.644 124.620 148.588  0.00  0.00    +0.000 OA
ATOM     17  O   UNL     1     107.438 124.049 149.557  0.00  0.00    +0.000 OA
ATOM     18  C   UNL     1     107.671 125.228 147.735  0.00  0.00    +0.000 C 
ATOM     19  C   UNL     1     107.856 124.781 148.404  0.00  0.00    +0.000 C 
ATOM     20  C   UNL     1     106.883 125.389 147.551  0.00  0.00    +0.000 C 
ATOM     21  C   UNL     1     107.253 124.496 148.888  0.00  0.00    +0.000 C 
ATOM     22  C   UNL     1     106.465 124.657 148.704  0.00  0.00    +0.000 C 
BRANCH  22  24
ATOM     23  O   UNL     1     105.102 124.689 149.134  0.00  0.00    +0.000 OA
ATOM     24  C   UNL     1     105.862 124.371 149.189  0.00  0.00    +0.000 C 
ENDBRANCH  22  24
ENDBRANCH   5  20
BRANCH  12  26
ATOM     25  O   UNL     1     106.602 127.695 141.460  0.00  0.00    +0.000 OA
ATOM     26  C   UNL     1     105.789 127.268 143.440  0.00  0.00    +0.000 A 
ATOM     27  C   UNL     1     106.288 127.257 142.783  0.00  0.00    +0.000 A 
ATOM     28  C   UNL     1     105.105 127.730 143.430  0.00  0.00    +0.000 A 
ATOM     29  C   UNL     1     106.103 127.707 142.117  0.00  0.00    +0.000 A 
ATOM     30  C   UNL     1     104.920 128.180 142.764  0.00  0.00    +0.000 A 
ATOM     31  C   UNL     1     105.419 128.169 142.107  0.00  0.00    +0.000 A 
BRANCH  31  32
ATOM     32  O   UNL     1     105.235 128.619 141.440  0.00  0.00    +0.000 OA
ATOM     33  C   UNL     1     104.511 129.011 141.395  0.00  0.00    +0.000 C 
ENDBRANCH  31  32
ENDBRANCH  12  26
TORSDOF 4
ENDMDL
MODEL 4
REMARK VINA RESULT:      -9.2      8.146     10.482
REMARK  Name = 14861262
REMARK  4 active torsions:
REMARK  status: ('A' for Active; 'I' for Inactive)
REMARK    1  A    between atoms: O_10  and  C_32
REMARK    2  A    between atoms: C_14  and  C_17
REMARK    3  A    between atoms: C_16  and  C_18
REMARK    4  A    between atoms: C_25  and  C_27
REMARK                            x       y       z     vdW  Elec       q    Type
REMARK                         _______ _______ _______ _____ _____    ______ ____
ROOT
ATOM      1  O   UNL     1     113.909 126.152 139.400  0.00  0.00    +0.000 OA
ATOM      2  O   UNL     1     112.492 127.490 137.310  0.00  0.00    +0.000 OA
ATOM      3  O   UNL     1     113.097 128.908 139.744  0.00  0.00    +0.000 OA
ATOM      4  O   UNL     1     114.231 126.827 140.634  0.00  0.00    +0.000 OA
ATOM      5  C   UNL     1     113.201 126.821 138.355  0.00  0.00    +0.000 A 
ATOM      6  C   UNL     1     113.539 126.829 139.108  0.00  0.00    +0.000 A 
ATOM      7  C   UNL     1     112.830 127.497 138.063  0.00  0.00    +0.000 A 
ATOM      8  C   UNL     1     113.507 127.513 139.567  0.00  0.00    +0.000 A 
ATOM      9  C   UNL     1     112.798 128.182 138.523  0.00  0.00    +0.000 A 
ATOM     10  C   UNL     1     113.137 128.189 139.275  0.00  0.00    +0.000 A 
ATOM     11  C   UNL     1     113.863 127.508 140.350  0.00  0.00    +0.000 A 
ATOM     12  C   UNL     1     113.447 128.922 140.528  0.00  0.00    +0.000 A 
ATOM     13  C   UNL     1     113.833 128.218 140.833  0.00  0.00    +0.000 A 
ENDROOT
BRANCH   5  20
ATOM     14  O   UNL     1     113.893 125.987 137.424  0.00  0.00    +0.000 OA
ATOM     15  O   UNL     1     111.944 125.752 138.378  0.00  0.00    +0.000 OA
ATOM     16  O   UNL     1     112.007 124.383 137.459  0.00  0.00    +0.000 OA
ATOM     17  O   UNL     1     113.327 124.084 136.516  0.00  0.00    +0.000 OA
ATOM     18  C   UNL     1     112.604 125.603 137.907  0.00  0.00    +0.000 C 
ATOM     19  C   UNL     1     112.636 124.918 137.447  0.00  0.00    +0.000 C 
ATOM     20  C   UNL     1     113.233 126.137 137.896  0.00  0.00    +0.000 C 
ATOM     21  C   UNL     1     113.296 124.769 136.976  0.00  0.00    +0.000 C 
ATOM     22  C   UNL     1     113.925 125.303 136.964  0.00  0.00    +0.000 C 
BRANCH  22  24
ATOM     23  O   UNL     1     114.993 125.779 136.144  0.00  0.00    +0.000 OA
ATOM     24  C   UNL     1     114.584 125.153 136.493  0.00  0.00    +0.000 C 
ENDBRANCH  22  24
ENDBRANCH   5  20
BRANCH  12  26
ATOM     25  O   UNL     1     114.573 131.426 141.324  0.00  0.00    +0.000 OA
ATOM     26  C   UNL     1     113.413 129.609 140.986  0.00  0.00    +0.000 A 
ATOM     27  C   UNL     1     114.011 130.175 140.926  0.00  0.00    +0.000 A 
ATOM     28  C   UNL     1     112.781 129.728 141.502  0.00  0.00    +0.000 A 
ATOM     29  C   UNL     1     113.976 130.860 141.384  0.00  0.00    +0.000 A 
ATOM     30  C   UNL     1     112.747 130.414 141.960  0.00  0.00    +0.000 A 
ATOM     31  C   UNL     1     113.344 130.980 141.900  0.00  0.00    +0.000 A 
BRANCH  31  32
ATOM     32  O   UNL     1     113.310 131.666 142.358  0.00  0.00    +0.000 OA
ATOM     33  C   UNL     1     112.713 131.758 142.920  0.00  0.00    +0.000 C 
ENDBRANCH  31  32
ENDBRANCH  12  26
TORSDOF 4
ENDMDL
MODEL 5
REMARK VINA RESULT:      -9.2      2.160      4.280
REMARK  Name = 14861262
REMARK  4 active torsions:
REMARK  status: ('A' for Active; 'I' for Inactive)
REMARK    1  A    between atoms: O_10  and  C_32
REMARK    2  A    between atoms: C_14  and  C_17
REMARK    3  A    between atoms: C_16  and  C_18
REMARK    4  A    between atoms: C_25  and  C_27
REMARK                            x       y       z     vdW  Elec       q    Type
REMARK                         _______ _______ _______ _____ _____    ______ ____
ROOT
ATOM      1  O   UNL     1     106.747 126.159 144.782  0.00  0.00    +0.000 OA
ATOM      2  O   UNL     1     105.088 124.055 145.776  0.00  0.00    +0.000 OA
ATOM      3  O   UNL     1     105.460 124.342 142.934  0.00  0.00    +0.000 OA
ATOM      4  O   UNL     1     106.959 126.337 143.366  0.00  0.00    +0.000 OA
ATOM      5  C   UNL     1     105.918 125.107 145.280  0.00  0.00    +0.000 A 
ATOM      6  C   UNL     1     106.258 125.509 144.644  0.00  0.00    +0.000 A 
ATOM      7  C   UNL     1     105.429 124.457 145.142  0.00  0.00    +0.000 A 
ATOM      8  C   UNL     1     106.111 125.261 143.872  0.00  0.00    +0.000 A 
ATOM      9  C   UNL     1     105.281 124.208 144.369  0.00  0.00    +0.000 A 
ATOM     10  C   UNL     1     105.622 124.611 143.734  0.00  0.00    +0.000 A 
ATOM     11  C   UNL     1     106.471 125.688 143.219  0.00  0.00    +0.000 A 
ATOM     12  C   UNL     1     105.812 124.757 142.269  0.00  0.00    +0.000 A 
ATOM     13  C   UNL     1     106.321 125.434 142.412  0.00  0.00    +0.000 A 
ENDROOT
BRANCH   5  20
ATOM     14  O   UNL     1     106.740 125.093 146.448  0.00  0.00    +0.000 OA
ATOM     15  O   UNL     1     104.865 126.130 146.033  0.00  0.00    +0.000 OA
ATOM     16  O   UNL     1     105.160 126.627 147.579  0.00  0.00    +0.000 OA
ATOM     17  O   UNL     1     106.508 126.101 148.370  0.00  0.00    +0.000 OA
ATOM     18  C   UNL     1     105.539 125.867 146.428  0.00  0.00    +0.000 C 
ATOM     19  C   UNL     1     105.687 126.115 147.202  0.00  0.00    +0.000 C 
ATOM     20  C   UNL     1     106.066 125.356 146.052  0.00  0.00    +0.000 C 
ATOM     21  C   UNL     1     106.361 125.852 147.597  0.00  0.00    +0.000 C 
ATOM     22  C   UNL     1     106.888 125.341 147.221  0.00  0.00    +0.000 C 
BRANCH  22  24
ATOM     23  O   UNL     1     108.298 125.112 147.246  0.00  0.00    +0.000 OA
ATOM     24  C   UNL     1     107.561 125.079 147.616  0.00  0.00    +0.000 C 
ENDBRANCH  22  24
ENDBRANCH   5  20
BRANCH  12  26
ATOM     25  O   UNL     1     105.958 122.740 140.248  0.00  0.00    +0.000 OA
ATOM     26  C   UNL     1     105.662 124.505 141.497  0.00  0.00    +0.000 A 
ATOM     27  C   UNL     1     105.885 123.748 141.258  0.00  0.00    +0.000 A 
ATOM     28  C   UNL     1     105.288 125.012 140.964  0.00  0.00    +0.000 A 
ATOM     29  C   UNL     1     105.735 123.497 140.487  0.00  0.00    +0.000 A 
ATOM     30  C   UNL     1     105.138 124.762 140.192  0.00  0.00    +0.000 A 
ATOM     31  C   UNL     1     105.361 124.004 139.954  0.00  0.00    +0.000 A 
BRANCH  31  32
ATOM     32  O   UNL     1     105.211 123.753 139.182  0.00  0.00    +0.000 OA
ATOM     33  C   UNL     1     104.812 124.250 138.657  0.00  0.00    +0.000 C 
ENDBRANCH  31  32
ENDBRANCH  12  26
TORSDOF 4
ENDMDL
MODEL 6
REMARK VINA RESULT:      -9.2      7.314      8.679
REMARK  Name = 14861262
REMARK  4 active torsions:
REMARK  status: ('A' for Active; 'I' for Inactive)
REMARK    1  A    between atoms: O_10  and  C_32
REMARK    2  A    between atoms: C_14  and  C_17
REMARK    3  A    between atoms: C_16  and  C_18
REMARK    4  A    between atoms: C_25  and  C_27
REMARK                            x       y       z     vdW  Elec       q    Type
REMARK                         _______ _______ _______ _____ _____    ______ ____
ROOT
ATOM      1  O   UNL     1     110.224 129.505 135.134  0.00  0.00    +0.000 OA
ATOM      2  O   UNL     1     109.127 129.279 137.763  0.00  0.00    +0.000 OA
ATOM      3  O   UNL     1     110.959 127.268 136.815  0.00  0.00    +0.000 OA
ATOM      4  O   UNL     1     111.144 128.519 134.622  0.00  0.00    +0.000 OA
ATOM      5  C   UNL     1     109.675 129.393 136.448  0.00  0.00    +0.000 A 
ATOM      6  C   UNL     1     110.162 129.099 135.849  0.00  0.00    +0.000 A 
ATOM      7  C   UNL     1     109.613 128.987 137.164  0.00  0.00    +0.000 A 
ATOM      8  C   UNL     1     110.585 128.402 135.966  0.00  0.00    +0.000 A 
ATOM      9  C   UNL     1     110.037 128.288 137.281  0.00  0.00    +0.000 A 
ATOM     10  C   UNL     1     110.523 127.996 136.682  0.00  0.00    +0.000 A 
ATOM     11  C   UNL     1     111.088 128.107 135.334  0.00  0.00    +0.000 A 
ATOM     12  C   UNL     1     111.467 126.958 136.195  0.00  0.00    +0.000 A 
ATOM     13  C   UNL     1     111.532 127.380 135.450  0.00  0.00    +0.000 A 
ENDROOT
BRANCH   5  20
ATOM     14  O   UNL     1     109.612 130.820 136.468  0.00  0.00    +0.000 OA
ATOM     15  O   UNL     1     108.106 129.330 135.943  0.00  0.00    +0.000 OA
ATOM     16  O   UNL     1     107.258 130.726 135.709  0.00  0.00    +0.000 OA
ATOM     17  O   UNL     1     107.980 132.184 135.982  0.00  0.00    +0.000 OA
ATOM     18  C   UNL     1     108.467 130.059 136.079  0.00  0.00    +0.000 C 
ATOM     19  C   UNL     1     108.043 130.758 135.962  0.00  0.00    +0.000 C 
ATOM     20  C   UNL     1     109.252 130.090 136.332  0.00  0.00    +0.000 C 
ATOM     21  C   UNL     1     108.404 131.487 136.098  0.00  0.00    +0.000 C 
ATOM     22  C   UNL     1     109.189 131.518 136.351  0.00  0.00    +0.000 C 
BRANCH  22  24
ATOM     23  O   UNL     1     110.195 132.299 136.998  0.00  0.00    +0.000 OA
ATOM     24  C   UNL     1     109.549 132.247 136.487  0.00  0.00    +0.000 C 
ENDBRANCH  22  24
ENDBRANCH   5  20
BRANCH  12  26
ATOM     25  O   UNL     1     111.575 124.102 136.215  0.00  0.00    +0.000 OA
ATOM     26  C   UNL     1     111.889 126.259 136.315  0.00  0.00    +0.000 A 
ATOM     27  C   UNL     1     111.521 125.530 136.205  0.00  0.00    +0.000 A 
ATOM     28  C   UNL     1     112.681 126.291 136.546  0.00  0.00    +0.000 A 
ATOM     29  C   UNL     1     111.944 124.831 136.325  0.00  0.00    +0.000 A 
ATOM     30  C   UNL     1     113.104 125.593 136.667  0.00  0.00    +0.000 A 
ATOM     31  C   UNL     1     112.735 124.863 136.556  0.00  0.00    +0.000 A 
BRANCH  31  32
ATOM     32  O   UNL     1     113.158 124.164 136.676  0.00  0.00    +0.000 OA
ATOM     33  C   UNL     1     113.915 124.192 137.003  0.00  0.00    +0.000 C 
ENDBRANCH  31  32
ENDBRANCH  12  26
TORSDOF 4
ENDMDL
MODEL 7
REMARK VINA RESULT:      -9.1      7.510      8.575
REMARK  Name = 14861262
REMARK  4 active torsions:
REMARK  status: ('A' for Active; 'I' for Inactive)
REMARK    1  A    between atoms: O_10  and  C_32
REMARK    2  A    between atoms: C_14  and  C_17
REMARK    3  A    between atoms: C_16  and  C_18
REMARK    4  A    between atoms: C_25  and  C_27
REMARK                            x       y       z     vdW  Elec       q    Type
REMARK                         _______ _______ _______ _____ _____    ______ ____
ROOT
ATOM      1  O   UNL     1     111.072 125.795 135.438  0.00  0.00    +0.000 OA
ATOM      2  O   UNL     1     112.125 126.822 137.888  0.00  0.00    +0.000 OA
ATOM      3  O   UNL     1     110.381 128.471 136.295  0.00  0.00    +0.000 OA
ATOM      4  O   UNL     1     110.195 126.588 134.612  0.00  0.00    +0.000 OA
ATOM      5  C   UNL     1     111.599 126.308 136.663  0.00  0.00    +0.000 A 
ATOM      6  C   UNL     1     111.134 126.406 135.988  0.00  0.00    +0.000 A 
ATOM      7  C   UNL     1     111.661 126.920 137.213  0.00  0.00    +0.000 A 
ATOM      8  C   UNL     1     110.732 127.115 135.864  0.00  0.00    +0.000 A 
ATOM      9  C   UNL     1     111.259 127.630 137.089  0.00  0.00    +0.000 A 
ATOM     10  C   UNL     1     110.795 127.727 136.414  0.00  0.00    +0.000 A 
ATOM     11  C   UNL     1     110.252 127.205 135.157  0.00  0.00    +0.000 A 
ATOM     12  C   UNL     1     109.896 128.579 135.594  0.00  0.00    +0.000 A 
ATOM     13  C   UNL     1     109.831 127.942 135.021  0.00  0.00    +0.000 A 
ENDROOT
BRANCH   5  20
ATOM     14  O   UNL     1     112.766 125.501 136.497  0.00  0.00    +0.000 OA
ATOM     15  O   UNL     1     110.871 125.083 137.496  0.00  0.00    +0.000 OA
ATOM     16  O   UNL     1     111.675 123.664 137.746  0.00  0.00    +0.000 OA
ATOM     17  O   UNL     1     113.206 123.470 137.163  0.00  0.00    +0.000 OA
ATOM     18  C   UNL     1     111.637 124.987 137.205  0.00  0.00    +0.000 C 
ATOM     19  C   UNL     1     112.039 124.277 137.330  0.00  0.00    +0.000 C 
ATOM     20  C   UNL     1     112.001 125.599 136.788  0.00  0.00    +0.000 C 
ATOM     21  C   UNL     1     112.805 124.180 137.038  0.00  0.00    +0.000 C 
ATOM     22  C   UNL     1     113.168 124.792 136.622  0.00  0.00    +0.000 C 
BRANCH  22  24
ATOM     23  O   UNL     1     114.540 125.191 136.589  0.00  0.00    +0.000 OA
ATOM     24  C   UNL     1     113.933 124.695 136.330  0.00  0.00    +0.000 C 
ENDBRANCH  22  24
ENDBRANCH   5  20
BRANCH  12  26
ATOM     25  O   UNL     1     107.669 130.290 136.129  0.00  0.00    +0.000 OA
ATOM     26  C   UNL     1     109.495 129.290 135.473  0.00  0.00    +0.000 A 
ATOM     27  C   UNL     1     108.782 129.434 135.862  0.00  0.00    +0.000 A 
ATOM     28  C   UNL     1     109.808 129.857 134.961  0.00  0.00    +0.000 A 
ATOM     29  C   UNL     1     108.382 130.145 135.740  0.00  0.00    +0.000 A 
ATOM     30  C   UNL     1     109.408 130.568 134.839  0.00  0.00    +0.000 A 
ATOM     31  C   UNL     1     108.695 130.712 135.229  0.00  0.00    +0.000 A 
BRANCH  31  32
ATOM     32  O   UNL     1     108.294 131.424 135.107  0.00  0.00    +0.000 OA
ATOM     33  C   UNL     1     108.618 132.000 134.613  0.00  0.00    +0.000 C 
ENDBRANCH  31  32
ENDBRANCH  12  26
TORSDOF 4
ENDMDL
MODEL 8
REMARK VINA RESULT:      -9.1      4.165      6.187
REMARK  Name = 14861262
REMARK  4 active torsions:
REMARK  status: ('A' for Active; 'I' for Inactive)
REMARK    1  A    between atoms: O_10  and  C_32
REMARK    2  A    between atoms: C_14  and  C_17
REMARK    3  A    between atoms: C_16  and  C_18
REMARK    4  A    between atoms: C_25  and  C_27
REMARK                            x       y       z     vdW  Elec       q    Type
REMARK                         _______ _______ _______ _____ _____    ______ ____
ROOT
ATOM      1  O   UNL     1     106.676 127.135 146.926  0.00  0.00    +0.000 OA
ATOM      2  O   UNL     1     105.970 124.469 146.177  0.00  0.00    +0.000 OA
ATOM      3  O   UNL     1     105.531 126.626 144.318  0.00  0.00    +0.000 OA
ATOM      4  O   UNL     1     106.473 128.242 146.025  0.00  0.00    +0.000 OA
ATOM      5  C   UNL     1     106.323 125.802 146.552  0.00  0.00    +0.000 A 
ATOM      6  C   UNL     1     106.370 126.606 146.372  0.00  0.00    +0.000 A 
ATOM      7  C   UNL     1     106.017 125.273 145.998  0.00  0.00    +0.000 A 
ATOM      8  C   UNL     1     106.111 126.881 145.640  0.00  0.00    +0.000 A 
ATOM      9  C   UNL     1     105.758 125.548 145.264  0.00  0.00    +0.000 A 
ATOM     10  C   UNL     1     105.805 126.352 145.085  0.00  0.00    +0.000 A 
ATOM     11  C   UNL     1     106.165 127.721 145.464  0.00  0.00    +0.000 A 
ATOM     12  C   UNL     1     105.578 127.462 144.125  0.00  0.00    +0.000 A 
ATOM     13  C   UNL     1     105.897 128.013 144.702  0.00  0.00    +0.000 A 
ENDROOT
BRANCH   5  20
ATOM     14  O   UNL     1     106.064 125.510 147.927  0.00  0.00    +0.000 OA
ATOM     15  O   UNL     1     107.879 125.286 146.736  0.00  0.00    +0.000 OA
ATOM     16  O   UNL     1     108.398 124.735 148.203  0.00  0.00    +0.000 OA
ATOM     17  O   UNL     1     107.361 124.702 149.485  0.00  0.00    +0.000 OA
ATOM     18  C   UNL     1     107.360 125.269 147.377  0.00  0.00    +0.000 C 
ATOM     19  C   UNL     1     107.620 124.994 148.111  0.00  0.00    +0.000 C 
ATOM     20  C   UNL     1     106.582 125.527 147.285  0.00  0.00    +0.000 C 
ATOM     21  C   UNL     1     107.101 124.977 148.752  0.00  0.00    +0.000 C 
ATOM     22  C   UNL     1     106.323 125.236 148.660  0.00  0.00    +0.000 C 
BRANCH  22  24
ATOM     23  O   UNL     1     104.997 125.108 149.176  0.00  0.00    +0.000 OA
ATOM     24  C   UNL     1     105.805 125.219 149.301  0.00  0.00    +0.000 C 
ENDBRANCH  22  24
ENDBRANCH   5  20
BRANCH  12  26
ATOM     25  O   UNL     1     105.608 127.298 141.272  0.00  0.00    +0.000 OA
ATOM     26  C   UNL     1     105.318 127.734 143.391  0.00  0.00    +0.000 A 
ATOM     27  C   UNL     1     105.593 127.380 142.698  0.00  0.00    +0.000 A 
ATOM     28  C   UNL     1     104.782 128.360 143.349  0.00  0.00    +0.000 A 
ATOM     29  C   UNL     1     105.332 127.652 141.964  0.00  0.00    +0.000 A 
ATOM     30  C   UNL     1     104.521 128.631 142.615  0.00  0.00    +0.000 A 
ATOM     31  C   UNL     1     104.796 128.277 141.923  0.00  0.00    +0.000 A 
BRANCH  31  32
ATOM     32  O   UNL     1     104.536 128.549 141.188  0.00  0.00    +0.000 OA
ATOM     33  C   UNL     1     103.794 128.902 141.119  0.00  0.00    +0.000 C 
ENDBRANCH  31  32
ENDBRANCH  12  26
TORSDOF 4
ENDMDL
MODEL 9
REMARK VINA RESULT:      -9.0      2.955      6.734
REMARK  Name = 14861262
REMARK  4 active torsions:
REMARK  status: ('A' for Active; 'I' for Inactive)
REMARK    1  A    between atoms: O_10  and  C_32
REMARK    2  A    between atoms: C_14  and  C_17
REMARK    3  A    between atoms: C_16  and  C_18
REMARK    4  A    between atoms: C_25  and  C_27
REMARK                            x       y       z     vdW  Elec       q    Type
REMARK                         _______ _______ _______ _____ _____    ______ ____
ROOT
ATOM      1  O   UNL     1     105.217 124.153 143.146  0.00  0.00    +0.000 OA
ATOM      2  O   UNL     1     106.984 126.395 143.291  0.00  0.00    +0.000 OA
ATOM      3  O   UNL     1     105.699 125.447 145.689  0.00  0.00    +0.000 OA
ATOM      4  O   UNL     1     104.554 123.648 144.324  0.00  0.00    +0.000 OA
ATOM      5  C   UNL     1     106.100 125.274 143.218  0.00  0.00    +0.000 A 
ATOM      6  C   UNL     1     105.591 124.740 143.589  0.00  0.00    +0.000 A 
ATOM      7  C   UNL     1     106.475 125.861 143.660  0.00  0.00    +0.000 A 
ATOM      8  C   UNL     1     105.457 124.794 144.400  0.00  0.00    +0.000 A 
ATOM      9  C   UNL     1     106.340 125.915 144.473  0.00  0.00    +0.000 A 
ATOM     10  C   UNL     1     105.831 125.381 144.842  0.00  0.00    +0.000 A 
ATOM     11  C   UNL     1     104.924 124.232 144.774  0.00  0.00    +0.000 A 
ATOM     12  C   UNL     1     105.170 124.895 146.080  0.00  0.00    +0.000 A 
ATOM     13  C   UNL     1     104.780 124.283 145.620  0.00  0.00    +0.000 A 
ENDROOT
BRANCH   5  20
ATOM     14  O   UNL     1     106.794 124.688 142.114  0.00  0.00    +0.000 OA
ATOM     15  O   UNL     1     105.251 126.230 142.176  0.00  0.00    +0.000 OA
ATOM     16  O   UNL     1     105.520 126.123 140.552  0.00  0.00    +0.000 OA
ATOM     17  O   UNL     1     106.638 125.060 139.970  0.00  0.00    +0.000 OA
ATOM     18  C   UNL     1     105.810 125.698 141.885  0.00  0.00    +0.000 C 
ATOM     19  C   UNL     1     105.945 125.645 141.072  0.00  0.00    +0.000 C 
ATOM     20  C   UNL     1     106.235 125.220 142.406  0.00  0.00    +0.000 C 
ATOM     21  C   UNL     1     106.504 125.113 140.782  0.00  0.00    +0.000 C 
ATOM     22  C   UNL     1     106.929 124.635 141.303  0.00  0.00    +0.000 C 
BRANCH  22  24
ATOM     23  O   UNL     1     108.146 123.904 141.468  0.00  0.00    +0.000 OA
ATOM     24  C   UNL     1     107.488 124.103 141.012  0.00  0.00    +0.000 C 
ENDBRANCH  22  24
ENDBRANCH   5  20
BRANCH  12  26
ATOM     25  O   UNL     1     105.999 124.378 148.766  0.00  0.00    +0.000 OA
ATOM     26  C   UNL     1     105.038 124.952 146.893  0.00  0.00    +0.000 A 
ATOM     27  C   UNL     1     105.585 124.636 147.423  0.00  0.00    +0.000 A 
ATOM     28  C   UNL     1     104.357 125.324 147.174  0.00  0.00    +0.000 A 
ATOM     29  C   UNL     1     105.452 124.694 148.236  0.00  0.00    +0.000 A 
ATOM     30  C   UNL     1     104.224 125.381 147.986  0.00  0.00    +0.000 A 
ATOM     31  C   UNL     1     104.772 125.066 148.517  0.00  0.00    +0.000 A 
BRANCH  31  32
ATOM     32  O   UNL     1     104.639 125.123 149.330  0.00  0.00    +0.000 OA
ATOM     33  C   UNL     1     103.957 125.492 149.611  0.00  0.00    +0.000 C 
ENDBRANCH  31  32
ENDBRANCH  12  26
TORSDOF 4
ENDMDL
MODEL 10
REMARK VINA RESULT:      -8.8      7.151      8.222
REMARK  Name = 14861262
REMARK  4 active torsions:
REMARK  status: ('A' for Active; 'I' for Inactive)
REMARK    1  A    between atoms: O_10  and  C_32
REMARK    2  A    between atoms: C_14  and  C_17
REMARK    3  A    between atoms: C_16  and  C_18
REMARK    4  A    between atoms: C_25  and  C_27
REMARK                            x       y       z     vdW  Elec       q    Type
REMARK                         _______ _______ _______ _____ _____    ______ ____
ROOT
ATOM      1  O   UNL     1     111.723 130.189 137.571  0.00  0.00    +0.000 OA
ATOM      2  O   UNL     1     108.917 129.862 138.002  0.00  0.00    +0.000 OA
ATOM      3  O   UNL     1     110.515 127.576 137.277  0.00  0.00    +0.000 OA
ATOM      4  O   UNL     1     112.558 129.070 137.207  0.00  0.00    +0.000 OA
ATOM      5  C   UNL     1     110.320 130.026 137.786  0.00  0.00    +0.000 A 
ATOM      6  C   UNL     1     111.056 129.705 137.594  0.00  0.00    +0.000 A 
ATOM      7  C   UNL     1     109.653 129.542 137.810  0.00  0.00    +0.000 A 
ATOM      8  C   UNL     1     111.124 128.901 137.426  0.00  0.00    +0.000 A 
ATOM      9  C   UNL     1     109.721 128.737 137.642  0.00  0.00    +0.000 A 
ATOM     10  C   UNL     1     110.456 128.417 137.450  0.00  0.00    +0.000 A 
ATOM     11  C   UNL     1     111.896 128.578 137.228  0.00  0.00    +0.000 A 
ATOM     12  C   UNL     1     111.278 127.237 137.076  0.00  0.00    +0.000 A 
ATOM     13  C   UNL     1     111.973 127.741 137.052  0.00  0.00    +0.000 A 
ENDROOT
BRANCH   5  20
ATOM     14  O   UNL     1     110.156 131.374 137.341  0.00  0.00    +0.000 OA
ATOM     15  O   UNL     1     110.376 130.550 139.350  0.00  0.00    +0.000 OA
ATOM     16  O   UNL     1     110.240 132.159 139.687  0.00  0.00    +0.000 OA
ATOM     17  O   UNL     1     110.048 133.244 138.460  0.00  0.00    +0.000 OA
ATOM     18  C   UNL     1     110.280 131.092 138.736  0.00  0.00    +0.000 C 
ATOM     19  C   UNL     1     110.212 131.897 138.905  0.00  0.00    +0.000 C 
ATOM     20  C   UNL     1     110.252 130.830 137.954  0.00  0.00    +0.000 C 
ATOM     21  C   UNL     1     110.116 132.440 138.291  0.00  0.00    +0.000 C 
ATOM     22  C   UNL     1     110.088 132.178 137.509  0.00  0.00    +0.000 C 
BRANCH  22  24
ATOM     23  O   UNL     1     109.596 132.500 136.207  0.00  0.00    +0.000 OA
ATOM     24  C   UNL     1     109.991 132.721 136.896  0.00  0.00    +0.000 C 
ENDBRANCH  22  24
ENDBRANCH   5  20
BRANCH  12  26
ATOM     25  O   UNL     1     110.747 125.015 135.359  0.00  0.00    +0.000 OA
ATOM     26  C   UNL     1     111.342 126.431 136.909  0.00  0.00    +0.000 A 
ATOM     27  C   UNL     1     111.012 126.126 136.217  0.00  0.00    +0.000 A 
ATOM     28  C   UNL     1     111.737 125.932 137.433  0.00  0.00    +0.000 A 
ATOM     29  C   UNL     1     111.077 125.320 136.050  0.00  0.00    +0.000 A 
ATOM     30  C   UNL     1     111.802 125.126 137.267  0.00  0.00    +0.000 A 
ATOM     31  C   UNL     1     111.472 124.821 136.575  0.00  0.00    +0.000 A 
BRANCH  31  32
ATOM     32  O   UNL     1     111.536 124.015 136.407  0.00  0.00    +0.000 OA
ATOM     33  C   UNL     1     111.941 123.517 136.926  0.00  0.00    +0.000 C 
ENDBRANCH  31  32
ENDBRANCH  12  26
TORSDOF 4
ENDMDL
