MODEL 1
REMARK VINA RESULT:     -10.5      0.000      0.000
REMARK  Name = 44257729
REMARK  6 active torsions:
REMARK  status: ('A' for Active; 'I' for Inactive)
REMARK    1  A    between atoms: O_5  and  C_21
REMARK    2  A    between atoms: O_5  and  C_28
REMARK    3  A    between atoms: C_18  and  C_20
REMARK    4  A    between atoms: C_19  and  C_21
REMARK    5  A    between atoms: C_28  and  C_31
REMARK    6  A    between atoms: C_30  and  C_32
REMARK                            x       y       z     vdW  Elec       q    Type
REMARK                         _______ _______ _______ _____ _____    ______ ____
ROOT
ATOM      1  O   UNL     1     112.591 130.291 136.829  0.00  0.00    +0.000 OA
ATOM      2  O   UNL     1     114.763 131.133 135.992  0.00  0.00    +0.000 OA
ATOM      3  O   UNL     1     114.437 129.516 135.959  0.00  0.00    +0.000 OA
ATOM      4  O   UNL     1     113.641 132.189 136.584  0.00  0.00    +0.000 OA
ATOM      5  C   UNL     1     114.039 130.853 136.271  0.00  0.00    +0.000 C 
ATOM      6  C   UNL     1     113.876 130.045 136.254  0.00  0.00    +0.000 C 
ATOM      7  C   UNL     1     113.478 131.381 136.567  0.00  0.00    +0.000 C 
ATOM      8  C   UNL     1     113.152 129.764 136.533  0.00  0.00    +0.000 C 
ATOM      9  C   UNL     1     112.755 131.100 136.846  0.00  0.00    +0.000 C 
ENDROOT
BRANCH   8  14
ATOM     10  O   UNL     1     113.450 128.835 137.864  0.00  0.00    +0.000 OA
ATOM     11  O   UNL     1     112.529 129.076 135.170  0.00  0.00    +0.000 OA
ATOM     12  O   UNL     1     112.489 126.497 136.454  0.00  0.00    +0.000 OA
ATOM     13  O   UNL     1     113.446 127.561 138.543  0.00  0.00    +0.000 OA
ATOM     14  C   UNL     1     112.989 128.955 136.517  0.00  0.00    +0.000 A 
ATOM     15  C   UNL     1     113.138 128.491 137.182  0.00  0.00    +0.000 A 
ATOM     16  C   UNL     1     112.677 128.611 135.835  0.00  0.00    +0.000 A 
ATOM     17  C   UNL     1     112.975 127.682 137.166  0.00  0.00    +0.000 A 
ATOM     18  C   UNL     1     112.514 127.803 135.819  0.00  0.00    +0.000 A 
ATOM     19  C   UNL     1     112.663 127.338 136.484  0.00  0.00    +0.000 A 
ATOM     20  C   UNL     1     113.134 127.209 137.865  0.00  0.00    +0.000 A 
ATOM     21  C   UNL     1     112.966 126.366 137.854  0.00  0.00    +0.000 A 
ATOM     22  C   UNL     1     112.642 126.008 137.144  0.00  0.00    +0.000 A 
BRANCH  22  24
ATOM     23  O   UNL     1     111.984 122.775 137.065  0.00  0.00    +0.000 OA
ATOM     24  C   UNL     1     112.478 125.200 137.124  0.00  0.00    +0.000 A 
ATOM     25  C   UNL     1     111.728 124.925 137.334  0.00  0.00    +0.000 A 
ATOM     26  C   UNL     1     113.062 124.666 136.895  0.00  0.00    +0.000 A 
ATOM     27  C   UNL     1     111.564 124.118 137.315  0.00  0.00    +0.000 A 
ATOM     28  C   UNL     1     112.898 123.857 136.875  0.00  0.00    +0.000 A 
ATOM     29  C   UNL     1     112.149 123.583 137.085  0.00  0.00    +0.000 A 
ENDBRANCH  22  24
ENDBRANCH   8  14
BRANCH   9  30
ATOM     30  C   UNL     1     112.194 131.628 137.142  0.00  0.00    +0.000 C 
BRANCH  30  31
ATOM     31  O   UNL     1     111.391 131.498 137.000  0.00  0.00    +0.000 OA
BRANCH  31  33
ATOM     32  O   UNL     1     111.065 132.630 137.809  0.00  0.00    +0.000 OA
ATOM     33  C   UNL     1     110.828 132.006 137.323  0.00  0.00    +0.000 C 
BRANCH  33  37
ATOM     34  O   UNL     1     108.596 132.279 135.559  0.00  0.00    +0.000 OA
ATOM     35  O   UNL     1     108.255 131.043 138.113  0.00  0.00    +0.000 OA
ATOM     36  O   UNL     1     107.625 131.546 136.674  0.00  0.00    +0.000 OA
ATOM     37  C   UNL     1     110.026 131.891 137.161  0.00  0.00    +0.000 A 
ATOM     38  C   UNL     1     109.541 131.525 137.718  0.00  0.00    +0.000 A 
ATOM     39  C   UNL     1     109.711 132.143 136.441  0.00  0.00    +0.000 A 
ATOM     40  C   UNL     1     108.911 132.027 136.279  0.00  0.00    +0.000 A 
ATOM     41  C   UNL     1     108.741 131.410 137.555  0.00  0.00    +0.000 A 
ATOM     42  C   UNL     1     108.426 131.661 136.835  0.00  0.00    +0.000 A 
ENDBRANCH  33  37
ENDBRANCH  31  33
ENDBRANCH  30  31
ENDBRANCH   9  30
TORSDOF 6
ENDMDL
MODEL 2
REMARK VINA RESULT:     -10.5      8.212     11.486
REMARK  Name = 44257729
REMARK  6 active torsions:
REMARK  status: ('A' for Active; 'I' for Inactive)
REMARK    1  A    between atoms: O_5  and  C_21
REMARK    2  A    between atoms: O_5  and  C_28
REMARK    3  A    between atoms: C_18  and  C_20
REMARK    4  A    between atoms: C_19  and  C_21
REMARK    5  A    between atoms: C_28  and  C_31
REMARK    6  A    between atoms: C_30  and  C_32
REMARK                            x       y       z     vdW  Elec       q    Type
REMARK                         _______ _______ _______ _____ _____    ______ ____
ROOT
ATOM      1  O   UNL     1     105.471 126.965 142.837  0.00  0.00    +0.000 OA
ATOM      2  O   UNL     1     107.578 127.026 141.541  0.00  0.00    +0.000 OA
ATOM      3  O   UNL     1     106.562 128.326 141.525  0.00  0.00    +0.000 OA
ATOM      4  O   UNL     1     107.189 125.686 142.421  0.00  0.00    +0.000 OA
ATOM      5  C   UNL     1     106.875 127.006 141.973  0.00  0.00    +0.000 C 
ATOM      6  C   UNL     1     106.368 127.656 141.965  0.00  0.00    +0.000 C 
ATOM      7  C   UNL     1     106.682 126.335 142.413  0.00  0.00    +0.000 C 
ATOM      8  C   UNL     1     105.665 127.635 142.397  0.00  0.00    +0.000 C 
ATOM      9  C   UNL     1     105.979 126.315 142.845  0.00  0.00    +0.000 C 
ENDROOT
BRANCH   8  14
ATOM     10  O   UNL     1     104.535 127.784 141.205  0.00  0.00    +0.000 OA
ATOM     11  O   UNL     1     105.779 128.786 143.574  0.00  0.00    +0.000 OA
ATOM     12  O   UNL     1     103.617 130.266 142.377  0.00  0.00    +0.000 OA
ATOM     13  O   UNL     1     103.449 128.496 140.575  0.00  0.00    +0.000 OA
ATOM     14  C   UNL     1     105.157 128.286 142.390  0.00  0.00    +0.000 A 
ATOM     15  C   UNL     1     104.592 128.359 141.793  0.00  0.00    +0.000 A 
ATOM     16  C   UNL     1     105.214 128.861 142.978  0.00  0.00    +0.000 A 
ATOM     17  C   UNL     1     104.083 129.010 141.786  0.00  0.00    +0.000 A 
ATOM     18  C   UNL     1     104.706 129.510 142.970  0.00  0.00    +0.000 A 
ATOM     19  C   UNL     1     104.140 129.585 142.374  0.00  0.00    +0.000 A 
ATOM     20  C   UNL     1     103.499 129.076 141.159  0.00  0.00    +0.000 A 
ATOM     21  C   UNL     1     102.966 129.751 141.146  0.00  0.00    +0.000 A 
ATOM     22  C   UNL     1     103.026 130.350 141.758  0.00  0.00    +0.000 A 
BRANCH  22  24
ATOM     23  O   UNL     1     100.999 132.954 141.738  0.00  0.00    +0.000 OA
ATOM     24  C   UNL     1     102.520 131.000 141.754  0.00  0.00    +0.000 A 
ATOM     25  C   UNL     1     102.750 131.700 141.382  0.00  0.00    +0.000 A 
ATOM     26  C   UNL     1     101.782 130.952 142.120  0.00  0.00    +0.000 A 
ATOM     27  C   UNL     1     102.243 132.351 141.377  0.00  0.00    +0.000 A 
ATOM     28  C   UNL     1     101.276 131.603 142.115  0.00  0.00    +0.000 A 
ATOM     29  C   UNL     1     101.506 132.302 141.744  0.00  0.00    +0.000 A 
ENDBRANCH  22  24
ENDBRANCH   8  14
BRANCH   9  30
ATOM     30  C   UNL     1     105.784 125.645 143.285  0.00  0.00    +0.000 C 
BRANCH  30  31
ATOM     31  O   UNL     1     105.627 125.714 144.093  0.00  0.00    +0.000 OA
BRANCH  31  33
ATOM     32  O   UNL     1     105.182 124.357 144.141  0.00  0.00    +0.000 OA
ATOM     33  C   UNL     1     105.412 125.047 144.528  0.00  0.00    +0.000 C 
BRANCH  33  37
ATOM     34  O   UNL     1     106.857 124.820 146.984  0.00  0.00    +0.000 OA
ATOM     35  O   UNL     1     104.063 125.421 147.020  0.00  0.00    +0.000 OA
ATOM     36  O   UNL     1     105.476 125.145 147.826  0.00  0.00    +0.000 OA
ATOM     37  C   UNL     1     105.428 125.072 145.354  0.00  0.00    +0.000 A 
ATOM     38  C   UNL     1     104.738 125.234 145.774  0.00  0.00    +0.000 A 
ATOM     39  C   UNL     1     106.135 124.934 145.757  0.00  0.00    +0.000 A 
ATOM     40  C   UNL     1     106.151 124.958 146.581  0.00  0.00    +0.000 A 
ATOM     41  C   UNL     1     104.755 125.258 146.599  0.00  0.00    +0.000 A 
ATOM     42  C   UNL     1     105.461 125.121 147.002  0.00  0.00    +0.000 A 
ENDBRANCH  33  37
ENDBRANCH  31  33
ENDBRANCH  30  31
ENDBRANCH   9  30
TORSDOF 6
ENDMDL
MODEL 3
REMARK VINA RESULT:     -10.4      6.670      8.797
REMARK  Name = 44257729
REMARK  6 active torsions:
REMARK  status: ('A' for Active; 'I' for Inactive)
REMARK    1  A    between atoms: O_5  and  C_21
REMARK    2  A    between atoms: O_5  and  C_28
REMARK    3  A    between atoms: C_18  and  C_20
REMARK    4  A    between atoms: C_19  and  C_21
REMARK    5  A    between atoms: C_28  and  C_31
REMARK    6  A    between atoms: C_30  and  C_32
REMARK                            x       y       z     vdW  Elec       q    Type
REMARK                         _______ _______ _______ _____ _____    ______ ____
ROOT
ATOM      1  O   UNL     1     107.001 126.261 141.768  0.00  0.00    +0.000 OA
ATOM      2  O   UNL     1     106.161 126.130 144.093  0.00  0.00    +0.000 OA
ATOM      3  O   UNL     1     105.409 125.281 142.894  0.00  0.00    +0.000 OA
ATOM      4  O   UNL     1     107.474 127.066 143.741  0.00  0.00    +0.000 OA
ATOM      5  C   UNL     1     106.441 126.174 143.318  0.00  0.00    +0.000 C 
ATOM      6  C   UNL     1     106.065 125.750 142.719  0.00  0.00    +0.000 C 
ATOM      7  C   UNL     1     107.098 126.642 143.143  0.00  0.00    +0.000 C 
ATOM      8  C   UNL     1     106.345 125.793 141.944  0.00  0.00    +0.000 C 
ATOM      9  C   UNL     1     107.378 126.686 142.368  0.00  0.00    +0.000 C 
ENDROOT
BRANCH   8  14
ATOM     10  O   UNL     1     105.220 126.533 140.991  0.00  0.00    +0.000 OA
ATOM     11  O   UNL     1     106.718 124.205 141.699  0.00  0.00    +0.000 OA
ATOM     12  O   UNL     1     104.832 124.068 139.525  0.00  0.00    +0.000 OA
ATOM     13  O   UNL     1     104.265 126.506 139.909  0.00  0.00    +0.000 OA
ATOM     14  C   UNL     1     105.969 125.369 141.345  0.00  0.00    +0.000 A 
ATOM     15  C   UNL     1     105.406 125.739 140.869  0.00  0.00    +0.000 A 
ATOM     16  C   UNL     1     106.155 124.575 141.222  0.00  0.00    +0.000 A 
ATOM     17  C   UNL     1     105.030 125.315 140.269  0.00  0.00    +0.000 A 
ATOM     18  C   UNL     1     105.779 124.151 140.623  0.00  0.00    +0.000 A 
ATOM     19  C   UNL     1     105.217 124.520 140.146  0.00  0.00    +0.000 A 
ATOM     20  C   UNL     1     104.446 125.711 139.779  0.00  0.00    +0.000 A 
ATOM     21  C   UNL     1     104.051 125.275 139.153  0.00  0.00    +0.000 A 
ATOM     22  C   UNL     1     104.245 124.448 139.025  0.00  0.00    +0.000 A 
BRANCH  22  24
ATOM     23  O   UNL     1     102.747 122.740 136.632  0.00  0.00    +0.000 OA
ATOM     24  C   UNL     1     103.871 124.021 138.428  0.00  0.00    +0.000 A 
ATOM     25  C   UNL     1     103.057 123.886 138.463  0.00  0.00    +0.000 A 
ATOM     26  C   UNL     1     104.309 123.729 137.793  0.00  0.00    +0.000 A 
ATOM     27  C   UNL     1     102.683 123.459 137.865  0.00  0.00    +0.000 A 
ATOM     28  C   UNL     1     103.934 123.302 137.195  0.00  0.00    +0.000 A 
ATOM     29  C   UNL     1     103.122 123.167 137.230  0.00  0.00    +0.000 A 
ENDBRANCH  22  24
ENDBRANCH   8  14
BRANCH   9  30
ATOM     30  C   UNL     1     108.034 127.154 142.192  0.00  0.00    +0.000 C 
BRANCH  30  31
ATOM     31  O   UNL     1     108.611 126.875 141.672  0.00  0.00    +0.000 OA
BRANCH  31  33
ATOM     32  O   UNL     1     109.206 128.174 141.623  0.00  0.00    +0.000 OA
ATOM     33  C   UNL     1     109.227 127.371 141.436  0.00  0.00    +0.000 C 
BRANCH  33  37
ATOM     34  O   UNL     1     110.442 126.681 138.943  0.00  0.00    +0.000 OA
ATOM     35  O   UNL     1     111.839 126.210 141.392  0.00  0.00    +0.000 OA
ATOM     36  O   UNL     1     111.778 126.137 139.744  0.00  0.00    +0.000 OA
ATOM     37  C   UNL     1     109.865 127.062 141.013  0.00  0.00    +0.000 A 
ATOM     38  C   UNL     1     110.533 126.790 141.414  0.00  0.00    +0.000 A 
ATOM     39  C   UNL     1     109.835 127.026 140.189  0.00  0.00    +0.000 A 
ATOM     40  C   UNL     1     110.472 126.718 139.767  0.00  0.00    +0.000 A 
ATOM     41  C   UNL     1     111.170 126.482 140.990  0.00  0.00    +0.000 A 
ATOM     42  C   UNL     1     111.140 126.446 140.167  0.00  0.00    +0.000 A 
ENDBRANCH  33  37
ENDBRANCH  31  33
ENDBRANCH  30  31
ENDBRANCH   9  30
TORSDOF 6
ENDMDL
MODEL 4
REMARK VINA RESULT:     -10.3      7.386     10.392
REMARK  Name = 44257729
REMARK  6 active torsions:
REMARK  status: ('A' for Active; 'I' for Inactive)
REMARK    1  A    between atoms: O_5  and  C_21
REMARK    2  A    between atoms: O_5  and  C_28
REMARK    3  A    between atoms: C_18  and  C_20
REMARK    4  A    between atoms: C_19  and  C_21
REMARK    5  A    between atoms: C_28  and  C_31
REMARK    6  A    between atoms: C_30  and  C_32
REMARK                            x       y       z     vdW  Elec       q    Type
REMARK                         _______ _______ _______ _____ _____    ______ ____
ROOT
ATOM      1  O   UNL     1     106.394 127.259 141.753  0.00  0.00    +0.000 OA
ATOM      2  O   UNL     1     108.286 127.673 143.295  0.00  0.00    +0.000 OA
ATOM      3  O   UNL     1     106.909 128.574 143.418  0.00  0.00    +0.000 OA
ATOM      4  O   UNL     1     108.402 126.496 142.144  0.00  0.00    +0.000 OA
ATOM      5  C   UNL     1     107.655 127.535 142.781  0.00  0.00    +0.000 C 
ATOM      6  C   UNL     1     106.967 127.985 142.842  0.00  0.00    +0.000 C 
ATOM      7  C   UNL     1     107.714 126.946 142.206  0.00  0.00    +0.000 C 
ATOM      8  C   UNL     1     106.337 127.847 142.329  0.00  0.00    +0.000 C 
ATOM      9  C   UNL     1     107.083 126.808 141.692  0.00  0.00    +0.000 C 
ENDROOT
BRANCH   8  14
ATOM     10  O   UNL     1     106.199 129.261 141.489  0.00  0.00    +0.000 OA
ATOM     11  O   UNL     1     105.098 127.334 143.290  0.00  0.00    +0.000 OA
ATOM     12  O   UNL     1     103.549 129.658 142.584  0.00  0.00    +0.000 OA
ATOM     13  O   UNL     1     105.455 130.439 141.111  0.00  0.00    +0.000 OA
ATOM     14  C   UNL     1     105.648 128.298 142.390  0.00  0.00    +0.000 A 
ATOM     15  C   UNL     1     105.579 129.005 141.970  0.00  0.00    +0.000 A 
ATOM     16  C   UNL     1     105.028 128.041 142.870  0.00  0.00    +0.000 A 
ATOM     17  C   UNL     1     104.890 129.455 142.031  0.00  0.00    +0.000 A 
ATOM     18  C   UNL     1     104.340 128.491 142.931  0.00  0.00    +0.000 A 
ATOM     19  C   UNL     1     104.271 129.199 142.512  0.00  0.00    +0.000 A 
ATOM     20  C   UNL     1     104.831 130.189 141.589  0.00  0.00    +0.000 A 
ATOM     21  C   UNL     1     104.116 130.663 141.649  0.00  0.00    +0.000 A 
ATOM     22  C   UNL     1     103.471 130.396 142.149  0.00  0.00    +0.000 A 
BRANCH  22  24
ATOM     23  O   UNL     1     100.712 132.188 142.401  0.00  0.00    +0.000 OA
ATOM     24  C   UNL     1     102.782 130.844 142.212  0.00  0.00    +0.000 A 
ATOM     25  C   UNL     1     102.215 130.818 141.613  0.00  0.00    +0.000 A 
ATOM     26  C   UNL     1     102.657 131.319 142.875  0.00  0.00    +0.000 A 
ATOM     27  C   UNL     1     101.526 131.265 141.676  0.00  0.00    +0.000 A 
ATOM     28  C   UNL     1     101.967 131.767 142.938  0.00  0.00    +0.000 A 
ATOM     29  C   UNL     1     101.402 131.740 142.339  0.00  0.00    +0.000 A 
ENDBRANCH  22  24
ENDBRANCH   8  14
BRANCH   9  30
ATOM     30  C   UNL     1     107.141 126.220 141.117  0.00  0.00    +0.000 C 
BRANCH  30  31
ATOM     31  O   UNL     1     106.469 125.797 140.891  0.00  0.00    +0.000 OA
BRANCH  31  33
ATOM     32  O   UNL     1     107.156 125.287 139.747  0.00  0.00    +0.000 OA
ATOM     33  C   UNL     1     106.505 125.275 140.253  0.00  0.00    +0.000 C 
BRANCH  33  37
ATOM     34  O   UNL     1     105.281 122.739 140.742  0.00  0.00    +0.000 OA
ATOM     35  O   UNL     1     104.036 124.611 138.976  0.00  0.00    +0.000 OA
ATOM     36  O   UNL     1     104.043 123.142 139.727  0.00  0.00    +0.000 OA
ATOM     37  C   UNL     1     105.889 124.741 140.122  0.00  0.00    +0.000 A 
ATOM     38  C   UNL     1     105.271 124.943 139.615  0.00  0.00    +0.000 A 
ATOM     39  C   UNL     1     105.892 124.007 140.497  0.00  0.00    +0.000 A 
ATOM     40  C   UNL     1     105.277 123.474 140.366  0.00  0.00    +0.000 A 
ATOM     41  C   UNL     1     104.656 124.409 139.484  0.00  0.00    +0.000 A 
ATOM     42  C   UNL     1     104.659 123.675 139.859  0.00  0.00    +0.000 A 
ENDBRANCH  33  37
ENDBRANCH  31  33
ENDBRANCH  30  31
ENDBRANCH   9  30
TORSDOF 6
ENDMDL
MODEL 5
REMARK VINA RESULT:     -10.3      7.812     10.655
REMARK  Name = 44257729
REMARK  6 active torsions:
REMARK  status: ('A' for Active; 'I' for Inactive)
REMARK    1  A    between atoms: O_5  and  C_21
REMARK    2  A    between atoms: O_5  and  C_28
REMARK    3  A    between atoms: C_18  and  C_20
REMARK    4  A    between atoms: C_19  and  C_21
REMARK    5  A    between atoms: C_28  and  C_31
REMARK    6  A    between atoms: C_30  and  C_32
REMARK                            x       y       z     vdW  Elec       q    Type
REMARK                         _______ _______ _______ _____ _____    ______ ____
ROOT
ATOM      1  O   UNL     1     105.741 125.448 141.744  0.00  0.00    +0.000 OA
ATOM      2  O   UNL     1     108.192 125.529 141.414  0.00  0.00    +0.000 OA
ATOM      3  O   UNL     1     107.406 126.819 142.077  0.00  0.00    +0.000 OA
ATOM      4  O   UNL     1     107.344 124.185 140.970  0.00  0.00    +0.000 OA
ATOM      5  C   UNL     1     107.375 125.502 141.524  0.00  0.00    +0.000 C 
ATOM      6  C   UNL     1     106.983 126.146 141.855  0.00  0.00    +0.000 C 
ATOM      7  C   UNL     1     106.951 124.829 141.302  0.00  0.00    +0.000 C 
ATOM      8  C   UNL     1     106.165 126.119 141.965  0.00  0.00    +0.000 C 
ATOM      9  C   UNL     1     106.134 124.802 141.412  0.00  0.00    +0.000 C 
ENDROOT
BRANCH   8  14
ATOM     10  O   UNL     1     105.354 127.179 140.995  0.00  0.00    +0.000 OA
ATOM     11  O   UNL     1     106.191 126.350 143.599  0.00  0.00    +0.000 OA
ATOM     12  O   UNL     1     104.580 128.723 143.318  0.00  0.00    +0.000 OA
ATOM     13  O   UNL     1     104.546 128.361 140.812  0.00  0.00    +0.000 OA
ATOM     14  C   UNL     1     105.772 126.765 142.297  0.00  0.00    +0.000 A 
ATOM     15  C   UNL     1     105.366 127.294 141.812  0.00  0.00    +0.000 A 
ATOM     16  C   UNL     1     105.785 126.880 143.114  0.00  0.00    +0.000 A 
ATOM     17  C   UNL     1     104.973 127.940 142.144  0.00  0.00    +0.000 A 
ATOM     18  C   UNL     1     105.392 127.525 143.445  0.00  0.00    +0.000 A 
ATOM     19  C   UNL     1     104.985 128.055 142.960  0.00  0.00    +0.000 A 
ATOM     20  C   UNL     1     104.554 128.484 141.628  0.00  0.00    +0.000 A 
ATOM     21  C   UNL     1     104.142 129.158 141.967  0.00  0.00    +0.000 A 
ATOM     22  C   UNL     1     104.155 129.278 142.818  0.00  0.00    +0.000 A 
BRANCH  22  24
ATOM     23  O   UNL     1     102.587 131.854 144.157  0.00  0.00    +0.000 OA
ATOM     24  C   UNL     1     103.763 129.921 143.152  0.00  0.00    +0.000 A 
ATOM     25  C   UNL     1     103.974 130.189 143.904  0.00  0.00    +0.000 A 
ATOM     26  C   UNL     1     103.160 130.299 142.735  0.00  0.00    +0.000 A 
ATOM     27  C   UNL     1     103.582 130.832 144.238  0.00  0.00    +0.000 A 
ATOM     28  C   UNL     1     102.768 130.943 143.070  0.00  0.00    +0.000 A 
ATOM     29  C   UNL     1     102.979 131.210 143.822  0.00  0.00    +0.000 A 
ENDBRANCH  22  24
ENDBRANCH   8  14
BRANCH   9  30
ATOM     30  C   UNL     1     105.710 124.131 141.190  0.00  0.00    +0.000 C 
BRANCH  30  31
ATOM     31  O   UNL     1     105.159 124.175 140.576  0.00  0.00    +0.000 OA
BRANCH  31  33
ATOM     32  O   UNL     1     104.798 122.810 140.794  0.00  0.00    +0.000 OA
ATOM     33  C   UNL     1     104.741 123.502 140.349  0.00  0.00    +0.000 C 
BRANCH  33  37
ATOM     34  O   UNL     1     102.149 123.458 139.146  0.00  0.00    +0.000 OA
ATOM     35  O   UNL     1     104.482 123.657 137.507  0.00  0.00    +0.000 OA
ATOM     36  O   UNL     1     102.840 123.576 137.652  0.00  0.00    +0.000 OA
ATOM     37  C   UNL     1     104.265 123.520 139.674  0.00  0.00    +0.000 A 
ATOM     38  C   UNL     1     104.611 123.579 138.928  0.00  0.00    +0.000 A 
ATOM     39  C   UNL     1     103.445 123.480 139.747  0.00  0.00    +0.000 A 
ATOM     40  C   UNL     1     102.970 123.499 139.073  0.00  0.00    +0.000 A 
ATOM     41  C   UNL     1     104.136 123.598 138.254  0.00  0.00    +0.000 A 
ATOM     42  C   UNL     1     103.315 123.557 138.327  0.00  0.00    +0.000 A 
ENDBRANCH  33  37
ENDBRANCH  31  33
ENDBRANCH  30  31
ENDBRANCH   9  30
TORSDOF 6
ENDMDL
MODEL 6
REMARK VINA RESULT:     -10.3      4.992      6.841
REMARK  Name = 44257729
REMARK  6 active torsions:
REMARK  status: ('A' for Active; 'I' for Inactive)
REMARK    1  A    between atoms: O_5  and  C_21
REMARK    2  A    between atoms: O_5  and  C_28
REMARK    3  A    between atoms: C_18  and  C_20
REMARK    4  A    between atoms: C_19  and  C_21
REMARK    5  A    between atoms: C_28  and  C_31
REMARK    6  A    between atoms: C_30  and  C_32
REMARK                            x       y       z     vdW  Elec       q    Type
REMARK                         _______ _______ _______ _____ _____    ______ ____
ROOT
ATOM      1  O   UNL     1     108.226 126.432 141.150  0.00  0.00    +0.000 OA
ATOM      2  O   UNL     1     108.662 128.628 142.205  0.00  0.00    +0.000 OA
ATOM      3  O   UNL     1     109.798 127.945 141.224  0.00  0.00    +0.000 OA
ATOM      4  O   UNL     1     107.235 127.848 142.483  0.00  0.00    +0.000 OA
ATOM      5  C   UNL     1     108.516 127.896 141.853  0.00  0.00    +0.000 C 
ATOM      6  C   UNL     1     109.084 127.555 141.363  0.00  0.00    +0.000 C 
ATOM      7  C   UNL     1     107.803 127.506 141.993  0.00  0.00    +0.000 C 
ATOM      8  C   UNL     1     108.939 126.823 141.011  0.00  0.00    +0.000 C 
ATOM      9  C   UNL     1     107.657 126.775 141.641  0.00  0.00    +0.000 C 
ENDROOT
BRANCH   8  14
ATOM     10  O   UNL     1     108.860 127.045 139.378  0.00  0.00    +0.000 OA
ATOM     11  O   UNL     1     110.155 125.917 141.662  0.00  0.00    +0.000 OA
ATOM     12  O   UNL     1     111.242 125.436 139.038  0.00  0.00    +0.000 OA
ATOM     13  O   UNL     1     109.373 126.828 138.047  0.00  0.00    +0.000 OA
ATOM     14  C   UNL     1     109.508 126.481 140.520  0.00  0.00    +0.000 A 
ATOM     15  C   UNL     1     109.468 126.592 139.704  0.00  0.00    +0.000 A 
ATOM     16  C   UNL     1     110.116 126.028 140.846  0.00  0.00    +0.000 A 
ATOM     17  C   UNL     1     110.036 126.250 139.213  0.00  0.00    +0.000 A 
ATOM     18  C   UNL     1     110.683 125.686 140.355  0.00  0.00    +0.000 A 
ATOM     19  C   UNL     1     110.644 125.797 139.538  0.00  0.00    +0.000 A 
ATOM     20  C   UNL     1     109.984 126.373 138.364  0.00  0.00    +0.000 A 
ATOM     21  C   UNL     1     110.573 126.020 137.847  0.00  0.00    +0.000 A 
ATOM     22  C   UNL     1     111.206 125.548 138.186  0.00  0.00    +0.000 A 
BRANCH  22  24
ATOM     23  O   UNL     1     113.485 124.176 136.234  0.00  0.00    +0.000 OA
ATOM     24  C   UNL     1     111.775 125.205 137.698  0.00  0.00    +0.000 A 
ATOM     25  C   UNL     1     112.497 125.586 137.574  0.00  0.00    +0.000 A 
ATOM     26  C   UNL     1     111.624 124.481 137.334  0.00  0.00    +0.000 A 
ATOM     27  C   UNL     1     113.066 125.243 137.086  0.00  0.00    +0.000 A 
ATOM     28  C   UNL     1     112.194 124.138 136.846  0.00  0.00    +0.000 A 
ATOM     29  C   UNL     1     112.915 124.519 136.722  0.00  0.00    +0.000 A 
ENDBRANCH  22  24
ENDBRANCH   8  14
BRANCH   9  30
ATOM     30  C   UNL     1     106.944 126.384 141.780  0.00  0.00    +0.000 C 
BRANCH  30  31
ATOM     31  O   UNL     1     106.646 125.859 141.216  0.00  0.00    +0.000 OA
BRANCH  31  33
ATOM     32  O   UNL     1     105.567 125.530 142.095  0.00  0.00    +0.000 OA
ATOM     33  C   UNL     1     105.965 125.423 141.380  0.00  0.00    +0.000 C 
BRANCH  33  37
ATOM     34  O   UNL     1     104.416 124.839 139.051  0.00  0.00    +0.000 OA
ATOM     35  O   UNL     1     105.815 122.743 140.399  0.00  0.00    +0.000 OA
ATOM     36  O   UNL     1     104.832 123.247 139.173  0.00  0.00    +0.000 OA
ATOM     37  C   UNL     1     105.681 124.879 140.828  0.00  0.00    +0.000 A 
ATOM     38  C   UNL     1     105.890 124.083 140.889  0.00  0.00    +0.000 A 
ATOM     39  C   UNL     1     105.190 125.131 140.215  0.00  0.00    +0.000 A 
ATOM     40  C   UNL     1     104.907 124.587 139.664  0.00  0.00    +0.000 A 
ATOM     41  C   UNL     1     105.607 123.540 140.337  0.00  0.00    +0.000 A 
ATOM     42  C   UNL     1     105.115 123.791 139.724  0.00  0.00    +0.000 A 
ENDBRANCH  33  37
ENDBRANCH  31  33
ENDBRANCH  30  31
ENDBRANCH   9  30
TORSDOF 6
ENDMDL
MODEL 7
REMARK VINA RESULT:     -10.3      3.271      4.000
REMARK  Name = 44257729
REMARK  6 active torsions:
REMARK  status: ('A' for Active; 'I' for Inactive)
REMARK    1  A    between atoms: O_5  and  C_21
REMARK    2  A    between atoms: O_5  and  C_28
REMARK    3  A    between atoms: C_18  and  C_20
REMARK    4  A    between atoms: C_19  and  C_21
REMARK    5  A    between atoms: C_28  and  C_31
REMARK    6  A    between atoms: C_30  and  C_32
REMARK                            x       y       z     vdW  Elec       q    Type
REMARK                         _______ _______ _______ _____ _____    ______ ____
ROOT
ATOM      1  O   UNL     1     112.515 129.994 141.036  0.00  0.00    +0.000 OA
ATOM      2  O   UNL     1     114.554 131.287 141.578  0.00  0.00    +0.000 OA
ATOM      3  O   UNL     1     114.623 130.061 140.476  0.00  0.00    +0.000 OA
ATOM      4  O   UNL     1     113.125 131.651 142.318  0.00  0.00    +0.000 OA
ATOM      5  C   UNL     1     113.874 130.856 141.397  0.00  0.00    +0.000 C 
ATOM      6  C   UNL     1     113.909 130.243 140.847  0.00  0.00    +0.000 C 
ATOM      7  C   UNL     1     113.160 131.039 141.768  0.00  0.00    +0.000 C 
ATOM      8  C   UNL     1     113.229 129.812 140.666  0.00  0.00    +0.000 C 
ATOM      9  C   UNL     1     112.480 130.608 141.587  0.00  0.00    +0.000 C 
ENDROOT
BRANCH   8  14
ATOM     10  O   UNL     1     113.505 128.266 141.170  0.00  0.00    +0.000 OA
ATOM     11  O   UNL     1     113.022 130.133 139.061  0.00  0.00    +0.000 OA
ATOM     12  O   UNL     1     113.366 127.343 138.430  0.00  0.00    +0.000 OA
ATOM     13  O   UNL     1     113.683 126.860 140.895  0.00  0.00    +0.000 OA
ATOM     14  C   UNL     1     113.264 129.199 140.115  0.00  0.00    +0.000 A 
ATOM     15  C   UNL     1     113.402 128.426 140.367  0.00  0.00    +0.000 A 
ATOM     16  C   UNL     1     113.160 129.359 139.312  0.00  0.00    +0.000 A 
ATOM     17  C   UNL     1     113.436 127.812 139.816  0.00  0.00    +0.000 A 
ATOM     18  C   UNL     1     113.195 128.746 138.762  0.00  0.00    +0.000 A 
ATOM     19  C   UNL     1     113.333 127.972 139.013  0.00  0.00    +0.000 A 
ATOM     20  C   UNL     1     113.581 127.011 140.091  0.00  0.00    +0.000 A 
ATOM     21  C   UNL     1     113.618 126.368 139.522  0.00  0.00    +0.000 A 
ATOM     22  C   UNL     1     113.510 126.534 138.686  0.00  0.00    +0.000 A 
BRANCH  22  24
ATOM     23  O   UNL     1     113.646 124.091 136.473  0.00  0.00    +0.000 OA
ATOM     24  C   UNL     1     113.544 125.924 138.133  0.00  0.00    +0.000 A 
ATOM     25  C   UNL     1     114.275 125.647 137.868  0.00  0.00    +0.000 A 
ATOM     26  C   UNL     1     112.847 125.589 137.844  0.00  0.00    +0.000 A 
ATOM     27  C   UNL     1     114.309 125.036 137.315  0.00  0.00    +0.000 A 
ATOM     28  C   UNL     1     112.882 124.978 137.291  0.00  0.00    +0.000 A 
ATOM     29  C   UNL     1     113.612 124.702 137.026  0.00  0.00    +0.000 A 
ENDBRANCH  22  24
ENDBRANCH   8  14
BRANCH   9  30
ATOM     30  C   UNL     1     111.766 130.789 141.957  0.00  0.00    +0.000 C 
BRANCH  30  31
ATOM     31  O   UNL     1     111.055 130.520 141.635  0.00  0.00    +0.000 OA
BRANCH  31  33
ATOM     32  O   UNL     1     110.329 131.262 142.617  0.00  0.00    +0.000 OA
ATOM     33  C   UNL     1     110.337 130.745 141.974  0.00  0.00    +0.000 C 
BRANCH  33  37
ATOM     34  O   UNL     1     108.251 128.793 142.000  0.00  0.00    +0.000 OA
ATOM     35  O   UNL     1     108.169 130.946 140.122  0.00  0.00    +0.000 OA
ATOM     36  O   UNL     1     107.501 129.577 140.757  0.00  0.00    +0.000 OA
ATOM     37  C   UNL     1     109.628 130.453 141.669  0.00  0.00    +0.000 A 
ATOM     38  C   UNL     1     109.253 130.846 141.048  0.00  0.00    +0.000 A 
ATOM     39  C   UNL     1     109.293 129.769 141.987  0.00  0.00    +0.000 A 
ATOM     40  C   UNL     1     108.585 129.477 141.682  0.00  0.00    +0.000 A 
ATOM     41  C   UNL     1     108.544 130.553 140.744  0.00  0.00    +0.000 A 
ATOM     42  C   UNL     1     108.210 129.869 141.062  0.00  0.00    +0.000 A 
ENDBRANCH  33  37
ENDBRANCH  31  33
ENDBRANCH  30  31
ENDBRANCH   9  30
TORSDOF 6
ENDMDL
MODEL 8
REMARK VINA RESULT:     -10.3      3.025      4.668
REMARK  Name = 44257729
REMARK  6 active torsions:
REMARK  status: ('A' for Active; 'I' for Inactive)
REMARK    1  A    between atoms: O_5  and  C_21
REMARK    2  A    between atoms: O_5  and  C_28
REMARK    3  A    between atoms: C_18  and  C_20
REMARK    4  A    between atoms: C_19  and  C_21
REMARK    5  A    between atoms: C_28  and  C_31
REMARK    6  A    between atoms: C_30  and  C_32
REMARK                            x       y       z     vdW  Elec       q    Type
REMARK                         _______ _______ _______ _____ _____    ______ ____
ROOT
ATOM      1  O   UNL     1     109.613 127.415 140.183  0.00  0.00    +0.000 OA
ATOM      2  O   UNL     1     108.777 125.727 141.789  0.00  0.00    +0.000 OA
ATOM      3  O   UNL     1     109.935 125.316 140.689  0.00  0.00    +0.000 OA
ATOM      4  O   UNL     1     108.176 127.263 141.819  0.00  0.00    +0.000 OA
ATOM      5  C   UNL     1     109.056 126.289 141.254  0.00  0.00    +0.000 C 
ATOM      6  C   UNL     1     109.634 126.084 140.704  0.00  0.00    +0.000 C 
ATOM      7  C   UNL     1     108.754 127.058 141.269  0.00  0.00    +0.000 C 
ATOM      8  C   UNL     1     109.913 126.646 140.169  0.00  0.00    +0.000 C 
ATOM      9  C   UNL     1     109.033 127.620 140.734  0.00  0.00    +0.000 C 
ENDROOT
BRANCH   8  14
ATOM     10  O   UNL     1     111.508 126.872 140.527  0.00  0.00    +0.000 OA
ATOM     11  O   UNL     1     109.477 126.011 138.710  0.00  0.00    +0.000 OA
ATOM     12  O   UNL     1     112.245 125.812 137.936  0.00  0.00    +0.000 OA
ATOM     13  O   UNL     1     112.906 126.789 140.177  0.00  0.00    +0.000 OA
ATOM     14  C   UNL     1     110.493 126.441 139.618  0.00  0.00    +0.000 A 
ATOM     15  C   UNL     1     111.290 126.554 139.798  0.00  0.00    +0.000 A 
ATOM     16  C   UNL     1     110.275 126.123 138.889  0.00  0.00    +0.000 A 
ATOM     17  C   UNL     1     111.869 126.348 139.247  0.00  0.00    +0.000 A 
ATOM     18  C   UNL     1     110.854 125.918 138.339  0.00  0.00    +0.000 A 
ATOM     19  C   UNL     1     111.651 126.030 138.517  0.00  0.00    +0.000 A 
ATOM     20  C   UNL     1     112.696 126.470 139.445  0.00  0.00    +0.000 A 
ATOM     21  C   UNL     1     113.305 126.258 138.876  0.00  0.00    +0.000 A 
ATOM     22  C   UNL     1     113.078 125.927 138.117  0.00  0.00    +0.000 A 
BRANCH  22  24
ATOM     23  O   UNL     1     115.385 125.101 135.908  0.00  0.00    +0.000 OA
ATOM     24  C   UNL     1     113.654 125.721 137.565  0.00  0.00    +0.000 A 
ATOM     25  C   UNL     1     114.064 125.008 137.641  0.00  0.00    +0.000 A 
ATOM     26  C   UNL     1     113.822 126.227 136.935  0.00  0.00    +0.000 A 
ATOM     27  C   UNL     1     114.640 124.802 137.089  0.00  0.00    +0.000 A 
ATOM     28  C   UNL     1     114.399 126.020 136.383  0.00  0.00    +0.000 A 
ATOM     29  C   UNL     1     114.808 125.308 136.460  0.00  0.00    +0.000 A 
ENDBRANCH  22  24
ENDBRANCH   8  14
BRANCH   9  30
ATOM     30  C   UNL     1     108.733 128.388 140.749  0.00  0.00    +0.000 C 
BRANCH  30  31
ATOM     31  O   UNL     1     109.056 128.966 140.255  0.00  0.00    +0.000 OA
BRANCH  31  33
ATOM     32  O   UNL     1     107.954 129.840 140.514  0.00  0.00    +0.000 OA
ATOM     33  C   UNL     1     108.718 129.718 140.226  0.00  0.00    +0.000 C 
BRANCH  33  37
ATOM     34  O   UNL     1     109.367 131.399 138.008  0.00  0.00    +0.000 OA
ATOM     35  O   UNL     1     110.626 131.823 140.538  0.00  0.00    +0.000 OA
ATOM     36  O   UNL     1     110.423 132.242 138.956  0.00  0.00    +0.000 OA
ATOM     37  C   UNL     1     109.144 130.350 139.908  0.00  0.00    +0.000 A 
ATOM     38  C   UNL     1     109.672 130.771 140.382  0.00  0.00    +0.000 A 
ATOM     39  C   UNL     1     109.043 130.559 139.117  0.00  0.00    +0.000 A 
ATOM     40  C   UNL     1     109.469 131.190 138.799  0.00  0.00    +0.000 A 
ATOM     41  C   UNL     1     110.098 131.401 140.064  0.00  0.00    +0.000 A 
ATOM     42  C   UNL     1     109.996 131.611 139.273  0.00  0.00    +0.000 A 
ENDBRANCH  33  37
ENDBRANCH  31  33
ENDBRANCH  30  31
ENDBRANCH   9  30
TORSDOF 6
ENDMDL
MODEL 9
REMARK VINA RESULT:     -10.3      8.162     10.034
REMARK  Name = 44257729
REMARK  6 active torsions:
REMARK  status: ('A' for Active; 'I' for Inactive)
REMARK    1  A    between atoms: O_5  and  C_21
REMARK    2  A    between atoms: O_5  and  C_28
REMARK    3  A    between atoms: C_18  and  C_20
REMARK    4  A    between atoms: C_19  and  C_21
REMARK    5  A    between atoms: C_28  and  C_31
REMARK    6  A    between atoms: C_30  and  C_32
REMARK                            x       y       z     vdW  Elec       q    Type
REMARK                         _______ _______ _______ _____ _____    ______ ____
ROOT
ATOM      1  O   UNL     1     106.721 127.670 142.979  0.00  0.00    +0.000 OA
ATOM      2  O   UNL     1     104.485 128.643 142.556  0.00  0.00    +0.000 OA
ATOM      3  O   UNL     1     104.739 127.712 143.894  0.00  0.00    +0.000 OA
ATOM      4  O   UNL     1     105.721 128.925 141.499  0.00  0.00    +0.000 OA
ATOM      5  C   UNL     1     105.230 128.318 142.697  0.00  0.00    +0.000 C 
ATOM      6  C   UNL     1     105.357 127.854 143.366  0.00  0.00    +0.000 C 
ATOM      7  C   UNL     1     105.848 128.460 142.168  0.00  0.00    +0.000 C 
ATOM      8  C   UNL     1     106.102 127.529 143.507  0.00  0.00    +0.000 C 
ATOM      9  C   UNL     1     106.593 128.136 142.310  0.00  0.00    +0.000 C 
ENDROOT
BRANCH   8  14
ATOM     10  O   UNL     1     106.694 128.214 144.887  0.00  0.00    +0.000 OA
ATOM     11  O   UNL     1     105.766 125.915 143.466  0.00  0.00    +0.000 OA
ATOM     12  O   UNL     1     106.614 125.639 146.206  0.00  0.00    +0.000 OA
ATOM     13  O   UNL     1     107.128 128.117 146.260  0.00  0.00    +0.000 OA
ATOM     14  C   UNL     1     106.230 127.064 144.177  0.00  0.00    +0.000 A 
ATOM     15  C   UNL     1     106.526 127.407 144.866  0.00  0.00    +0.000 A 
ATOM     16  C   UNL     1     106.062 126.256 144.156  0.00  0.00    +0.000 A 
ATOM     17  C   UNL     1     106.653 126.941 145.536  0.00  0.00    +0.000 A 
ATOM     18  C   UNL     1     106.189 125.792 144.825  0.00  0.00    +0.000 A 
ATOM     19  C   UNL     1     106.485 126.134 145.516  0.00  0.00    +0.000 A 
ATOM     20  C   UNL     1     106.962 127.309 146.248  0.00  0.00    +0.000 A 
ATOM     21  C   UNL     1     107.097 126.830 146.949  0.00  0.00    +0.000 A 
ATOM     22  C   UNL     1     106.922 125.989 146.928  0.00  0.00    +0.000 A 
BRANCH  22  24
ATOM     23  O   UNL     1     107.428 124.118 149.598  0.00  0.00    +0.000 OA
ATOM     24  C   UNL     1     107.048 125.522 147.595  0.00  0.00    +0.000 A 
ATOM     25  C   UNL     1     107.801 125.225 147.755  0.00  0.00    +0.000 A 
ATOM     26  C   UNL     1     106.422 125.351 148.104  0.00  0.00    +0.000 A 
ATOM     27  C   UNL     1     107.928 124.757 148.422  0.00  0.00    +0.000 A 
ATOM     28  C   UNL     1     106.549 124.883 148.771  0.00  0.00    +0.000 A 
ATOM     29  C   UNL     1     107.301 124.586 148.930  0.00  0.00    +0.000 A 
ENDBRANCH  22  24
ENDBRANCH   8  14
BRANCH   9  30
ATOM     30  C   UNL     1     107.211 128.276 141.782  0.00  0.00    +0.000 C 
BRANCH  30  31
ATOM     31  O   UNL     1     107.878 127.789 141.789  0.00  0.00    +0.000 OA
BRANCH  31  33
ATOM     32  O   UNL     1     108.429 128.528 140.697  0.00  0.00    +0.000 OA
ATOM     33  C   UNL     1     108.493 127.925 141.257  0.00  0.00    +0.000 C 
BRANCH  33  37
ATOM     34  O   UNL     1     111.185 127.521 142.129  0.00  0.00    +0.000 OA
ATOM     35  O   UNL     1     109.879 125.528 140.551  0.00  0.00    +0.000 OA
ATOM     36  O   UNL     1     111.211 126.057 141.368  0.00  0.00    +0.000 OA
ATOM     37  C   UNL     1     109.173 127.458 141.285  0.00  0.00    +0.000 A 
ATOM     38  C   UNL     1     109.186 126.727 140.904  0.00  0.00    +0.000 A 
ATOM     39  C   UNL     1     109.840 127.723 141.693  0.00  0.00    +0.000 A 
ATOM     40  C   UNL     1     110.518 127.256 141.721  0.00  0.00    +0.000 A 
ATOM     41  C   UNL     1     109.866 126.260 140.932  0.00  0.00    +0.000 A 
ATOM     42  C   UNL     1     110.532 126.525 141.341  0.00  0.00    +0.000 A 
ENDBRANCH  33  37
ENDBRANCH  31  33
ENDBRANCH  30  31
ENDBRANCH   9  30
TORSDOF 6
ENDMDL
MODEL 10
REMARK VINA RESULT:     -10.2      2.135      3.029
REMARK  Name = 44257729
REMARK  6 active torsions:
REMARK  status: ('A' for Active; 'I' for Inactive)
REMARK    1  A    between atoms: O_5  and  C_21
REMARK    2  A    between atoms: O_5  and  C_28
REMARK    3  A    between atoms: C_18  and  C_20
REMARK    4  A    between atoms: C_19  and  C_21
REMARK    5  A    between atoms: C_28  and  C_31
REMARK    6  A    between atoms: C_30  and  C_32
REMARK                            x       y       z     vdW  Elec       q    Type
REMARK                         _______ _______ _______ _____ _____    ______ ____
ROOT
ATOM      1  O   UNL     1     110.385 130.372 138.807  0.00  0.00    +0.000 OA
ATOM      2  O   UNL     1     110.685 130.588 141.254  0.00  0.00    +0.000 OA
ATOM      3  O   UNL     1     111.105 129.186 140.492  0.00  0.00    +0.000 OA
ATOM      4  O   UNL     1     110.064 131.846 140.384  0.00  0.00    +0.000 OA
ATOM      5  C   UNL     1     110.585 130.516 140.438  0.00  0.00    +0.000 C 
ATOM      6  C   UNL     1     110.795 129.816 140.057  0.00  0.00    +0.000 C 
ATOM      7  C   UNL     1     110.274 131.145 140.004  0.00  0.00    +0.000 C 
ATOM      8  C   UNL     1     110.695 129.744 139.242  0.00  0.00    +0.000 C 
ATOM      9  C   UNL     1     110.174 131.073 139.188  0.00  0.00    +0.000 C 
ENDROOT
BRANCH   8  14
ATOM     10  O   UNL     1     109.575 128.550 139.033  0.00  0.00    +0.000 OA
ATOM     11  O   UNL     1     112.235 129.535 138.688  0.00  0.00    +0.000 OA
ATOM     12  O   UNL     1     111.556 126.916 137.699  0.00  0.00    +0.000 OA
ATOM     13  O   UNL     1     109.195 127.243 138.552  0.00  0.00    +0.000 OA
ATOM     14  C   UNL     1     110.905 129.042 138.860  0.00  0.00    +0.000 A 
ATOM     15  C   UNL     1     110.345 128.446 138.756  0.00  0.00    +0.000 A 
ATOM     16  C   UNL     1     111.675 128.938 138.583  0.00  0.00    +0.000 A 
ATOM     17  C   UNL     1     110.555 127.745 138.374  0.00  0.00    +0.000 A 
ATOM     18  C   UNL     1     111.885 128.238 138.202  0.00  0.00    +0.000 A 
ATOM     19  C   UNL     1     111.325 127.640 138.098  0.00  0.00    +0.000 A 
ATOM     20  C   UNL     1     109.963 127.131 138.272  0.00  0.00    +0.000 A 
ATOM     21  C   UNL     1     110.175 126.398 137.876  0.00  0.00    +0.000 A 
ATOM     22  C   UNL     1     110.977 126.290 137.587  0.00  0.00    +0.000 A 
BRANCH  22  24
ATOM     23  O   UNL     1     111.830 123.492 136.060  0.00  0.00    +0.000 OA
ATOM     24  C   UNL     1     111.190 125.591 137.206  0.00  0.00    +0.000 A 
ATOM     25  C   UNL     1     111.060 125.506 136.396  0.00  0.00    +0.000 A 
ATOM     26  C   UNL     1     111.534 124.975 137.634  0.00  0.00    +0.000 A 
ATOM     27  C   UNL     1     111.273 124.807 136.014  0.00  0.00    +0.000 A 
ATOM     28  C   UNL     1     111.747 124.276 137.252  0.00  0.00    +0.000 A 
ATOM     29  C   UNL     1     111.617 124.191 136.442  0.00  0.00    +0.000 A 
ENDBRANCH  22  24
ENDBRANCH   8  14
BRANCH   9  30
ATOM     30  C   UNL     1     109.864 131.702 138.753  0.00  0.00    +0.000 C 
BRANCH  30  31
ATOM     31  O   UNL     1     109.521 131.562 138.015  0.00  0.00    +0.000 OA
BRANCH  31  33
ATOM     32  O   UNL     1     109.192 132.949 137.907  0.00  0.00    +0.000 OA
ATOM     33  C   UNL     1     109.186 132.187 137.592  0.00  0.00    +0.000 C 
BRANCH  33  37
ATOM     34  O   UNL     1     109.282 132.399 134.744  0.00  0.00    +0.000 OA
ATOM     35  O   UNL     1     107.049 131.141 136.009  0.00  0.00    +0.000 OA
ATOM     36  O   UNL     1     107.825 131.631 134.638  0.00  0.00    +0.000 OA
ATOM     37  C   UNL     1     108.846 132.048 136.853  0.00  0.00    +0.000 A 
ATOM     38  C   UNL     1     108.118 131.664 136.800  0.00  0.00    +0.000 A 
ATOM     39  C   UNL     1     109.234 132.293 136.167  0.00  0.00    +0.000 A 
ATOM     40  C   UNL     1     108.894 132.154 135.429  0.00  0.00    +0.000 A 
ATOM     41  C   UNL     1     107.778 131.526 136.062  0.00  0.00    +0.000 A 
ATOM     42  C   UNL     1     108.166 131.771 135.376  0.00  0.00    +0.000 A 
ENDBRANCH  33  37
ENDBRANCH  31  33
ENDBRANCH  30  31
ENDBRANCH   9  30
TORSDOF 6
ENDMDL
