MODEL 1
REMARK VINA RESULT:      -9.5      0.000      0.000
REMARK  Name = 44258070
REMARK  5 active torsions:
REMARK  status: ('A' for Active; 'I' for Inactive)
REMARK    1  A    between atoms: O_2  and  C_17
REMARK    2  A    between atoms: O_2  and  C_19
REMARK    3  A    between atoms: O_6  and  C_18
REMARK    4  A    between atoms: C_16  and  C_18
REMARK    5  A    between atoms: C_27  and  C_29
REMARK                            x       y       z     vdW  Elec       q    Type
REMARK                         _______ _______ _______ _____ _____    ______ ____
ROOT
ATOM      1  O   UNL     1     103.155 130.263 141.966  0.00  0.00    +0.000 OA
ATOM      2  O   UNL     1     103.674 128.002 140.245  0.00  0.00    +0.000 OA
ATOM      3  O   UNL     1     102.753 129.041 139.852  0.00  0.00    +0.000 OA
ATOM      4  C   UNL     1     104.502 128.506 142.265  0.00  0.00    +0.000 A 
ATOM      5  C   UNL     1     104.091 129.246 142.411  0.00  0.00    +0.000 A 
ATOM      6  C   UNL     1     104.363 128.081 141.531  0.00  0.00    +0.000 A 
ATOM      7  C   UNL     1     103.547 129.552 141.821  0.00  0.00    +0.000 A 
ATOM      8  C   UNL     1     103.413 129.145 141.117  0.00  0.00    +0.000 A 
ATOM      9  C   UNL     1     103.814 128.402 140.953  0.00  0.00    +0.000 A 
ATOM     10  C   UNL     1     102.888 129.448 140.558  0.00  0.00    +0.000 A 
ATOM     11  C   UNL     1     102.629 130.568 141.408  0.00  0.00    +0.000 A 
ATOM     12  C   UNL     1     102.496 130.160 140.703  0.00  0.00    +0.000 A 
ENDROOT
BRANCH  11  15
ATOM     13  O   UNL     1     102.566 133.422 141.308  0.00  0.00    +0.000 OA
ATOM     14  O   UNL     1     101.064 133.413 141.989  0.00  0.00    +0.000 OA
ATOM     15  C   UNL     1     102.238 131.279 141.553  0.00  0.00    +0.000 A 
ATOM     16  C   UNL     1     102.598 131.995 141.357  0.00  0.00    +0.000 A 
ATOM     17  C   UNL     1     101.487 131.274 141.894  0.00  0.00    +0.000 A 
ATOM     18  C   UNL     1     102.207 132.707 141.503  0.00  0.00    +0.000 A 
ATOM     19  C   UNL     1     101.096 131.986 142.039  0.00  0.00    +0.000 A 
ATOM     20  C   UNL     1     101.455 132.702 141.844  0.00  0.00    +0.000 A 
ENDBRANCH  11  15
BRANCH   4  21
ATOM     21  O   UNL     1     105.027 128.204 142.826  0.00  0.00    +0.000 OA
BRANCH  21  30
ATOM     22  O   UNL     1     106.196 128.802 142.263  0.00  0.00    +0.000 OA
ATOM     23  O   UNL     1     107.537 126.847 142.970  0.00  0.00    +0.000 OA
ATOM     24  O   UNL     1     108.259 128.096 142.171  0.00  0.00    +0.000 OA
ATOM     25  O   UNL     1     105.921 126.901 143.298  0.00  0.00    +0.000 OA
ATOM     26  C   UNL     1     107.090 127.498 142.734  0.00  0.00    +0.000 C 
ATOM     27  C   UNL     1     107.451 128.124 142.334  0.00  0.00    +0.000 C 
ATOM     28  C   UNL     1     106.282 127.526 142.898  0.00  0.00    +0.000 C 
ATOM     29  C   UNL     1     107.004 128.776 142.098  0.00  0.00    +0.000 C 
ATOM     30  C   UNL     1     105.835 128.178 142.662  0.00  0.00    +0.000 C 
BRANCH  29  32
ATOM     31  O   UNL     1     107.519 129.339 140.891  0.00  0.00    +0.000 OA
ATOM     32  C   UNL     1     107.365 129.400 141.699  0.00  0.00    +0.000 C 
BRANCH  32  33
ATOM     33  O   UNL     1     107.572 130.087 142.106  0.00  0.00    +0.000 OA
ATOM     34  C   UNL     1     107.724 130.783 141.692  0.00  0.00    +0.000 C 
ENDBRANCH  32  33
ENDBRANCH  29  32
ENDBRANCH  21  30
ENDBRANCH   4  21
TORSDOF 5
ENDMDL
MODEL 2
REMARK VINA RESULT:      -9.3      6.869      9.053
REMARK  Name = 44258070
REMARK  5 active torsions:
REMARK  status: ('A' for Active; 'I' for Inactive)
REMARK    1  A    between atoms: O_2  and  C_17
REMARK    2  A    between atoms: O_2  and  C_19
REMARK    3  A    between atoms: O_6  and  C_18
REMARK    4  A    between atoms: C_16  and  C_18
REMARK    5  A    between atoms: C_27  and  C_29
REMARK                            x       y       z     vdW  Elec       q    Type
REMARK                         _______ _______ _______ _____ _____    ______ ____
ROOT
ATOM      1  O   UNL     1     110.334 127.929 135.996  0.00  0.00    +0.000 OA
ATOM      2  O   UNL     1     107.886 129.452 135.807  0.00  0.00    +0.000 OA
ATOM      3  O   UNL     1     107.871 128.010 135.771  0.00  0.00    +0.000 OA
ATOM      4  C   UNL     1     110.008 130.140 136.018  0.00  0.00    +0.000 A 
ATOM      5  C   UNL     1     110.407 129.379 136.037  0.00  0.00    +0.000 A 
ATOM      6  C   UNL     1     109.152 130.168 135.940  0.00  0.00    +0.000 A 
ATOM      7  C   UNL     1     109.945 128.657 135.977  0.00  0.00    +0.000 A 
ATOM      8  C   UNL     1     109.125 128.684 135.903  0.00  0.00    +0.000 A 
ATOM      9  C   UNL     1     108.708 129.435 135.882  0.00  0.00    +0.000 A 
ATOM     10  C   UNL     1     108.693 127.983 135.846  0.00  0.00    +0.000 A 
ATOM     11  C   UNL     1     109.902 127.229 135.940  0.00  0.00    +0.000 A 
ATOM     12  C   UNL     1     109.081 127.256 135.865  0.00  0.00    +0.000 A 
ENDROOT
BRANCH  11  15
ATOM     13  O   UNL     1     111.122 125.113 137.423  0.00  0.00    +0.000 OA
ATOM     14  O   UNL     1     111.457 124.319 136.015  0.00  0.00    +0.000 OA
ATOM     15  C   UNL     1     110.291 126.501 135.959  0.00  0.00    +0.000 A 
ATOM     16  C   UNL     1     110.512 126.170 136.682  0.00  0.00    +0.000 A 
ATOM     17  C   UNL     1     110.458 126.105 135.255  0.00  0.00    +0.000 A 
ATOM     18  C   UNL     1     110.901 125.443 136.701  0.00  0.00    +0.000 A 
ATOM     19  C   UNL     1     110.847 125.377 135.274  0.00  0.00    +0.000 A 
ATOM     20  C   UNL     1     111.068 125.046 135.997  0.00  0.00    +0.000 A 
ENDBRANCH  11  15
BRANCH   4  21
ATOM     21  O   UNL     1     110.443 130.839 136.075  0.00  0.00    +0.000 OA
BRANCH  21  30
ATOM     22  O   UNL     1     110.626 130.866 137.492  0.00  0.00    +0.000 OA
ATOM     23  O   UNL     1     110.174 133.300 137.503  0.00  0.00    +0.000 OA
ATOM     24  O   UNL     1     110.508 132.516 138.916  0.00  0.00    +0.000 OA
ATOM     25  O   UNL     1     110.141 132.461 136.082  0.00  0.00    +0.000 OA
ATOM     26  C   UNL     1     110.325 132.488 137.499  0.00  0.00    +0.000 C 
ATOM     27  C   UNL     1     110.492 132.096 138.206  0.00  0.00    +0.000 C 
ATOM     28  C   UNL     1     110.309 132.069 136.789  0.00  0.00    +0.000 C 
ATOM     29  C   UNL     1     110.643 131.285 138.203  0.00  0.00    +0.000 C 
ATOM     30  C   UNL     1     110.459 131.258 136.786  0.00  0.00    +0.000 C 
BRANCH  29  32
ATOM     31  O   UNL     1     111.574 130.911 139.219  0.00  0.00    +0.000 OA
ATOM     32  C   UNL     1     110.809 130.894 138.909  0.00  0.00    +0.000 C 
BRANCH  32  33
ATOM     33  O   UNL     1     110.213 130.485 139.306  0.00  0.00    +0.000 OA
ATOM     34  C   UNL     1     110.407 129.912 139.865  0.00  0.00    +0.000 C 
ENDBRANCH  32  33
ENDBRANCH  29  32
ENDBRANCH  21  30
ENDBRANCH   4  21
TORSDOF 5
ENDMDL
MODEL 3
REMARK VINA RESULT:      -9.3      4.051      6.509
REMARK  Name = 44258070
REMARK  5 active torsions:
REMARK  status: ('A' for Active; 'I' for Inactive)
REMARK    1  A    between atoms: O_2  and  C_17
REMARK    2  A    between atoms: O_2  and  C_19
REMARK    3  A    between atoms: O_6  and  C_18
REMARK    4  A    between atoms: C_16  and  C_18
REMARK    5  A    between atoms: C_27  and  C_29
REMARK                            x       y       z     vdW  Elec       q    Type
REMARK                         _______ _______ _______ _____ _____    ______ ____
ROOT
ATOM      1  O   UNL     1     105.399 126.423 144.131  0.00  0.00    +0.000 OA
ATOM      2  O   UNL     1     107.235 126.395 146.362  0.00  0.00    +0.000 OA
ATOM      3  O   UNL     1     107.231 127.483 145.414  0.00  0.00    +0.000 OA
ATOM      4  C   UNL     1     105.665 124.914 145.758  0.00  0.00    +0.000 A 
ATOM      5  C   UNL     1     105.361 125.303 145.055  0.00  0.00    +0.000 A 
ATOM      6  C   UNL     1     106.302 125.282 146.204  0.00  0.00    +0.000 A 
ATOM      7  C   UNL     1     105.696 126.054 144.807  0.00  0.00    +0.000 A 
ATOM      8  C   UNL     1     106.306 126.407 145.234  0.00  0.00    +0.000 A 
ATOM      9  C   UNL     1     106.624 126.034 145.940  0.00  0.00    +0.000 A 
ATOM     10  C   UNL     1     106.620 127.129 144.986  0.00  0.00    +0.000 A 
ATOM     11  C   UNL     1     105.712 127.144 143.883  0.00  0.00    +0.000 A 
ATOM     12  C   UNL     1     106.323 127.497 144.311  0.00  0.00    +0.000 A 
ENDROOT
BRANCH  11  15
ATOM     13  O   UNL     1     105.329 127.182 141.052  0.00  0.00    +0.000 OA
ATOM     14  O   UNL     1     104.526 128.618 141.179  0.00  0.00    +0.000 OA
ATOM     15  C   UNL     1     105.416 127.513 143.207  0.00  0.00    +0.000 A 
ATOM     16  C   UNL     1     105.521 127.163 142.467  0.00  0.00    +0.000 A 
ATOM     17  C   UNL     1     105.014 128.231 143.271  0.00  0.00    +0.000 A 
ATOM     18  C   UNL     1     105.224 127.531 141.791  0.00  0.00    +0.000 A 
ATOM     19  C   UNL     1     104.718 128.598 142.595  0.00  0.00    +0.000 A 
ATOM     20  C   UNL     1     104.822 128.249 141.855  0.00  0.00    +0.000 A 
ENDBRANCH  11  15
BRANCH   4  21
ATOM     21  O   UNL     1     105.350 124.192 146.004  0.00  0.00    +0.000 OA
BRANCH  21  30
ATOM     22  O   UNL     1     104.455 124.703 146.994  0.00  0.00    +0.000 OA
ATOM     23  O   UNL     1     102.753 123.040 146.313  0.00  0.00    +0.000 OA
ATOM     24  O   UNL     1     102.425 124.106 147.530  0.00  0.00    +0.000 OA
ATOM     25  O   UNL     1     104.215 123.084 145.550  0.00  0.00    +0.000 OA
ATOM     26  C   UNL     1     103.320 123.595 146.540  0.00  0.00    +0.000 C 
ATOM     27  C   UNL     1     103.156 124.128 147.149  0.00  0.00    +0.000 C 
ATOM     28  C   UNL     1     104.051 123.617 146.159  0.00  0.00    +0.000 C 
ATOM     29  C   UNL     1     103.724 124.682 147.376  0.00  0.00    +0.000 C 
ATOM     30  C   UNL     1     104.619 124.171 146.386  0.00  0.00    +0.000 C 
BRANCH  29  32
ATOM     31  O   UNL     1     103.098 125.882 147.834  0.00  0.00    +0.000 OA
ATOM     32  C   UNL     1     103.560 125.214 147.983  0.00  0.00    +0.000 C 
BRANCH  32  33
ATOM     33  O   UNL     1     103.857 125.081 148.741  0.00  0.00    +0.000 OA
ATOM     34  C   UNL     1     103.887 125.697 149.288  0.00  0.00    +0.000 C 
ENDBRANCH  32  33
ENDBRANCH  29  32
ENDBRANCH  21  30
ENDBRANCH   4  21
TORSDOF 5
ENDMDL
MODEL 4
REMARK VINA RESULT:      -9.3      7.835     10.347
REMARK  Name = 44258070
REMARK  5 active torsions:
REMARK  status: ('A' for Active; 'I' for Inactive)
REMARK    1  A    between atoms: O_2  and  C_17
REMARK    2  A    between atoms: O_2  and  C_19
REMARK    3  A    between atoms: O_6  and  C_18
REMARK    4  A    between atoms: C_16  and  C_18
REMARK    5  A    between atoms: C_27  and  C_29
REMARK                            x       y       z     vdW  Elec       q    Type
REMARK                         _______ _______ _______ _____ _____    ______ ____
ROOT
ATOM      1  O   UNL     1     111.889 126.824 136.022  0.00  0.00    +0.000 OA
ATOM      2  O   UNL     1     110.165 128.664 134.613  0.00  0.00    +0.000 OA
ATOM      3  O   UNL     1     109.739 127.316 134.901  0.00  0.00    +0.000 OA
ATOM      4  C   UNL     1     112.235 128.949 135.423  0.00  0.00    +0.000 A 
ATOM      5  C   UNL     1     112.369 128.169 135.758  0.00  0.00    +0.000 A 
ATOM      6  C   UNL     1     111.488 129.120 135.034  0.00  0.00    +0.000 A 
ATOM      7  C   UNL     1     111.755 127.571 135.699  0.00  0.00    +0.000 A 
ATOM      8  C   UNL     1     111.038 127.735 135.325  0.00  0.00    +0.000 A 
ATOM      9  C   UNL     1     110.885 128.509 134.984  0.00  0.00    +0.000 A 
ATOM     10  C   UNL     1     110.456 127.153 135.275  0.00  0.00    +0.000 A 
ATOM     11  C   UNL     1     111.308 126.241 135.972  0.00  0.00    +0.000 A 
ATOM     12  C   UNL     1     110.591 126.405 135.598  0.00  0.00    +0.000 A 
ENDROOT
BRANCH  11  15
ATOM     13  O   UNL     1     111.427 124.514 138.245  0.00  0.00    +0.000 OA
ATOM     14  O   UNL     1     111.846 123.253 137.266  0.00  0.00    +0.000 OA
ATOM     15  C   UNL     1     111.442 125.494 136.296  0.00  0.00    +0.000 A 
ATOM     16  C   UNL     1     111.367 125.377 137.109  0.00  0.00    +0.000 A 
ATOM     17  C   UNL     1     111.652 124.864 135.806  0.00  0.00    +0.000 A 
ATOM     18  C   UNL     1     111.502 124.630 137.433  0.00  0.00    +0.000 A 
ATOM     19  C   UNL     1     111.786 124.117 136.130  0.00  0.00    +0.000 A 
ATOM     20  C   UNL     1     111.711 124.000 136.943  0.00  0.00    +0.000 A 
ENDBRANCH  11  15
BRANCH   4  21
ATOM     21  O   UNL     1     112.819 129.529 135.475  0.00  0.00    +0.000 OA
BRANCH  21  30
ATOM     22  O   UNL     1     112.342 130.142 136.674  0.00  0.00    +0.000 OA
ATOM     23  O   UNL     1     114.676 130.523 137.407  0.00  0.00    +0.000 OA
ATOM     24  O   UNL     1     113.421 131.009 138.362  0.00  0.00    +0.000 OA
ATOM     25  O   UNL     1     114.374 129.783 135.963  0.00  0.00    +0.000 OA
ATOM     26  C   UNL     1     113.898 130.396 137.163  0.00  0.00    +0.000 C 
ATOM     27  C   UNL     1     113.270 130.639 137.641  0.00  0.00    +0.000 C 
ATOM     28  C   UNL     1     113.747 130.026 136.441  0.00  0.00    +0.000 C 
ATOM     29  C   UNL     1     112.492 130.513 137.396  0.00  0.00    +0.000 C 
ATOM     30  C   UNL     1     112.969 129.899 136.197  0.00  0.00    +0.000 C 
BRANCH  29  32
ATOM     31  O   UNL     1     111.615 131.541 137.856  0.00  0.00    +0.000 OA
ATOM     32  C   UNL     1     111.866 130.756 137.874  0.00  0.00    +0.000 C 
BRANCH  32  33
ATOM     33  O   UNL     1     111.489 130.214 138.370  0.00  0.00    +0.000 OA
ATOM     34  C   UNL     1     110.739 130.379 138.668  0.00  0.00    +0.000 C 
ENDBRANCH  32  33
ENDBRANCH  29  32
ENDBRANCH  21  30
ENDBRANCH   4  21
TORSDOF 5
ENDMDL
MODEL 5
REMARK VINA RESULT:      -9.3      4.402      6.918
REMARK  Name = 44258070
REMARK  5 active torsions:
REMARK  status: ('A' for Active; 'I' for Inactive)
REMARK    1  A    between atoms: O_2  and  C_17
REMARK    2  A    between atoms: O_2  and  C_19
REMARK    3  A    between atoms: O_6  and  C_18
REMARK    4  A    between atoms: C_16  and  C_18
REMARK    5  A    between atoms: C_27  and  C_29
REMARK                            x       y       z     vdW  Elec       q    Type
REMARK                         _______ _______ _______ _____ _____    ______ ____
ROOT
ATOM      1  O   UNL     1     106.598 125.787 146.179  0.00  0.00    +0.000 OA
ATOM      2  O   UNL     1     106.057 128.453 145.207  0.00  0.00    +0.000 OA
ATOM      3  O   UNL     1     106.594 128.236 146.528  0.00  0.00    +0.000 OA
ATOM      4  C   UNL     1     105.778 126.464 144.213  0.00  0.00    +0.000 A 
ATOM      5  C   UNL     1     106.057 125.947 144.840  0.00  0.00    +0.000 A 
ATOM      6  C   UNL     1     105.777 127.315 144.335  0.00  0.00    +0.000 A 
ATOM      7  C   UNL     1     106.331 126.288 145.580  0.00  0.00    +0.000 A 
ATOM      8  C   UNL     1     106.330 127.104 145.696  0.00  0.00    +0.000 A 
ATOM      9  C   UNL     1     106.054 127.637 145.081  0.00  0.00    +0.000 A 
ATOM     10  C   UNL     1     106.595 127.419 146.411  0.00  0.00    +0.000 A 
ATOM     11  C   UNL     1     106.863 126.101 146.894  0.00  0.00    +0.000 A 
ATOM     12  C   UNL     1     106.862 126.918 147.010  0.00  0.00    +0.000 A 
ENDROOT
BRANCH  11  15
ATOM     13  O   UNL     1     106.319 124.429 149.145  0.00  0.00    +0.000 OA
ATOM     14  O   UNL     1     107.929 124.096 149.288  0.00  0.00    +0.000 OA
ATOM     15  C   UNL     1     107.130 125.600 147.492  0.00  0.00    +0.000 A 
ATOM     16  C   UNL     1     106.591 125.265 148.020  0.00  0.00    +0.000 A 
ATOM     17  C   UNL     1     107.935 125.434 147.563  0.00  0.00    +0.000 A 
ATOM     18  C   UNL     1     106.857 124.763 148.618  0.00  0.00    +0.000 A 
ATOM     19  C   UNL     1     108.201 124.932 148.161  0.00  0.00    +0.000 A 
ATOM     20  C   UNL     1     107.662 124.597 148.689  0.00  0.00    +0.000 A 
ENDBRANCH  11  15
BRANCH   4  21
ATOM     21  O   UNL     1     105.513 126.146 143.499  0.00  0.00    +0.000 OA
BRANCH  21  30
ATOM     22  O   UNL     1     106.658 126.494 142.718  0.00  0.00    +0.000 OA
ATOM     23  O   UNL     1     106.469 124.354 141.489  0.00  0.00    +0.000 OA
ATOM     24  O   UNL     1     107.676 125.415 141.116  0.00  0.00    +0.000 OA
ATOM     25  O   UNL     1     105.387 124.719 142.680  0.00  0.00    +0.000 OA
ATOM     26  C   UNL     1     106.532 125.067 141.898  0.00  0.00    +0.000 C 
ATOM     27  C   UNL     1     107.136 125.598 141.712  0.00  0.00    +0.000 C 
ATOM     28  C   UNL     1     105.992 125.250 142.494  0.00  0.00    +0.000 C 
ATOM     29  C   UNL     1     107.199 126.311 142.122  0.00  0.00    +0.000 C 
ATOM     30  C   UNL     1     106.055 125.964 142.904  0.00  0.00    +0.000 C 
BRANCH  29  32
ATOM     31  O   UNL     1     108.566 126.713 142.220  0.00  0.00    +0.000 OA
ATOM     32  C   UNL     1     107.802 126.841 141.936  0.00  0.00    +0.000 C 
BRANCH  32  33
ATOM     33  O   UNL     1     107.643 127.500 141.465  0.00  0.00    +0.000 OA
ATOM     34  C   UNL     1     108.155 128.146 141.473  0.00  0.00    +0.000 C 
ENDBRANCH  32  33
ENDBRANCH  29  32
ENDBRANCH  21  30
ENDBRANCH   4  21
TORSDOF 5
ENDMDL
MODEL 6
REMARK VINA RESULT:      -9.2      2.313      4.287
REMARK  Name = 44258070
REMARK  5 active torsions:
REMARK  status: ('A' for Active; 'I' for Inactive)
REMARK    1  A    between atoms: O_2  and  C_17
REMARK    2  A    between atoms: O_2  and  C_19
REMARK    3  A    between atoms: O_6  and  C_18
REMARK    4  A    between atoms: C_16  and  C_18
REMARK    5  A    between atoms: C_27  and  C_29
REMARK                            x       y       z     vdW  Elec       q    Type
REMARK                         _______ _______ _______ _____ _____    ______ ____
ROOT
ATOM      1  O   UNL     1     104.967 127.754 142.527  0.00  0.00    +0.000 OA
ATOM      2  O   UNL     1     107.838 127.583 142.801  0.00  0.00    +0.000 OA
ATOM      3  O   UNL     1     107.200 128.811 142.395  0.00  0.00    +0.000 OA
ATOM      4  C   UNL     1     106.255 126.030 143.128  0.00  0.00    +0.000 A 
ATOM      5  C   UNL     1     105.556 126.492 142.939  0.00  0.00    +0.000 A 
ATOM      6  C   UNL     1     107.031 126.397 143.082  0.00  0.00    +0.000 A 
ATOM      7  C   UNL     1     105.642 127.315 142.707  0.00  0.00    +0.000 A 
ATOM      8  C   UNL     1     106.385 127.667 142.663  0.00  0.00    +0.000 A 
ATOM      9  C   UNL     1     107.097 127.221 142.848  0.00  0.00    +0.000 A 
ATOM     10  C   UNL     1     106.455 128.458 142.439  0.00  0.00    +0.000 A 
ATOM     11  C   UNL     1     105.035 128.545 142.303  0.00  0.00    +0.000 A 
ATOM     12  C   UNL     1     105.780 128.897 142.259  0.00  0.00    +0.000 A 
ENDROOT
BRANCH  11  15
ATOM     13  O   UNL     1     102.999 129.303 140.448  0.00  0.00    +0.000 OA
ATOM     14  O   UNL     1     102.335 130.299 141.583  0.00  0.00    +0.000 OA
ATOM     15  C   UNL     1     104.360 128.983 142.123  0.00  0.00    +0.000 A 
ATOM     16  C   UNL     1     104.017 128.924 141.375  0.00  0.00    +0.000 A 
ATOM     17  C   UNL     1     104.028 129.481 142.691  0.00  0.00    +0.000 A 
ATOM     18  C   UNL     1     103.342 129.362 141.195  0.00  0.00    +0.000 A 
ATOM     19  C   UNL     1     103.353 129.919 142.511  0.00  0.00    +0.000 A 
ATOM     20  C   UNL     1     103.010 129.860 141.763  0.00  0.00    +0.000 A 
ENDBRANCH  11  15
BRANCH   4  21
ATOM     21  O   UNL     1     106.183 125.239 143.352  0.00  0.00    +0.000 OA
BRANCH  21  30
ATOM     22  O   UNL     1     106.404 125.412 144.753  0.00  0.00    +0.000 OA
ATOM     23  O   UNL     1     104.644 123.740 145.236  0.00  0.00    +0.000 OA
ATOM     24  O   UNL     1     105.451 124.470 146.477  0.00  0.00    +0.000 OA
ATOM     25  O   UNL     1     105.010 124.125 143.674  0.00  0.00    +0.000 OA
ATOM     26  C   UNL     1     105.230 124.297 145.075  0.00  0.00    +0.000 C 
ATOM     27  C   UNL     1     105.635 124.662 145.696  0.00  0.00    +0.000 C 
ATOM     28  C   UNL     1     105.414 124.490 144.295  0.00  0.00    +0.000 C 
ATOM     29  C   UNL     1     106.221 125.220 145.535  0.00  0.00    +0.000 C 
ATOM     30  C   UNL     1     106.000 125.047 144.134  0.00  0.00    +0.000 C 
BRANCH  29  32
ATOM     31  O   UNL     1     107.291 125.224 146.481  0.00  0.00    +0.000 OA
ATOM     32  C   UNL     1     106.624 125.584 146.154  0.00  0.00    +0.000 C 
BRANCH  32  33
ATOM     33  O   UNL     1     106.362 126.309 146.448  0.00  0.00    +0.000 OA
ATOM     34  C   UNL     1     106.858 126.767 146.922  0.00  0.00    +0.000 C 
ENDBRANCH  32  33
ENDBRANCH  29  32
ENDBRANCH  21  30
ENDBRANCH   4  21
TORSDOF 5
ENDMDL
MODEL 7
REMARK VINA RESULT:      -9.2      7.057     10.498
REMARK  Name = 44258070
REMARK  5 active torsions:
REMARK  status: ('A' for Active; 'I' for Inactive)
REMARK    1  A    between atoms: O_2  and  C_17
REMARK    2  A    between atoms: O_2  and  C_19
REMARK    3  A    between atoms: O_6  and  C_18
REMARK    4  A    between atoms: C_16  and  C_18
REMARK    5  A    between atoms: C_27  and  C_29
REMARK                            x       y       z     vdW  Elec       q    Type
REMARK                         _______ _______ _______ _____ _____    ______ ____
ROOT
ATOM      1  O   UNL     1     112.619 127.354 137.165  0.00  0.00    +0.000 OA
ATOM      2  O   UNL     1     113.017 129.842 135.752  0.00  0.00    +0.000 OA
ATOM      3  O   UNL     1     113.891 128.714 135.536  0.00  0.00    +0.000 OA
ATOM      4  C   UNL     1     111.467 129.266 137.264  0.00  0.00    +0.000 A 
ATOM      5  C   UNL     1     111.710 128.457 137.421  0.00  0.00    +0.000 A 
ATOM      6  C   UNL     1     111.909 129.739 136.698  0.00  0.00    +0.000 A 
ATOM      7  C   UNL     1     112.391 128.132 137.010  0.00  0.00    +0.000 A 
ATOM      8  C   UNL     1     112.815 128.585 136.467  0.00  0.00    +0.000 A 
ATOM      9  C   UNL     1     112.587 129.396 136.297  0.00  0.00    +0.000 A 
ATOM     10  C   UNL     1     113.467 128.261 136.079  0.00  0.00    +0.000 A 
ATOM     11  C   UNL     1     113.271 127.030 136.778  0.00  0.00    +0.000 A 
ATOM     12  C   UNL     1     113.695 127.483 136.234  0.00  0.00    +0.000 A 
ENDROOT
BRANCH  11  15
ATOM     13  O   UNL     1     112.982 124.226 136.310  0.00  0.00    +0.000 OA
ATOM     14  O   UNL     1     114.184 123.920 137.397  0.00  0.00    +0.000 OA
ATOM     15  C   UNL     1     113.500 126.252 136.933  0.00  0.00    +0.000 A 
ATOM     16  C   UNL     1     113.126 125.627 136.543  0.00  0.00    +0.000 A 
ATOM     17  C   UNL     1     114.101 126.099 137.476  0.00  0.00    +0.000 A 
ATOM     18  C   UNL     1     113.354 124.850 136.698  0.00  0.00    +0.000 A 
ATOM     19  C   UNL     1     114.329 125.322 137.631  0.00  0.00    +0.000 A 
ATOM     20  C   UNL     1     113.956 124.697 137.242  0.00  0.00    +0.000 A 
ENDBRANCH  11  15
BRANCH   4  21
ATOM     21  O   UNL     1     110.815 129.587 137.654  0.00  0.00    +0.000 OA
BRANCH  21  30
ATOM     22  O   UNL     1     109.841 129.027 136.771  0.00  0.00    +0.000 OA
ATOM     23  O   UNL     1     108.398 131.010 137.102  0.00  0.00    +0.000 OA
ATOM     24  O   UNL     1     107.906 129.788 136.109  0.00  0.00    +0.000 OA
ATOM     25  O   UNL     1     109.853 130.910 137.874  0.00  0.00    +0.000 OA
ATOM     26  C   UNL     1     108.879 130.349 136.992  0.00  0.00    +0.000 C 
ATOM     27  C   UNL     1     108.633 129.738 136.495  0.00  0.00    +0.000 C 
ATOM     28  C   UNL     1     109.607 130.298 137.377  0.00  0.00    +0.000 C 
ATOM     29  C   UNL     1     109.114 129.076 136.384  0.00  0.00    +0.000 C 
ATOM     30  C   UNL     1     110.087 129.637 137.267  0.00  0.00    +0.000 C 
BRANCH  29  32
ATOM     31  O   UNL     1     108.939 128.545 135.070  0.00  0.00    +0.000 OA
ATOM     32  C   UNL     1     108.867 128.466 135.888  0.00  0.00    +0.000 C 
BRANCH  32  33
ATOM     33  O   UNL     1     108.549 127.775 136.208  0.00  0.00    +0.000 OA
ATOM     34  C   UNL     1     108.590 127.068 135.788  0.00  0.00    +0.000 C 
ENDBRANCH  32  33
ENDBRANCH  29  32
ENDBRANCH  21  30
ENDBRANCH   4  21
TORSDOF 5
ENDMDL
MODEL 8
REMARK VINA RESULT:      -9.2      7.408     10.173
REMARK  Name = 44258070
REMARK  5 active torsions:
REMARK  status: ('A' for Active; 'I' for Inactive)
REMARK    1  A    between atoms: O_2  and  C_17
REMARK    2  A    between atoms: O_2  and  C_19
REMARK    3  A    between atoms: O_6  and  C_18
REMARK    4  A    between atoms: C_16  and  C_18
REMARK    5  A    between atoms: C_27  and  C_29
REMARK                            x       y       z     vdW  Elec       q    Type
REMARK                         _______ _______ _______ _____ _____    ______ ____
ROOT
ATOM      1  O   UNL     1     112.657 128.314 135.501  0.00  0.00    +0.000 OA
ATOM      2  O   UNL     1     109.870 128.454 134.750  0.00  0.00    +0.000 OA
ATOM      3  O   UNL     1     110.737 129.599 134.612  0.00  0.00    +0.000 OA
ATOM      4  C   UNL     1     111.063 126.750 135.585  0.00  0.00    +0.000 A 
ATOM      5  C   UNL     1     111.829 127.132 135.660  0.00  0.00    +0.000 A 
ATOM      6  C   UNL     1     110.396 127.197 135.276  0.00  0.00    +0.000 A 
ATOM      7  C   UNL     1     111.918 127.954 135.426  0.00  0.00    +0.000 A 
ATOM      8  C   UNL     1     111.279 128.381 135.130  0.00  0.00    +0.000 A 
ATOM      9  C   UNL     1     110.505 128.017 135.047  0.00  0.00    +0.000 A 
ATOM     10  C   UNL     1     111.377 129.170 134.909  0.00  0.00    +0.000 A 
ATOM     11  C   UNL     1     112.756 129.103 135.280  0.00  0.00    +0.000 A 
ATOM     12  C   UNL     1     112.116 129.531 134.984  0.00  0.00    +0.000 A 
ENDROOT
BRANCH  11  15
ATOM     13  O   UNL     1     114.634 130.595 136.831  0.00  0.00    +0.000 OA
ATOM     14  O   UNL     1     115.708 130.546 135.580  0.00  0.00    +0.000 OA
ATOM     15  C   UNL     1     113.494 129.464 135.355  0.00  0.00    +0.000 A 
ATOM     16  C   UNL     1     113.695 129.849 136.056  0.00  0.00    +0.000 A 
ATOM     17  C   UNL     1     114.031 129.439 134.728  0.00  0.00    +0.000 A 
ATOM     18  C   UNL     1     114.433 130.210 136.131  0.00  0.00    +0.000 A 
ATOM     19  C   UNL     1     114.768 129.800 134.804  0.00  0.00    +0.000 A 
ATOM     20  C   UNL     1     114.970 130.185 135.505  0.00  0.00    +0.000 A 
ENDBRANCH  11  15
BRANCH   4  21
ATOM     21  O   UNL     1     110.967 125.962 135.808  0.00  0.00    +0.000 OA
BRANCH  21  30
ATOM     22  O   UNL     1     110.483 126.236 137.123  0.00  0.00    +0.000 OA
ATOM     23  O   UNL     1     111.629 124.212 137.968  0.00  0.00    +0.000 OA
ATOM     24  O   UNL     1     110.762 125.162 139.003  0.00  0.00    +0.000 OA
ATOM     25  O   UNL     1     111.732 124.612 136.371  0.00  0.00    +0.000 OA
ATOM     26  C   UNL     1     111.247 124.887 137.687  0.00  0.00    +0.000 C 
ATOM     27  C   UNL     1     110.813 125.362 138.204  0.00  0.00    +0.000 C 
ATOM     28  C   UNL     1     111.298 125.087 136.888  0.00  0.00    +0.000 C 
ATOM     29  C   UNL     1     110.431 126.037 137.922  0.00  0.00    +0.000 C 
ATOM     30  C   UNL     1     110.916 125.762 136.607  0.00  0.00    +0.000 C 
BRANCH  29  32
ATOM     31  O   UNL     1     109.203 126.345 138.583  0.00  0.00    +0.000 OA
ATOM     32  C   UNL     1     109.998 126.511 138.439  0.00  0.00    +0.000 C 
BRANCH  32  33
ATOM     33  O   UNL     1     110.359 127.152 138.813  0.00  0.00    +0.000 OA
ATOM     34  C   UNL     1     109.900 127.768 139.113  0.00  0.00    +0.000 C 
ENDBRANCH  32  33
ENDBRANCH  29  32
ENDBRANCH  21  30
ENDBRANCH   4  21
TORSDOF 5
ENDMDL
MODEL 9
REMARK VINA RESULT:      -9.2      6.989      8.038
REMARK  Name = 44258070
REMARK  5 active torsions:
REMARK  status: ('A' for Active; 'I' for Inactive)
REMARK    1  A    between atoms: O_2  and  C_17
REMARK    2  A    between atoms: O_2  and  C_19
REMARK    3  A    between atoms: O_6  and  C_18
REMARK    4  A    between atoms: C_16  and  C_18
REMARK    5  A    between atoms: C_27  and  C_29
REMARK                            x       y       z     vdW  Elec       q    Type
REMARK                         _______ _______ _______ _____ _____    ______ ____
ROOT
ATOM      1  O   UNL     1     110.112 130.136 136.615  0.00  0.00    +0.000 OA
ATOM      2  O   UNL     1     108.052 128.380 135.604  0.00  0.00    +0.000 OA
ATOM      3  O   UNL     1     107.729 129.688 136.121  0.00  0.00    +0.000 OA
ATOM      4  C   UNL     1     110.268 128.078 135.757  0.00  0.00    +0.000 A 
ATOM      5  C   UNL     1     110.493 128.830 136.107  0.00  0.00    +0.000 A 
ATOM      6  C   UNL     1     109.439 127.923 135.585  0.00  0.00    +0.000 A 
ATOM      7  C   UNL     1     109.889 129.416 136.280  0.00  0.00    +0.000 A 
ATOM      8  C   UNL     1     109.095 129.267 136.115  0.00  0.00    +0.000 A 
ATOM      9  C   UNL     1     108.849 128.521 135.766  0.00  0.00    +0.000 A 
ATOM     10  C   UNL     1     108.524 129.837 136.286  0.00  0.00    +0.000 A 
ATOM     11  C   UNL     1     109.541 130.707 136.786  0.00  0.00    +0.000 A 
ATOM     12  C   UNL     1     108.747 130.557 136.621  0.00  0.00    +0.000 A 
ENDROOT
BRANCH  11  15
ATOM     13  O   UNL     1     110.121 132.286 139.096  0.00  0.00    +0.000 OA
ATOM     14  O   UNL     1     110.433 133.586 138.129  0.00  0.00    +0.000 OA
ATOM     15  C   UNL     1     109.764 131.427 137.122  0.00  0.00    +0.000 A 
ATOM     16  C   UNL     1     109.831 131.496 137.942  0.00  0.00    +0.000 A 
ATOM     17  C   UNL     1     109.920 132.077 136.638  0.00  0.00    +0.000 A 
ATOM     18  C   UNL     1     110.054 132.216 138.277  0.00  0.00    +0.000 A 
ATOM     19  C   UNL     1     110.143 132.796 136.974  0.00  0.00    +0.000 A 
ATOM     20  C   UNL     1     110.210 132.866 137.793  0.00  0.00    +0.000 A 
ENDBRANCH  11  15
BRANCH   4  21
ATOM     21  O   UNL     1     110.841 127.510 135.588  0.00  0.00    +0.000 OA
BRANCH  21  30
ATOM     22  O   UNL     1     110.922 126.914 136.884  0.00  0.00    +0.000 OA
ATOM     23  O   UNL     1     111.089 124.674 135.844  0.00  0.00    +0.000 OA
ATOM     24  O   UNL     1     111.114 124.825 137.487  0.00  0.00    +0.000 OA
ATOM     25  O   UNL     1     110.953 126.017 134.894  0.00  0.00    +0.000 OA
ATOM     26  C   UNL     1     111.033 125.421 136.191  0.00  0.00    +0.000 C 
ATOM     27  C   UNL     1     111.046 125.497 137.013  0.00  0.00    +0.000 C 
ATOM     28  C   UNL     1     110.965 126.092 135.717  0.00  0.00    +0.000 C 
ATOM     29  C   UNL     1     110.990 126.243 137.360  0.00  0.00    +0.000 C 
ATOM     30  C   UNL     1     110.909 126.839 136.063  0.00  0.00    +0.000 C 
BRANCH  29  32
ATOM     31  O   UNL     1     110.322 126.160 138.619  0.00  0.00    +0.000 OA
ATOM     32  C   UNL     1     111.002 126.318 138.180  0.00  0.00    +0.000 C 
BRANCH  32  33
ATOM     33  O   UNL     1     111.695 126.552 138.564  0.00  0.00    +0.000 OA
ATOM     34  C   UNL     1     111.667 126.807 139.347  0.00  0.00    +0.000 C 
ENDBRANCH  32  33
ENDBRANCH  29  32
ENDBRANCH  21  30
ENDBRANCH   4  21
TORSDOF 5
ENDMDL
MODEL 10
REMARK VINA RESULT:      -9.2      7.033     10.107
REMARK  Name = 44258070
REMARK  5 active torsions:
REMARK  status: ('A' for Active; 'I' for Inactive)
REMARK    1  A    between atoms: O_2  and  C_17
REMARK    2  A    between atoms: O_2  and  C_19
REMARK    3  A    between atoms: O_6  and  C_18
REMARK    4  A    between atoms: C_16  and  C_18
REMARK    5  A    between atoms: C_27  and  C_29
REMARK                            x       y       z     vdW  Elec       q    Type
REMARK                         _______ _______ _______ _____ _____    ______ ____
ROOT
ATOM      1  O   UNL     1     111.529 127.045 136.169  0.00  0.00    +0.000 OA
ATOM      2  O   UNL     1     113.320 129.267 135.720  0.00  0.00    +0.000 OA
ATOM      3  O   UNL     1     113.808 128.008 136.228  0.00  0.00    +0.000 OA
ATOM      4  C   UNL     1     111.108 129.102 135.403  0.00  0.00    +0.000 A 
ATOM      5  C   UNL     1     110.985 128.290 135.656  0.00  0.00    +0.000 A 
ATOM      6  C   UNL     1     111.900 129.436 135.423  0.00  0.00    +0.000 A 
ATOM      7  C   UNL     1     111.654 127.824 135.927  0.00  0.00    +0.000 A 
ATOM      8  C   UNL     1     112.413 128.145 135.946  0.00  0.00    +0.000 A 
ATOM      9  C   UNL     1     112.556 128.955 135.697  0.00  0.00    +0.000 A 
ATOM     10  C   UNL     1     113.047 127.687 136.208  0.00  0.00    +0.000 A 
ATOM     11  C   UNL     1     112.163 126.587 136.431  0.00  0.00    +0.000 A 
ATOM     12  C   UNL     1     112.922 126.908 136.451  0.00  0.00    +0.000 A 
ENDROOT
BRANCH  11  15
ATOM     13  O   UNL     1     111.249 124.724 138.395  0.00  0.00    +0.000 OA
ATOM     14  O   UNL     1     111.662 123.473 137.401  0.00  0.00    +0.000 OA
ATOM     15  C   UNL     1     112.038 125.808 136.674  0.00  0.00    +0.000 A 
ATOM     16  C   UNL     1     111.706 125.656 137.414  0.00  0.00    +0.000 A 
ATOM     17  C   UNL     1     112.244 125.183 136.177  0.00  0.00    +0.000 A 
ATOM     18  C   UNL     1     111.581 124.877 137.656  0.00  0.00    +0.000 A 
ATOM     19  C   UNL     1     112.119 124.405 136.420  0.00  0.00    +0.000 A 
ATOM     20  C   UNL     1     111.787 124.252 137.159  0.00  0.00    +0.000 A 
ENDBRANCH  11  15
BRANCH   4  21
ATOM     21  O   UNL     1     110.471 129.557 135.141  0.00  0.00    +0.000 OA
BRANCH  21  30
ATOM     22  O   UNL     1     110.239 130.267 136.360  0.00  0.00    +0.000 OA
ATOM     23  O   UNL     1     107.797 130.114 135.982  0.00  0.00    +0.000 OA
ATOM     24  O   UNL     1     108.378 130.874 137.326  0.00  0.00    +0.000 OA
ATOM     25  O   UNL     1     108.844 129.455 134.890  0.00  0.00    +0.000 OA
ATOM     26  C   UNL     1     108.611 130.165 136.108  0.00  0.00    +0.000 C 
ATOM     27  C   UNL     1     108.902 130.545 136.781  0.00  0.00    +0.000 C 
ATOM     28  C   UNL     1     109.135 129.836 135.562  0.00  0.00    +0.000 C 
ATOM     29  C   UNL     1     109.716 130.596 136.906  0.00  0.00    +0.000 C 
ATOM     30  C   UNL     1     109.949 129.887 135.688  0.00  0.00    +0.000 C 
BRANCH  29  32
ATOM     31  O   UNL     1     110.106 131.795 137.577  0.00  0.00    +0.000 OA
ATOM     32  C   UNL     1     110.006 130.976 137.578  0.00  0.00    +0.000 C 
BRANCH  32  33
ATOM     33  O   UNL     1     110.196 130.538 138.251  0.00  0.00    +0.000 OA
ATOM     34  C   UNL     1     110.715 130.847 138.812  0.00  0.00    +0.000 C 
ENDBRANCH  32  33
ENDBRANCH  29  32
ENDBRANCH  21  30
ENDBRANCH   4  21
TORSDOF 5
ENDMDL
