MODEL 1
REMARK VINA RESULT:      -9.2      0.000      0.000
REMARK  Name = 42608098
REMARK  4 active torsions:
REMARK  status: ('A' for Active; 'I' for Inactive)
REMARK    1  A    between atoms: O_2  and  C_16
REMARK    2  A    between atoms: O_2  and  C_18
REMARK    3  A    between atoms: C_15  and  C_17
REMARK    4  A    between atoms: C_20  and  C_25
REMARK                            x       y       z     vdW  Elec       q    Type
REMARK                         _______ _______ _______ _____ _____    ______ ____
ROOT
ATOM      1  O   UNL     1     113.512 127.747 136.760  0.00  0.00    +0.000 OA
ATOM      2  O   UNL     1     111.728 130.387 135.780  0.00  0.00    +0.000 OA
ATOM      3  O   UNL     1     111.280 127.430 135.608  0.00  0.00    +0.000 OA
ATOM      4  O   UNL     1     113.182 130.599 136.530  0.00  0.00    +0.000 OA
ATOM      5  C   UNL     1     111.879 128.970 135.887  0.00  0.00    +0.000 A 
ATOM      6  C   UNL     1     112.319 128.314 136.129  0.00  0.00    +0.000 A 
ATOM      7  C   UNL     1     113.218 126.950 136.623  0.00  0.00    +0.000 C 
ATOM      8  C   UNL     1     112.460 126.840 136.232  0.00  0.00    +0.000 C 
ATOM      9  C   UNL     1     113.046 128.421 136.504  0.00  0.00    +0.000 A 
ATOM     10  C   UNL     1     112.007 127.527 135.983  0.00  0.00    +0.000 C 
ATOM     11  C   UNL     1     112.167 129.731 136.022  0.00  0.00    +0.000 A 
ATOM     12  C   UNL     1     113.333 129.182 136.638  0.00  0.00    +0.000 A 
ATOM     13  C   UNL     1     112.894 129.837 136.397  0.00  0.00    +0.000 A 
ENDROOT
BRANCH   7  15
ATOM     14  O   UNL     1     114.983 124.336 137.591  0.00  0.00    +0.000 OA
ATOM     15  C   UNL     1     113.659 126.297 136.866  0.00  0.00    +0.000 A 
ATOM     16  C   UNL     1     114.167 125.922 136.334  0.00  0.00    +0.000 A 
ATOM     17  C   UNL     1     113.593 126.018 137.639  0.00  0.00    +0.000 A 
ATOM     18  C   UNL     1     114.608 125.269 136.576  0.00  0.00    +0.000 A 
ATOM     19  C   UNL     1     114.035 125.364 137.881  0.00  0.00    +0.000 A 
ATOM     20  C   UNL     1     114.542 124.990 137.350  0.00  0.00    +0.000 A 
ENDBRANCH   7  15
BRANCH   5  21
ATOM     21  O   UNL     1     111.152 128.864 135.512  0.00  0.00    +0.000 OA
BRANCH  21  30
ATOM     22  O   UNL     1     110.393 129.036 136.711  0.00  0.00    +0.000 OA
ATOM     23  O   UNL     1     108.491 129.898 135.382  0.00  0.00    +0.000 OA
ATOM     24  O   UNL     1     108.366 129.782 137.023  0.00  0.00    +0.000 OA
ATOM     25  O   UNL     1     109.884 129.439 134.627  0.00  0.00    +0.000 OA
ATOM     26  C   UNL     1     109.125 129.611 135.825  0.00  0.00    +0.000 C 
ATOM     27  C   UNL     1     109.063 129.553 136.646  0.00  0.00    +0.000 C 
ATOM     28  C   UNL     1     109.822 129.381 135.447  0.00  0.00    +0.000 C 
ATOM     29  C   UNL     1     109.697 129.266 137.088  0.00  0.00    +0.000 C 
ATOM     30  C   UNL     1     110.456 129.094 135.890  0.00  0.00    +0.000 C 
BRANCH  29  32
ATOM     31  O   UNL     1     109.627 128.467 138.271  0.00  0.00    +0.000 OA
ATOM     32  C   UNL     1     109.635 129.208 137.908  0.00  0.00    +0.000 C 
ENDBRANCH  29  32
ENDBRANCH  21  30
ENDBRANCH   5  21
TORSDOF 4
ENDMDL
MODEL 2
REMARK VINA RESULT:      -9.2      1.407      2.272
REMARK  Name = 42608098
REMARK  4 active torsions:
REMARK  status: ('A' for Active; 'I' for Inactive)
REMARK    1  A    between atoms: O_2  and  C_16
REMARK    2  A    between atoms: O_2  and  C_18
REMARK    3  A    between atoms: C_15  and  C_17
REMARK    4  A    between atoms: C_20  and  C_25
REMARK                            x       y       z     vdW  Elec       q    Type
REMARK                         _______ _______ _______ _____ _____    ______ ____
ROOT
ATOM      1  O   UNL     1     113.836 127.297 136.154  0.00  0.00    +0.000 OA
ATOM      2  O   UNL     1     113.831 130.629 136.020  0.00  0.00    +0.000 OA
ATOM      3  O   UNL     1     112.690 128.651 137.961  0.00  0.00    +0.000 OA
ATOM      4  O   UNL     1     114.579 129.751 134.840  0.00  0.00    +0.000 OA
ATOM      5  C   UNL     1     113.456 129.419 136.682  0.00  0.00    +0.000 A 
ATOM      6  C   UNL     1     113.455 128.594 136.718  0.00  0.00    +0.000 A 
ATOM      7  C   UNL     1     113.447 126.889 136.803  0.00  0.00    +0.000 C 
ATOM      8  C   UNL     1     113.057 127.347 137.418  0.00  0.00    +0.000 C 
ATOM      9  C   UNL     1     113.829 128.156 136.128  0.00  0.00    +0.000 A 
ATOM     10  C   UNL     1     113.061 128.206 137.375  0.00  0.00    +0.000 C 
ATOM     11  C   UNL     1     113.831 129.804 136.056  0.00  0.00    +0.000 A 
ATOM     12  C   UNL     1     114.204 128.542 135.502  0.00  0.00    +0.000 A 
ATOM     13  C   UNL     1     114.204 129.365 135.466  0.00  0.00    +0.000 A 
ENDROOT
BRANCH   7  15
ATOM     14  O   UNL     1     113.449 123.593 136.936  0.00  0.00    +0.000 OA
ATOM     15  C   UNL     1     113.448 126.065 136.837  0.00  0.00    +0.000 A 
ATOM     16  C   UNL     1     112.813 125.639 136.527  0.00  0.00    +0.000 A 
ATOM     17  C   UNL     1     114.084 125.667 137.179  0.00  0.00    +0.000 A 
ATOM     18  C   UNL     1     112.813 124.816 136.560  0.00  0.00    +0.000 A 
ATOM     19  C   UNL     1     114.084 124.842 137.212  0.00  0.00    +0.000 A 
ATOM     20  C   UNL     1     113.449 124.417 136.903  0.00  0.00    +0.000 A 
ENDBRANCH   7  15
BRANCH   5  21
ATOM     21  O   UNL     1     113.082 129.858 137.272  0.00  0.00    +0.000 OA
BRANCH  21  30
ATOM     22  O   UNL     1     111.877 129.997 136.517  0.00  0.00    +0.000 OA
ATOM     23  O   UNL     1     111.337 132.069 137.759  0.00  0.00    +0.000 OA
ATOM     24  O   UNL     1     110.313 131.517 136.591  0.00  0.00    +0.000 OA
ATOM     25  O   UNL     1     112.722 131.239 138.100  0.00  0.00    +0.000 OA
ATOM     26  C   UNL     1     111.517 131.378 137.345  0.00  0.00    +0.000 C 
ATOM     27  C   UNL     1     111.005 131.102 136.761  0.00  0.00    +0.000 C 
ATOM     28  C   UNL     1     112.210 130.963 137.516  0.00  0.00    +0.000 C 
ATOM     29  C   UNL     1     111.185 130.411 136.347  0.00  0.00    +0.000 C 
ATOM     30  C   UNL     1     112.390 130.272 137.102  0.00  0.00    +0.000 C 
BRANCH  29  32
ATOM     31  O   UNL     1     110.296 129.407 135.853  0.00  0.00    +0.000 OA
ATOM     32  C   UNL     1     110.672 130.136 135.763  0.00  0.00    +0.000 C 
ENDBRANCH  29  32
ENDBRANCH  21  30
ENDBRANCH   5  21
TORSDOF 4
ENDMDL
MODEL 3
REMARK VINA RESULT:      -9.2      7.405      9.220
REMARK  Name = 42608098
REMARK  4 active torsions:
REMARK  status: ('A' for Active; 'I' for Inactive)
REMARK    1  A    between atoms: O_2  and  C_16
REMARK    2  A    between atoms: O_2  and  C_18
REMARK    3  A    between atoms: C_15  and  C_17
REMARK    4  A    between atoms: C_20  and  C_25
REMARK                            x       y       z     vdW  Elec       q    Type
REMARK                         _______ _______ _______ _____ _____    ______ ____
ROOT
ATOM      1  O   UNL     1     104.339 123.721 140.025  0.00  0.00    +0.000 OA
ATOM      2  O   UNL     1     106.387 124.504 142.538  0.00  0.00    +0.000 OA
ATOM      3  O   UNL     1     106.331 125.234 139.633  0.00  0.00    +0.000 OA
ATOM      4  O   UNL     1     105.091 123.517 142.799  0.00  0.00    +0.000 OA
ATOM      5  C   UNL     1     106.025 124.613 141.160  0.00  0.00    +0.000 A 
ATOM      6  C   UNL     1     105.520 124.421 140.535  0.00  0.00    +0.000 A 
ATOM      7  C   UNL     1     104.483 124.032 139.237  0.00  0.00    +0.000 C 
ATOM      8  C   UNL     1     105.158 124.546 139.100  0.00  0.00    +0.000 C 
ATOM      9  C   UNL     1     104.872 123.928 140.666  0.00  0.00    +0.000 A 
ATOM     10  C   UNL     1     105.681 124.742 139.755  0.00  0.00    +0.000 C 
ATOM     11  C   UNL     1     105.882 124.312 141.914  0.00  0.00    +0.000 A 
ATOM     12  C   UNL     1     104.729 123.627 141.421  0.00  0.00    +0.000 A 
ATOM     13  C   UNL     1     105.233 123.818 142.044  0.00  0.00    +0.000 A 
ENDROOT
BRANCH   7  15
ATOM     14  O   UNL     1     102.456 123.259 136.750  0.00  0.00    +0.000 OA
ATOM     15  C   UNL     1     103.976 123.838 138.615  0.00  0.00    +0.000 A 
ATOM     16  C   UNL     1     103.172 124.016 138.667  0.00  0.00    +0.000 A 
ATOM     17  C   UNL     1     104.274 123.467 137.941  0.00  0.00    +0.000 A 
ATOM     18  C   UNL     1     102.666 123.823 138.046  0.00  0.00    +0.000 A 
ATOM     19  C   UNL     1     103.766 123.274 137.319  0.00  0.00    +0.000 A 
ATOM     20  C   UNL     1     102.963 123.452 137.371  0.00  0.00    +0.000 A 
ENDBRANCH   7  15
BRANCH   5  21
ATOM     21  O   UNL     1     106.674 125.107 141.029  0.00  0.00    +0.000 OA
BRANCH  21  30
ATOM     22  O   UNL     1     106.015 126.295 141.471  0.00  0.00    +0.000 OA
ATOM     23  O   UNL     1     108.175 127.192 142.279  0.00  0.00    +0.000 OA
ATOM     24  O   UNL     1     106.797 128.081 142.451  0.00  0.00    +0.000 OA
ATOM     25  O   UNL     1     108.114 125.705 141.568  0.00  0.00    +0.000 OA
ATOM     26  C   UNL     1     107.455 126.893 142.009  0.00  0.00    +0.000 C 
ATOM     27  C   UNL     1     106.765 127.338 142.095  0.00  0.00    +0.000 C 
ATOM     28  C   UNL     1     107.424 126.149 141.653  0.00  0.00    +0.000 C 
ATOM     29  C   UNL     1     106.045 127.039 141.826  0.00  0.00    +0.000 C 
ATOM     30  C   UNL     1     106.704 125.850 141.384  0.00  0.00    +0.000 C 
BRANCH  29  32
ATOM     31  O   UNL     1     104.917 127.697 141.247  0.00  0.00    +0.000 OA
ATOM     32  C   UNL     1     105.356 127.483 141.912  0.00  0.00    +0.000 C 
ENDBRANCH  29  32
ENDBRANCH  21  30
ENDBRANCH   5  21
TORSDOF 4
ENDMDL
MODEL 4
REMARK VINA RESULT:      -9.1      1.479      2.713
REMARK  Name = 42608098
REMARK  4 active torsions:
REMARK  status: ('A' for Active; 'I' for Inactive)
REMARK    1  A    between atoms: O_2  and  C_16
REMARK    2  A    between atoms: O_2  and  C_18
REMARK    3  A    between atoms: C_15  and  C_17
REMARK    4  A    between atoms: C_20  and  C_25
REMARK                            x       y       z     vdW  Elec       q    Type
REMARK                         _______ _______ _______ _____ _____    ______ ____
ROOT
ATOM      1  O   UNL     1     111.870 125.553 136.049  0.00  0.00    +0.000 OA
ATOM      2  O   UNL     1     108.869 126.885 135.466  0.00  0.00    +0.000 OA
ATOM      3  O   UNL     1     111.090 127.577 137.355  0.00  0.00    +0.000 OA
ATOM      4  O   UNL     1     109.373 125.566 134.612  0.00  0.00    +0.000 OA
ATOM      5  C   UNL     1     110.104 126.890 136.186  0.00  0.00    +0.000 A 
ATOM      6  C   UNL     1     110.847 126.562 136.333  0.00  0.00    +0.000 A 
ATOM      7  C   UNL     1     112.387 125.895 136.645  0.00  0.00    +0.000 C 
ATOM      8  C   UNL     1     112.124 126.582 137.090  0.00  0.00    +0.000 C 
ATOM      9  C   UNL     1     111.099 125.903 135.906  0.00  0.00    +0.000 A 
ATOM     10  C   UNL     1     111.349 126.918 136.933  0.00  0.00    +0.000 C 
ATOM     11  C   UNL     1     109.613 126.557 135.613  0.00  0.00    +0.000 A 
ATOM     12  C   UNL     1     110.607 125.571 135.332  0.00  0.00    +0.000 A 
ATOM     13  C   UNL     1     109.865 125.898 135.186  0.00  0.00    +0.000 A 
ENDROOT
BRANCH   7  15
ATOM     14  O   UNL     1     115.356 124.577 137.224  0.00  0.00    +0.000 OA
ATOM     15  C   UNL     1     113.129 125.565 136.790  0.00  0.00    +0.000 A 
ATOM     16  C   UNL     1     113.196 124.885 137.251  0.00  0.00    +0.000 A 
ATOM     17  C   UNL     1     113.805 125.917 136.472  0.00  0.00    +0.000 A 
ATOM     18  C   UNL     1     113.938 124.556 137.396  0.00  0.00    +0.000 A 
ATOM     19  C   UNL     1     114.548 125.586 136.617  0.00  0.00    +0.000 A 
ATOM     20  C   UNL     1     114.614 124.907 137.078  0.00  0.00    +0.000 A 
ENDBRANCH   7  15
BRANCH   5  21
ATOM     21  O   UNL     1     109.852 127.550 136.613  0.00  0.00    +0.000 OA
BRANCH  21  30
ATOM     22  O   UNL     1     110.279 128.478 135.614  0.00  0.00    +0.000 OA
ATOM     23  O   UNL     1     108.539 130.075 136.355  0.00  0.00    +0.000 OA
ATOM     24  O   UNL     1     109.545 130.470 135.109  0.00  0.00    +0.000 OA
ATOM     25  O   UNL     1     108.692 128.614 137.107  0.00  0.00    +0.000 OA
ATOM     26  C   UNL     1     109.119 129.542 136.108  0.00  0.00    +0.000 C 
ATOM     27  C   UNL     1     109.622 129.740 135.485  0.00  0.00    +0.000 C 
ATOM     28  C   UNL     1     109.196 128.812 136.484  0.00  0.00    +0.000 C 
ATOM     29  C   UNL     1     110.202 129.207 135.238  0.00  0.00    +0.000 C 
ATOM     30  C   UNL     1     109.775 128.279 136.237  0.00  0.00    +0.000 C 
BRANCH  29  32
ATOM     31  O   UNL     1     111.518 129.469 134.745  0.00  0.00    +0.000 OA
ATOM     32  C   UNL     1     110.705 129.405 134.616  0.00  0.00    +0.000 C 
ENDBRANCH  29  32
ENDBRANCH  21  30
ENDBRANCH   5  21
TORSDOF 4
ENDMDL
MODEL 5
REMARK VINA RESULT:      -8.9      2.014      4.069
REMARK  Name = 42608098
REMARK  4 active torsions:
REMARK  status: ('A' for Active; 'I' for Inactive)
REMARK    1  A    between atoms: O_2  and  C_16
REMARK    2  A    between atoms: O_2  and  C_18
REMARK    3  A    between atoms: C_15  and  C_17
REMARK    4  A    between atoms: C_20  and  C_25
REMARK                            x       y       z     vdW  Elec       q    Type
REMARK                         _______ _______ _______ _____ _____    ______ ____
ROOT
ATOM      1  O   UNL     1     112.752 128.889 135.353  0.00  0.00    +0.000 OA
ATOM      2  O   UNL     1     110.575 126.390 135.720  0.00  0.00    +0.000 OA
ATOM      3  O   UNL     1     113.445 126.742 136.503  0.00  0.00    +0.000 OA
ATOM      4  O   UNL     1     110.117 127.786 134.970  0.00  0.00    +0.000 OA
ATOM      5  C   UNL     1     111.885 126.924 135.917  0.00  0.00    +0.000 A 
ATOM      6  C   UNL     1     112.427 127.542 135.827  0.00  0.00    +0.000 A 
ATOM      7  C   UNL     1     113.555 128.810 135.649  0.00  0.00    +0.000 C 
ATOM      8  C   UNL     1     113.794 128.082 136.040  0.00  0.00    +0.000 C 
ATOM      9  C   UNL     1     112.198 128.240 135.452  0.00  0.00    +0.000 A 
ATOM     10  C   UNL     1     113.225 127.443 136.129  0.00  0.00    +0.000 C 
ATOM     11  C   UNL     1     111.116 127.007 135.631  0.00  0.00    +0.000 A 
ATOM     12  C   UNL     1     111.428 128.321 135.167  0.00  0.00    +0.000 A 
ATOM     13  C   UNL     1     110.887 127.705 135.256  0.00  0.00    +0.000 A 
ENDROOT
BRANCH   7  15
ATOM     14  O   UNL     1     115.710 131.282 135.288  0.00  0.00    +0.000 OA
ATOM     15  C   UNL     1     114.094 129.428 135.558  0.00  0.00    +0.000 A 
ATOM     16  C   UNL     1     114.192 129.982 136.162  0.00  0.00    +0.000 A 
ATOM     17  C   UNL     1     114.535 129.492 134.864  0.00  0.00    +0.000 A 
ATOM     18  C   UNL     1     114.730 130.599 136.072  0.00  0.00    +0.000 A 
ATOM     19  C   UNL     1     115.074 130.111 134.774  0.00  0.00    +0.000 A 
ATOM     20  C   UNL     1     115.172 130.664 135.377  0.00  0.00    +0.000 A 
ENDBRANCH   7  15
BRANCH   5  21
ATOM     21  O   UNL     1     112.114 126.226 136.291  0.00  0.00    +0.000 OA
BRANCH  21  30
ATOM     22  O   UNL     1     111.600 126.630 137.562  0.00  0.00    +0.000 OA
ATOM     23  O   UNL     1     111.262 124.257 138.180  0.00  0.00    +0.000 OA
ATOM     24  O   UNL     1     110.861 125.452 139.244  0.00  0.00    +0.000 OA
ATOM     25  O   UNL     1     111.889 124.644 136.703  0.00  0.00    +0.000 OA
ATOM     26  C   UNL     1     111.375 125.048 137.974  0.00  0.00    +0.000 C 
ATOM     27  C   UNL     1     111.174 125.646 138.506  0.00  0.00    +0.000 C 
ATOM     28  C   UNL     1     111.689 125.242 137.235  0.00  0.00    +0.000 C 
ATOM     29  C   UNL     1     111.287 126.437 138.300  0.00  0.00    +0.000 C 
ATOM     30  C   UNL     1     111.801 126.033 137.029  0.00  0.00    +0.000 C 
BRANCH  29  32
ATOM     31  O   UNL     1     111.669 127.540 139.124  0.00  0.00    +0.000 OA
ATOM     32  C   UNL     1     111.086 127.033 138.832  0.00  0.00    +0.000 C 
ENDBRANCH  29  32
ENDBRANCH  21  30
ENDBRANCH   5  21
TORSDOF 4
ENDMDL
MODEL 6
REMARK VINA RESULT:      -8.9      1.671      2.751
REMARK  Name = 42608098
REMARK  4 active torsions:
REMARK  status: ('A' for Active; 'I' for Inactive)
REMARK    1  A    between atoms: O_2  and  C_16
REMARK    2  A    between atoms: O_2  and  C_18
REMARK    3  A    between atoms: C_15  and  C_17
REMARK    4  A    between atoms: C_20  and  C_25
REMARK                            x       y       z     vdW  Elec       q    Type
REMARK                         _______ _______ _______ _____ _____    ______ ____
ROOT
ATOM      1  O   UNL     1     111.441 126.352 135.944  0.00  0.00    +0.000 OA
ATOM      2  O   UNL     1     111.504 129.560 135.036  0.00  0.00    +0.000 OA
ATOM      3  O   UNL     1     113.393 127.830 136.590  0.00  0.00    +0.000 OA
ATOM      4  O   UNL     1     110.229 128.601 134.612  0.00  0.00    +0.000 OA
ATOM      5  C   UNL     1     112.116 128.452 135.700  0.00  0.00    +0.000 A 
ATOM      6  C   UNL     1     112.103 127.658 135.926  0.00  0.00    +0.000 A 
ATOM      7  C   UNL     1     112.089 126.018 136.400  0.00  0.00    +0.000 C 
ATOM      8  C   UNL     1     112.753 126.518 136.621  0.00  0.00    +0.000 C 
ATOM      9  C   UNL     1     111.466 127.179 135.715  0.00  0.00    +0.000 A 
ATOM     10  C   UNL     1     112.760 127.344 136.383  0.00  0.00    +0.000 C 
ATOM     11  C   UNL     1     111.491 128.766 135.262  0.00  0.00    +0.000 A 
ATOM     12  C   UNL     1     110.842 127.494 135.276  0.00  0.00    +0.000 A 
ATOM     13  C   UNL     1     110.854 128.286 135.050  0.00  0.00    +0.000 A 
ENDROOT
BRANCH   7  15
ATOM     14  O   UNL     1     112.030 122.844 137.298  0.00  0.00    +0.000 OA
ATOM     15  C   UNL     1     112.074 125.225 136.625  0.00  0.00    +0.000 A 
ATOM     16  C   UNL     1     112.509 124.668 136.200  0.00  0.00    +0.000 A 
ATOM     17  C   UNL     1     111.624 124.989 137.275  0.00  0.00    +0.000 A 
ATOM     18  C   UNL     1     112.495 123.875 136.425  0.00  0.00    +0.000 A 
ATOM     19  C   UNL     1     111.609 124.194 137.499  0.00  0.00    +0.000 A 
ATOM     20  C   UNL     1     112.044 123.638 137.075  0.00  0.00    +0.000 A 
ENDBRANCH   7  15
BRANCH   5  21
ATOM     21  O   UNL     1     112.753 128.932 135.912  0.00  0.00    +0.000 OA
BRANCH  21  30
ATOM     22  O   UNL     1     112.088 129.445 137.068  0.00  0.00    +0.000 OA
ATOM     23  O   UNL     1     113.472 131.494 136.955  0.00  0.00    +0.000 OA
ATOM     24  O   UNL     1     112.346 131.324 138.147  0.00  0.00    +0.000 OA
ATOM     25  O   UNL     1     113.676 130.297 135.837  0.00  0.00    +0.000 OA
ATOM     26  C   UNL     1     113.011 130.811 136.992  0.00  0.00    +0.000 C 
ATOM     27  C   UNL     1     112.447 130.726 137.589  0.00  0.00    +0.000 C 
ATOM     28  C   UNL     1     113.113 130.212 136.433  0.00  0.00    +0.000 C 
ATOM     29  C   UNL     1     111.986 130.043 137.626  0.00  0.00    +0.000 C 
ATOM     30  C   UNL     1     112.651 129.529 136.471  0.00  0.00    +0.000 C 
BRANCH  29  32
ATOM     31  O   UNL     1     111.495 129.351 138.776  0.00  0.00    +0.000 OA
ATOM     32  C   UNL     1     111.423 129.959 138.223  0.00  0.00    +0.000 C 
ENDBRANCH  29  32
ENDBRANCH  21  30
ENDBRANCH   5  21
TORSDOF 4
ENDMDL
MODEL 7
REMARK VINA RESULT:      -8.8      2.321      4.296
REMARK  Name = 42608098
REMARK  4 active torsions:
REMARK  status: ('A' for Active; 'I' for Inactive)
REMARK    1  A    between atoms: O_2  and  C_16
REMARK    2  A    between atoms: O_2  and  C_18
REMARK    3  A    between atoms: C_15  and  C_17
REMARK    4  A    between atoms: C_20  and  C_25
REMARK                            x       y       z     vdW  Elec       q    Type
REMARK                         _______ _______ _______ _____ _____    ______ ____
ROOT
ATOM      1  O   UNL     1     114.255 127.613 136.105  0.00  0.00    +0.000 OA
ATOM      2  O   UNL     1     112.782 124.903 137.374  0.00  0.00    +0.000 OA
ATOM      3  O   UNL     1     111.859 127.717 136.918  0.00  0.00    +0.000 OA
ATOM      4  O   UNL     1     114.344 124.830 136.846  0.00  0.00    +0.000 OA
ATOM      5  C   UNL     1     112.724 126.284 137.011  0.00  0.00    +0.000 A 
ATOM      6  C   UNL     1     113.086 126.957 136.697  0.00  0.00    +0.000 A 
ATOM      7  C   UNL     1     113.823 128.355 136.051  0.00  0.00    +0.000 C 
ATOM      8  C   UNL     1     113.009 128.393 136.326  0.00  0.00    +0.000 C 
ATOM      9  C   UNL     1     113.867 126.920 136.433  0.00  0.00    +0.000 A 
ATOM     10  C   UNL     1     112.638 127.689 136.652  0.00  0.00    +0.000 C 
ATOM     11  C   UNL     1     113.144 125.576 137.060  0.00  0.00    +0.000 A 
ATOM     12  C   UNL     1     114.286 126.211 136.483  0.00  0.00    +0.000 A 
ATOM     13  C   UNL     1     113.925 125.539 136.796  0.00  0.00    +0.000 A 
ENDROOT
BRANCH   7  15
ATOM     14  O   UNL     1     115.279 131.038 134.798  0.00  0.00    +0.000 OA
ATOM     15  C   UNL     1     114.187 129.025 135.738  0.00  0.00    +0.000 A 
ATOM     16  C   UNL     1     114.418 129.641 136.236  0.00  0.00    +0.000 A 
ATOM     17  C   UNL     1     114.320 129.081 134.925  0.00  0.00    +0.000 A 
ATOM     18  C   UNL     1     114.781 130.311 135.923  0.00  0.00    +0.000 A 
ATOM     19  C   UNL     1     114.684 129.752 134.612  0.00  0.00    +0.000 A 
ATOM     20  C   UNL     1     114.915 130.367 135.110  0.00  0.00    +0.000 A 
ENDBRANCH   7  15
BRANCH   5  21
ATOM     21  O   UNL     1     111.944 126.321 137.275  0.00  0.00    +0.000 OA
BRANCH  21  30
ATOM     22  O   UNL     1     112.318 126.544 138.636  0.00  0.00    +0.000 OA
ATOM     23  O   UNL     1     110.198 125.512 139.388  0.00  0.00    +0.000 OA
ATOM     24  O   UNL     1     111.279 126.079 140.497  0.00  0.00    +0.000 OA
ATOM     25  O   UNL     1     110.530 125.633 137.776  0.00  0.00    +0.000 OA
ATOM     26  C   UNL     1     110.904 125.856 139.137  0.00  0.00    +0.000 C 
ATOM     27  C   UNL     1     111.445 126.140 139.692  0.00  0.00    +0.000 C 
ATOM     28  C   UNL     1     111.071 125.917 138.331  0.00  0.00    +0.000 C 
ATOM     29  C   UNL     1     112.152 126.484 139.441  0.00  0.00    +0.000 C 
ATOM     30  C   UNL     1     111.778 126.261 138.080  0.00  0.00    +0.000 C 
BRANCH  29  32
ATOM     31  O   UNL     1     112.884 127.569 140.014  0.00  0.00    +0.000 OA
ATOM     32  C   UNL     1     112.692 126.767 139.996  0.00  0.00    +0.000 C 
ENDBRANCH  29  32
ENDBRANCH  21  30
ENDBRANCH   5  21
TORSDOF 4
ENDMDL
MODEL 8
REMARK VINA RESULT:      -8.7      2.463      4.655
REMARK  Name = 42608098
REMARK  4 active torsions:
REMARK  status: ('A' for Active; 'I' for Inactive)
REMARK    1  A    between atoms: O_2  and  C_16
REMARK    2  A    between atoms: O_2  and  C_18
REMARK    3  A    between atoms: C_15  and  C_17
REMARK    4  A    between atoms: C_20  and  C_25
REMARK                            x       y       z     vdW  Elec       q    Type
REMARK                         _______ _______ _______ _____ _____    ______ ____
ROOT
ATOM      1  O   UNL     1     113.618 129.003 137.234  0.00  0.00    +0.000 OA
ATOM      2  O   UNL     1     111.873 126.525 138.624  0.00  0.00    +0.000 OA
ATOM      3  O   UNL     1     112.518 127.240 135.787  0.00  0.00    +0.000 OA
ATOM      4  O   UNL     1     112.587 127.671 139.571  0.00  0.00    +0.000 OA
ATOM      5  C   UNL     1     112.378 127.176 137.456  0.00  0.00    +0.000 A 
ATOM      6  C   UNL     1     112.809 127.788 137.109  0.00  0.00    +0.000 A 
ATOM      7  C   UNL     1     113.698 129.049 136.379  0.00  0.00    +0.000 C 
ATOM      8  C   UNL     1     113.326 128.452 135.885  0.00  0.00    +0.000 C 
ATOM      9  C   UNL     1     113.166 128.361 137.583  0.00  0.00    +0.000 A 
ATOM     10  C   UNL     1     112.878 127.817 136.253  0.00  0.00    +0.000 C 
ATOM     11  C   UNL     1     112.304 127.138 138.277  0.00  0.00    +0.000 A 
ATOM     12  C   UNL     1     113.092 128.322 138.404  0.00  0.00    +0.000 A 
ATOM     13  C   UNL     1     112.662 127.711 138.751  0.00  0.00    +0.000 A 
ENDROOT
BRANCH   7  15
ATOM     14  O   UNL     1     115.424 131.502 135.002  0.00  0.00    +0.000 OA
ATOM     15  C   UNL     1     114.130 129.662 136.035  0.00  0.00    +0.000 A 
ATOM     16  C   UNL     1     114.013 130.440 136.284  0.00  0.00    +0.000 A 
ATOM     17  C   UNL     1     114.678 129.498 135.440  0.00  0.00    +0.000 A 
ATOM     18  C   UNL     1     114.444 131.053 135.941  0.00  0.00    +0.000 A 
ATOM     19  C   UNL     1     115.109 130.112 135.096  0.00  0.00    +0.000 A 
ATOM     20  C   UNL     1     114.993 130.888 135.346  0.00  0.00    +0.000 A 
ENDBRANCH   7  15
BRANCH   5  21
ATOM     21  O   UNL     1     112.020 126.603 136.982  0.00  0.00    +0.000 OA
BRANCH  21  30
ATOM     22  O   UNL     1     113.115 125.694 137.124  0.00  0.00    +0.000 OA
ATOM     23  O   UNL     1     111.600 123.795 136.649  0.00  0.00    +0.000 OA
ATOM     24  O   UNL     1     113.198 123.521 136.950  0.00  0.00    +0.000 OA
ATOM     25  O   UNL     1     111.011 125.337 136.665  0.00  0.00    +0.000 OA
ATOM     26  C   UNL     1     112.105 124.428 136.808  0.00  0.00    +0.000 C 
ATOM     27  C   UNL     1     112.904 124.292 136.958  0.00  0.00    +0.000 C 
ATOM     28  C   UNL     1     111.810 125.200 136.816  0.00  0.00    +0.000 C 
ATOM     29  C   UNL     1     113.409 124.924 137.116  0.00  0.00    +0.000 C 
ATOM     30  C   UNL     1     112.315 125.833 136.974  0.00  0.00    +0.000 C 
BRANCH  29  32
ATOM     31  O   UNL     1     114.782 125.074 136.747  0.00  0.00    +0.000 OA
ATOM     32  C   UNL     1     114.208 124.787 137.267  0.00  0.00    +0.000 C 
ENDBRANCH  29  32
ENDBRANCH  21  30
ENDBRANCH   5  21
TORSDOF 4
ENDMDL
MODEL 9
REMARK VINA RESULT:      -8.7     10.700     13.143
REMARK  Name = 42608098
REMARK  4 active torsions:
REMARK  status: ('A' for Active; 'I' for Inactive)
REMARK    1  A    between atoms: O_2  and  C_16
REMARK    2  A    between atoms: O_2  and  C_18
REMARK    3  A    between atoms: C_15  and  C_17
REMARK    4  A    between atoms: C_20  and  C_25
REMARK                            x       y       z     vdW  Elec       q    Type
REMARK                         _______ _______ _______ _____ _____    ______ ____
ROOT
ATOM      1  O   UNL     1     104.265 124.764 147.995  0.00  0.00    +0.000 OA
ATOM      2  O   UNL     1     107.093 124.951 146.237  0.00  0.00    +0.000 OA
ATOM      3  O   UNL     1     104.212 124.666 145.465  0.00  0.00    +0.000 OA
ATOM      4  O   UNL     1     107.133 125.016 147.885  0.00  0.00    +0.000 OA
ATOM      5  C   UNL     1     105.670 124.826 146.277  0.00  0.00    +0.000 A 
ATOM      6  C   UNL     1     104.968 124.779 146.710  0.00  0.00    +0.000 A 
ATOM      7  C   UNL     1     103.510 124.682 147.592  0.00  0.00    +0.000 C 
ATOM      8  C   UNL     1     103.489 124.648 146.733  0.00  0.00    +0.000 C 
ATOM      9  C   UNL     1     104.988 124.812 147.534  0.00  0.00    +0.000 A 
ATOM     10  C   UNL     1     104.223 124.698 146.289  0.00  0.00    +0.000 C 
ATOM     11  C   UNL     1     106.391 124.905 146.669  0.00  0.00    +0.000 A 
ATOM     12  C   UNL     1     105.710 124.890 147.925  0.00  0.00    +0.000 A 
ATOM     13  C   UNL     1     106.411 124.937 147.494  0.00  0.00    +0.000 A 
ENDROOT
BRANCH   7  15
ATOM     14  O   UNL     1     100.712 124.495 149.330  0.00  0.00    +0.000 OA
ATOM     15  C   UNL     1     102.810 124.636 148.027  0.00  0.00    +0.000 A 
ATOM     16  C   UNL     1     102.557 123.909 148.325  0.00  0.00    +0.000 A 
ATOM     17  C   UNL     1     102.364 125.316 148.163  0.00  0.00    +0.000 A 
ATOM     18  C   UNL     1     101.858 123.862 148.759  0.00  0.00    +0.000 A 
ATOM     19  C   UNL     1     101.664 125.268 148.598  0.00  0.00    +0.000 A 
ATOM     20  C   UNL     1     101.411 124.543 148.896  0.00  0.00    +0.000 A 
ENDBRANCH   7  15
BRANCH   5  21
ATOM     21  O   UNL     1     105.649 124.794 145.453  0.00  0.00    +0.000 OA
BRANCH  21  30
ATOM     22  O   UNL     1     105.714 126.215 145.318  0.00  0.00    +0.000 OA
ATOM     23  O   UNL     1     106.691 125.957 143.059  0.00  0.00    +0.000 OA
ATOM     24  O   UNL     1     106.429 127.463 143.678  0.00  0.00    +0.000 OA
ATOM     25  O   UNL     1     106.301 124.622 143.947  0.00  0.00    +0.000 OA
ATOM     26  C   UNL     1     106.365 126.043 143.812  0.00  0.00    +0.000 C 
ATOM     27  C   UNL     1     106.234 126.796 144.122  0.00  0.00    +0.000 C 
ATOM     28  C   UNL     1     106.170 125.375 144.256  0.00  0.00    +0.000 C 
ATOM     29  C   UNL     1     105.909 126.882 144.875  0.00  0.00    +0.000 C 
ATOM     30  C   UNL     1     105.844 125.461 145.010  0.00  0.00    +0.000 C 
BRANCH  29  32
ATOM     31  O   UNL     1     105.011 127.881 145.365  0.00  0.00    +0.000 OA
ATOM     32  C   UNL     1     105.778 127.635 145.184  0.00  0.00    +0.000 C 
ENDBRANCH  29  32
ENDBRANCH  21  30
ENDBRANCH   5  21
TORSDOF 4
ENDMDL
