MODEL 1
REMARK VINA RESULT:     -10.6      0.000      0.000
REMARK  Name = 44258973
REMARK  9 active torsions:
REMARK  status: ('A' for Active; 'I' for Inactive)
REMARK    1  A    between atoms: O_1  and  C_20
REMARK    2  A    between atoms: O_1  and  C_25
REMARK    3  A    between atoms: O_3  and  C_21
REMARK    4  A    between atoms: O_3  and  C_37
REMARK    5  A    between atoms: O_6  and  C_24
REMARK    6  A    between atoms: O_6  and  C_36
REMARK    7  A    between atoms: O_11  and  C_35
REMARK    8  A    between atoms: O_11  and  C_42
REMARK    9  A    between atoms: C_39  and  C_48
REMARK                            x       y       z     vdW  Elec       q    Type
REMARK                         _______ _______ _______ _____ _____    ______ ____
ROOT
ATOM      1  O   UNL     1     111.962 130.148 135.711  0.00  0.00    +0.000 OA
ATOM      2  O   UNL     1     111.399 127.777 136.140  0.00  0.00    +0.000 OA
ATOM      3  O   UNL     1     109.993 128.049 135.964  0.00  0.00    +0.000 OA
ATOM      4  C   UNL     1     112.374 128.814 136.016  0.00  0.00    +0.000 A 
ATOM      5  C   UNL     1     112.561 129.604 135.873  0.00  0.00    +0.000 A 
ATOM      6  C   UNL     1     111.586 128.567 135.997  0.00  0.00    +0.000 A 
ATOM      7  C   UNL     1     110.987 129.111 135.836  0.00  0.00    +0.000 A 
ATOM      8  C   UNL     1     109.738 130.226 135.503  0.00  0.00    +0.000 A 
ATOM      9  C   UNL     1     111.176 129.901 135.693  0.00  0.00    +0.000 A 
ATOM     10  C   UNL     1     110.560 130.478 135.523  0.00  0.00    +0.000 A 
ATOM     11  C   UNL     1     110.172 128.842 135.819  0.00  0.00    +0.000 A 
ATOM     12  C   UNL     1     109.543 129.403 135.652  0.00  0.00    +0.000 A 
ENDROOT
BRANCH   5  14
ATOM     13  O   UNL     1     115.709 130.591 135.947  0.00  0.00    +0.000 OA
ATOM     14  C   UNL     1     113.349 129.851 135.891  0.00  0.00    +0.000 A 
ATOM     15  C   UNL     1     113.621 130.312 136.519  0.00  0.00    +0.000 A 
ATOM     16  C   UNL     1     113.863 129.638 135.282  0.00  0.00    +0.000 A 
ATOM     17  C   UNL     1     114.409 130.559 136.538  0.00  0.00    +0.000 A 
ATOM     18  C   UNL     1     114.649 129.884 135.301  0.00  0.00    +0.000 A 
ATOM     19  C   UNL     1     114.923 130.345 135.928  0.00  0.00    +0.000 A 
ENDBRANCH   5  14
BRANCH   4  20
ATOM     20  O   UNL     1     112.973 128.270 136.177  0.00  0.00    +0.000 OA
BRANCH  20  27
ATOM     21  O   UNL     1     112.668 128.206 137.572  0.00  0.00    +0.000 OA
ATOM     22  O   UNL     1     113.577 126.736 136.239  0.00  0.00    +0.000 OA
ATOM     23  C   UNL     1     113.272 126.672 137.633  0.00  0.00    +0.000 C 
ATOM     24  C   UNL     1     112.969 127.024 138.316  0.00  0.00    +0.000 C 
ATOM     25  C   UNL     1     113.273 127.088 136.921  0.00  0.00    +0.000 C 
ATOM     26  C   UNL     1     112.667 127.791 138.285  0.00  0.00    +0.000 C 
ATOM     27  C   UNL     1     112.971 127.855 136.890  0.00  0.00    +0.000 C 
ATOM     28  C   UNL     1     112.364 128.142 138.967  0.00  0.00    +0.000 C 
BRANCH  23  29
ATOM     29  O   UNL     1     113.574 125.905 137.664  0.00  0.00    +0.000 OA
BRANCH  29  34
ATOM     30  O   UNL     1     112.292 125.371 137.327  0.00  0.00    +0.000 OA
ATOM     31  O   UNL     1     114.254 124.420 137.428  0.00  0.00    +0.000 OA
ATOM     32  O   UNL     1     113.312 123.144 136.974  0.00  0.00    +0.000 OA
ATOM     33  O   UNL     1     111.690 123.353 136.755  0.00  0.00    +0.000 OA
ATOM     34  C   UNL     1     113.102 125.267 137.437  0.00  0.00    +0.000 C 
ATOM     35  C   UNL     1     113.443 124.525 137.319  0.00  0.00    +0.000 C 
ATOM     36  C   UNL     1     112.972 123.886 137.092  0.00  0.00    +0.000 C 
ATOM     37  C   UNL     1     112.161 123.991 136.982  0.00  0.00    +0.000 C 
ATOM     38  C   UNL     1     111.821 124.734 137.100  0.00  0.00    +0.000 C 
ENDBRANCH  29  34
ENDBRANCH  23  29
BRANCH  24  39
ATOM     39  O   UNL     1     112.968 126.608 139.028  0.00  0.00    +0.000 OA
BRANCH  39  41
ATOM     40  O   UNL     1     114.213 127.057 139.567  0.00  0.00    +0.000 OA
ATOM     41  C   UNL     1     113.412 126.883 139.666  0.00  0.00    +0.000 C 
ATOM     42  C   UNL     1     113.056 126.985 140.404  0.00  0.00    +0.000 C 
ENDBRANCH  39  41
ENDBRANCH  24  39
ENDBRANCH  20  27
ENDBRANCH   4  20
BRANCH   8  43
ATOM     43  O   UNL     1     109.141 130.772 135.341  0.00  0.00    +0.000 OA
BRANCH  43  52
ATOM     44  O   UNL     1     109.124 131.325 136.658  0.00  0.00    +0.000 OA
ATOM     45  O   UNL     1     106.707 131.805 136.425  0.00  0.00    +0.000 OA
ATOM     46  O   UNL     1     107.496 132.198 137.820  0.00  0.00    +0.000 OA
ATOM     47  O   UNL     1     107.530 131.092 135.186  0.00  0.00    +0.000 OA
ATOM     48  C   UNL     1     107.514 131.645 136.503  0.00  0.00    +0.000 C 
ATOM     49  C   UNL     1     107.908 131.842 137.200  0.00  0.00    +0.000 C 
ATOM     50  C   UNL     1     107.924 131.289 135.883  0.00  0.00    +0.000 C 
ATOM     51  C   UNL     1     108.713 131.682 137.278  0.00  0.00    +0.000 C 
ATOM     52  C   UNL     1     108.730 131.129 135.961  0.00  0.00    +0.000 C 
ATOM     53  C   UNL     1     109.107 131.879 137.976  0.00  0.00    +0.000 C 
ENDBRANCH  43  52
ENDBRANCH   8  43
TORSDOF 9
ENDMDL
MODEL 2
REMARK VINA RESULT:     -10.3      2.878      6.142
REMARK  Name = 44258973
REMARK  9 active torsions:
REMARK  status: ('A' for Active; 'I' for Inactive)
REMARK    1  A    between atoms: O_1  and  C_20
REMARK    2  A    between atoms: O_1  and  C_25
REMARK    3  A    between atoms: O_3  and  C_21
REMARK    4  A    between atoms: O_3  and  C_37
REMARK    5  A    between atoms: O_6  and  C_24
REMARK    6  A    between atoms: O_6  and  C_36
REMARK    7  A    between atoms: O_11  and  C_35
REMARK    8  A    between atoms: O_11  and  C_42
REMARK    9  A    between atoms: C_39  and  C_48
REMARK                            x       y       z     vdW  Elec       q    Type
REMARK                         _______ _______ _______ _____ _____    ______ ____
ROOT
ATOM      1  O   UNL     1     110.410 129.856 136.615  0.00  0.00    +0.000 OA
ATOM      2  O   UNL     1     109.089 129.083 138.560  0.00  0.00    +0.000 OA
ATOM      3  O   UNL     1     109.270 127.705 138.171  0.00  0.00    +0.000 OA
ATOM      4  C   UNL     1     109.652 130.148 137.791  0.00  0.00    +0.000 A 
ATOM      5  C   UNL     1     110.092 130.405 137.142  0.00  0.00    +0.000 A 
ATOM      6  C   UNL     1     109.529 129.340 137.911  0.00  0.00    +0.000 A 
ATOM      7  C   UNL     1     109.847 128.791 137.384  0.00  0.00    +0.000 A 
ATOM      8  C   UNL     1     110.498 127.646 136.298  0.00  0.00    +0.000 A 
ATOM      9  C   UNL     1     110.287 129.050 136.735  0.00  0.00    +0.000 A 
ATOM     10  C   UNL     1     110.622 128.487 136.178  0.00  0.00    +0.000 A 
ATOM     11  C   UNL     1     109.712 127.954 137.520  0.00  0.00    +0.000 A 
ATOM     12  C   UNL     1     110.039 127.377 136.974  0.00  0.00    +0.000 A 
ENDROOT
BRANCH   5  14
ATOM     13  O   UNL     1     110.583 133.633 136.660  0.00  0.00    +0.000 OA
ATOM     14  C   UNL     1     110.215 131.212 137.022  0.00  0.00    +0.000 A 
ATOM     15  C   UNL     1     109.600 131.685 136.742  0.00  0.00    +0.000 A 
ATOM     16  C   UNL     1     110.953 131.546 137.181  0.00  0.00    +0.000 A 
ATOM     17  C   UNL     1     109.723 132.493 136.621  0.00  0.00    +0.000 A 
ATOM     18  C   UNL     1     111.075 132.352 137.061  0.00  0.00    +0.000 A 
ATOM     19  C   UNL     1     110.460 132.826 136.781  0.00  0.00    +0.000 A 
ENDBRANCH   5  14
BRANCH   4  20
ATOM     20  O   UNL     1     109.335 130.697 138.319  0.00  0.00    +0.000 OA
BRANCH  20  27
ATOM     21  O   UNL     1     110.312 130.434 139.328  0.00  0.00    +0.000 OA
ATOM     22  O   UNL     1     108.254 131.146 139.482  0.00  0.00    +0.000 OA
ATOM     23  C   UNL     1     109.231 130.883 140.491  0.00  0.00    +0.000 C 
ATOM     24  C   UNL     1     109.991 130.640 140.705  0.00  0.00    +0.000 C 
ATOM     25  C   UNL     1     109.014 130.902 139.696  0.00  0.00    +0.000 C 
ATOM     26  C   UNL     1     110.531 130.415 140.123  0.00  0.00    +0.000 C 
ATOM     27  C   UNL     1     109.554 130.677 139.114  0.00  0.00    +0.000 C 
ATOM     28  C   UNL     1     111.289 130.172 140.337  0.00  0.00    +0.000 C 
BRANCH  23  29
ATOM     29  O   UNL     1     108.691 131.108 141.073  0.00  0.00    +0.000 OA
BRANCH  29  34
ATOM     30  O   UNL     1     108.201 129.768 141.157  0.00  0.00    +0.000 OA
ATOM     31  O   UNL     1     107.420 131.630 141.986  0.00  0.00    +0.000 OA
ATOM     32  O   UNL     1     106.294 130.552 142.526  0.00  0.00    +0.000 OA
ATOM     33  O   UNL     1     106.439 128.951 142.154  0.00  0.00    +0.000 OA
ATOM     34  C   UNL     1     108.128 130.568 141.343  0.00  0.00    +0.000 C 
ATOM     35  C   UNL     1     107.493 130.829 141.799  0.00  0.00    +0.000 C 
ATOM     36  C   UNL     1     106.929 130.291 142.070  0.00  0.00    +0.000 C 
ATOM     37  C   UNL     1     107.003 129.491 141.883  0.00  0.00    +0.000 C 
ATOM     38  C   UNL     1     107.638 129.229 141.427  0.00  0.00    +0.000 C 
ENDBRANCH  29  34
ENDBRANCH  23  29
BRANCH  24  39
ATOM     39  O   UNL     1     110.208 130.621 141.500  0.00  0.00    +0.000 OA
BRANCH  39  41
ATOM     40  O   UNL     1     110.852 131.895 141.572  0.00  0.00    +0.000 OA
ATOM     41  C   UNL     1     110.829 131.094 141.768  0.00  0.00    +0.000 C 
ATOM     42  C   UNL     1     111.426 130.765 142.233  0.00  0.00    +0.000 C 
ENDBRANCH  39  41
ENDBRANCH  24  39
ENDBRANCH  20  27
ENDBRANCH   4  20
BRANCH   8  43
ATOM     43  O   UNL     1     110.816 127.099 135.769  0.00  0.00    +0.000 OA
BRANCH  43  52
ATOM     44  O   UNL     1     112.134 126.982 136.307  0.00  0.00    +0.000 OA
ATOM     45  O   UNL     1     112.022 124.523 136.049  0.00  0.00    +0.000 OA
ATOM     46  O   UNL     1     113.377 125.226 136.674  0.00  0.00    +0.000 OA
ATOM     47  O   UNL     1     110.741 125.460 135.597  0.00  0.00    +0.000 OA
ATOM     48  C   UNL     1     112.059 125.343 136.135  0.00  0.00    +0.000 C 
ATOM     49  C   UNL     1     112.737 125.694 136.448  0.00  0.00    +0.000 C 
ATOM     50  C   UNL     1     111.419 125.811 135.909  0.00  0.00    +0.000 C 
ATOM     51  C   UNL     1     112.775 126.514 136.534  0.00  0.00    +0.000 C 
ATOM     52  C   UNL     1     111.456 126.630 135.995  0.00  0.00    +0.000 C 
ATOM     53  C   UNL     1     113.453 126.865 136.846  0.00  0.00    +0.000 C 
ENDBRANCH  43  52
ENDBRANCH   8  43
TORSDOF 9
ENDMDL
MODEL 3
REMARK VINA RESULT:     -10.2      3.078      6.157
REMARK  Name = 44258973
REMARK  9 active torsions:
REMARK  status: ('A' for Active; 'I' for Inactive)
REMARK    1  A    between atoms: O_1  and  C_20
REMARK    2  A    between atoms: O_1  and  C_25
REMARK    3  A    between atoms: O_3  and  C_21
REMARK    4  A    between atoms: O_3  and  C_37
REMARK    5  A    between atoms: O_6  and  C_24
REMARK    6  A    between atoms: O_6  and  C_36
REMARK    7  A    between atoms: O_11  and  C_35
REMARK    8  A    between atoms: O_11  and  C_42
REMARK    9  A    between atoms: C_39  and  C_48
REMARK                            x       y       z     vdW  Elec       q    Type
REMARK                         _______ _______ _______ _____ _____    ______ ____
ROOT
ATOM      1  O   UNL     1     111.390 128.852 137.556  0.00  0.00    +0.000 OA
ATOM      2  O   UNL     1     111.534 128.482 139.999  0.00  0.00    +0.000 OA
ATOM      3  O   UNL     1     111.530 127.052 139.811  0.00  0.00    +0.000 OA
ATOM      4  C   UNL     1     111.465 129.374 138.884  0.00  0.00    +0.000 A 
ATOM      5  C   UNL     1     111.417 129.497 138.070  0.00  0.00    +0.000 A 
ATOM      6  C   UNL     1     111.486 128.605 139.185  0.00  0.00    +0.000 A 
ATOM      7  C   UNL     1     111.459 127.960 138.670  0.00  0.00    +0.000 A 
ATOM      8  C   UNL     1     111.403 126.618 137.617  0.00  0.00    +0.000 A 
ATOM      9  C   UNL     1     111.411 128.085 137.856  0.00  0.00    +0.000 A 
ATOM     10  C   UNL     1     111.382 127.421 137.310  0.00  0.00    +0.000 A 
ATOM     11  C   UNL     1     111.482 127.166 138.995  0.00  0.00    +0.000 A 
ATOM     12  C   UNL     1     111.454 126.490 138.465  0.00  0.00    +0.000 A 
ENDROOT
BRANCH   5  14
ATOM     13  O   UNL     1     111.332 132.570 136.870  0.00  0.00    +0.000 OA
ATOM     14  C   UNL     1     111.396 130.266 137.770  0.00  0.00    +0.000 A 
ATOM     15  C   UNL     1     110.710 130.718 137.844  0.00  0.00    +0.000 A 
ATOM     16  C   UNL     1     112.060 130.581 137.396  0.00  0.00    +0.000 A 
ATOM     17  C   UNL     1     110.689 131.487 137.543  0.00  0.00    +0.000 A 
ATOM     18  C   UNL     1     112.039 131.349 137.097  0.00  0.00    +0.000 A 
ATOM     19  C   UNL     1     111.353 131.802 137.170  0.00  0.00    +0.000 A 
ENDBRANCH   5  14
BRANCH   4  20
ATOM     20  O   UNL     1     111.492 130.019 139.398  0.00  0.00    +0.000 OA
BRANCH  20  27
ATOM     21  O   UNL     1     112.889 129.849 139.646  0.00  0.00    +0.000 OA
ATOM     22  O   UNL     1     111.337 130.821 140.831  0.00  0.00    +0.000 OA
ATOM     23  C   UNL     1     112.734 130.651 141.079  0.00  0.00    +0.000 C 
ATOM     24  C   UNL     1     113.472 130.365 140.843  0.00  0.00    +0.000 C 
ATOM     25  C   UNL     1     112.075 130.535 140.596  0.00  0.00    +0.000 C 
ATOM     26  C   UNL     1     113.550 129.964 140.127  0.00  0.00    +0.000 C 
ATOM     27  C   UNL     1     112.152 130.134 139.880  0.00  0.00    +0.000 C 
ATOM     28  C   UNL     1     114.287 129.679 139.893  0.00  0.00    +0.000 C 
BRANCH  23  29
ATOM     29  O   UNL     1     112.656 131.053 141.795  0.00  0.00    +0.000 OA
BRANCH  29  34
ATOM     30  O   UNL     1     112.295 129.841 142.460  0.00  0.00    +0.000 OA
ATOM     31  O   UNL     1     112.144 131.922 143.101  0.00  0.00    +0.000 OA
ATOM     32  O   UNL     1     111.527 131.145 144.419  0.00  0.00    +0.000 OA
ATOM     33  O   UNL     1     111.421 129.499 144.431  0.00  0.00    +0.000 OA
ATOM     34  C   UNL     1     112.347 130.664 142.454  0.00  0.00    +0.000 C 
ATOM     35  C   UNL     1     112.091 131.098 143.107  0.00  0.00    +0.000 C 
ATOM     36  C   UNL     1     111.783 130.711 143.766  0.00  0.00    +0.000 C 
ATOM     37  C   UNL     1     111.730 129.887 143.772  0.00  0.00    +0.000 C 
ATOM     38  C   UNL     1     111.986 129.453 143.119  0.00  0.00    +0.000 C 
ENDBRANCH  29  34
ENDBRANCH  23  29
BRANCH  24  39
ATOM     39  O   UNL     1     114.131 130.481 141.326  0.00  0.00    +0.000 OA
BRANCH  39  41
ATOM     40  O   UNL     1     114.701 131.721 140.900  0.00  0.00    +0.000 OA
ATOM     41  C   UNL     1     114.776 130.912 141.044  0.00  0.00    +0.000 C 
ATOM     42  C   UNL     1     115.496 130.533 140.907  0.00  0.00    +0.000 C 
ENDBRANCH  39  41
ENDBRANCH  24  39
ENDBRANCH  20  27
ENDBRANCH   4  20
BRANCH   8  43
ATOM     43  O   UNL     1     111.376 125.976 137.100  0.00  0.00    +0.000 OA
BRANCH  43  52
ATOM     44  O   UNL     1     112.772 125.947 136.798  0.00  0.00    +0.000 OA
ATOM     45  O   UNL     1     112.704 123.474 136.720  0.00  0.00    +0.000 OA
ATOM     46  O   UNL     1     114.123 124.270 136.444  0.00  0.00    +0.000 OA
ATOM     47  O   UNL     1     111.331 124.327 137.048  0.00  0.00    +0.000 OA
ATOM     48  C   UNL     1     112.727 124.299 136.746  0.00  0.00    +0.000 C 
ATOM     49  C   UNL     1     113.436 124.697 136.608  0.00  0.00    +0.000 C 
ATOM     50  C   UNL     1     112.041 124.725 136.910  0.00  0.00    +0.000 C 
ATOM     51  C   UNL     1     113.459 125.521 136.634  0.00  0.00    +0.000 C 
ATOM     52  C   UNL     1     112.063 125.549 136.936  0.00  0.00    +0.000 C 
ATOM     53  C   UNL     1     114.169 125.919 136.496  0.00  0.00    +0.000 C 
ENDBRANCH  43  52
ENDBRANCH   8  43
TORSDOF 9
ENDMDL
MODEL 4
REMARK VINA RESULT:     -10.1      3.493      6.359
REMARK  Name = 44258973
REMARK  9 active torsions:
REMARK  status: ('A' for Active; 'I' for Inactive)
REMARK    1  A    between atoms: O_1  and  C_20
REMARK    2  A    between atoms: O_1  and  C_25
REMARK    3  A    between atoms: O_3  and  C_21
REMARK    4  A    between atoms: O_3  and  C_37
REMARK    5  A    between atoms: O_6  and  C_24
REMARK    6  A    between atoms: O_6  and  C_36
REMARK    7  A    between atoms: O_11  and  C_35
REMARK    8  A    between atoms: O_11  and  C_42
REMARK    9  A    between atoms: C_39  and  C_48
REMARK                            x       y       z     vdW  Elec       q    Type
REMARK                         _______ _______ _______ _____ _____    ______ ____
ROOT
ATOM      1  O   UNL     1     113.405 128.100 139.050  0.00  0.00    +0.000 OA
ATOM      2  O   UNL     1     112.077 127.005 140.829  0.00  0.00    +0.000 OA
ATOM      3  O   UNL     1     111.760 125.903 139.953  0.00  0.00    +0.000 OA
ATOM      4  C   UNL     1     112.891 128.092 140.384  0.00  0.00    +0.000 A 
ATOM      5  C   UNL     1     113.333 128.457 139.791  0.00  0.00    +0.000 A 
ATOM      6  C   UNL     1     112.520 127.369 140.236  0.00  0.00    +0.000 A 
ATOM      7  C   UNL     1     112.591 127.013 139.495  0.00  0.00    +0.000 A 
ATOM      8  C   UNL     1     112.732 126.265 137.967  0.00  0.00    +0.000 A 
ATOM      9  C   UNL     1     113.034 127.378 138.903  0.00  0.00    +0.000 A 
ATOM     10  C   UNL     1     113.116 127.017 138.127  0.00  0.00    +0.000 A 
ATOM     11  C   UNL     1     112.200 126.261 139.354  0.00  0.00    +0.000 A 
ATOM     12  C   UNL     1     112.271 125.885 138.585  0.00  0.00    +0.000 A 
ENDROOT
BRANCH   5  14
ATOM     13  O   UNL     1     114.818 131.344 140.382  0.00  0.00    +0.000 OA
ATOM     14  C   UNL     1     113.705 129.179 139.939  0.00  0.00    +0.000 A 
ATOM     15  C   UNL     1     114.371 129.208 140.424  0.00  0.00    +0.000 A 
ATOM     16  C   UNL     1     113.409 129.872 139.601  0.00  0.00    +0.000 A 
ATOM     17  C   UNL     1     114.742 129.930 140.572  0.00  0.00    +0.000 A 
ATOM     18  C   UNL     1     113.780 130.593 139.749  0.00  0.00    +0.000 A 
ATOM     19  C   UNL     1     114.447 130.623 140.234  0.00  0.00    +0.000 A 
ENDBRANCH   5  14
BRANCH   4  20
ATOM     20  O   UNL     1     112.819 128.449 141.124  0.00  0.00    +0.000 OA
BRANCH  20  27
ATOM     21  O   UNL     1     111.455 128.817 140.909  0.00  0.00    +0.000 OA
ATOM     22  O   UNL     1     112.560 128.437 142.754  0.00  0.00    +0.000 OA
ATOM     23  C   UNL     1     111.196 128.806 142.539  0.00  0.00    +0.000 C 
ATOM     24  C   UNL     1     110.578 128.993 142.023  0.00  0.00    +0.000 C 
ATOM     25  C   UNL     1     111.942 128.625 142.238  0.00  0.00    +0.000 C 
ATOM     26  C   UNL     1     110.708 128.999 141.209  0.00  0.00    +0.000 C 
ATOM     27  C   UNL     1     112.072 128.630 141.423  0.00  0.00    +0.000 C 
ATOM     28  C   UNL     1     110.092 129.185 140.694  0.00  0.00    +0.000 C 
BRANCH  23  29
ATOM     29  O   UNL     1     111.066 128.800 143.353  0.00  0.00    +0.000 OA
BRANCH  29  34
ATOM     30  O   UNL     1     111.425 130.179 143.466  0.00  0.00    +0.000 OA
ATOM     31  O   UNL     1     111.323 128.601 144.971  0.00  0.00    +0.000 OA
ATOM     32  O   UNL     1     111.810 129.880 145.893  0.00  0.00    +0.000 OA
ATOM     33  O   UNL     1     112.041 131.358 145.197  0.00  0.00    +0.000 OA
ATOM     34  C   UNL     1     111.310 129.440 143.814  0.00  0.00    +0.000 C 
ATOM     35  C   UNL     1     111.438 129.341 144.623  0.00  0.00    +0.000 C 
ATOM     36  C   UNL     1     111.682 129.979 145.084  0.00  0.00    +0.000 C 
ATOM     37  C   UNL     1     111.797 130.718 144.736  0.00  0.00    +0.000 C 
ATOM     38  C   UNL     1     111.668 130.818 143.927  0.00  0.00    +0.000 C 
ENDBRANCH  29  34
ENDBRANCH  23  29
BRANCH  24  39
ATOM     39  O   UNL     1     109.832 129.174 142.324  0.00  0.00    +0.000 OA
BRANCH  39  41
ATOM     40  O   UNL     1     109.251 127.868 142.313  0.00  0.00    +0.000 OA
ATOM     41  C   UNL     1     109.193 128.678 142.164  0.00  0.00    +0.000 C 
ATOM     42  C   UNL     1     108.494 128.992 141.856  0.00  0.00    +0.000 C 
ENDBRANCH  39  41
ENDBRANCH  24  39
ENDBRANCH  20  27
ENDBRANCH   4  20
BRANCH   8  43
ATOM     43  O   UNL     1     112.805 125.910 137.226  0.00  0.00    +0.000 OA
BRANCH  43  52
ATOM     44  O   UNL     1     111.774 126.607 136.525  0.00  0.00    +0.000 OA
ATOM     45  O   UNL     1     111.021 124.477 135.514  0.00  0.00    +0.000 OA
ATOM     46  O   UNL     1     110.241 125.884 135.150  0.00  0.00    +0.000 OA
ATOM     47  O   UNL     1     112.304 124.491 136.552  0.00  0.00    +0.000 OA
ATOM     48  C   UNL     1     111.272 125.188 135.851  0.00  0.00    +0.000 C 
ATOM     49  C   UNL     1     110.882 125.891 135.669  0.00  0.00    +0.000 C 
ATOM     50  C   UNL     1     111.913 125.194 136.370  0.00  0.00    +0.000 C 
ATOM     51  C   UNL     1     111.132 126.601 136.006  0.00  0.00    +0.000 C 
ATOM     52  C   UNL     1     112.164 125.903 136.707  0.00  0.00    +0.000 C 
ATOM     53  C   UNL     1     110.742 127.305 135.824  0.00  0.00    +0.000 C 
ENDBRANCH  43  52
ENDBRANCH   8  43
TORSDOF 9
ENDMDL
MODEL 5
REMARK VINA RESULT:     -10.0      2.773      6.194
REMARK  Name = 44258973
REMARK  9 active torsions:
REMARK  status: ('A' for Active; 'I' for Inactive)
REMARK    1  A    between atoms: O_1  and  C_20
REMARK    2  A    between atoms: O_1  and  C_25
REMARK    3  A    between atoms: O_3  and  C_21
REMARK    4  A    between atoms: O_3  and  C_37
REMARK    5  A    between atoms: O_6  and  C_24
REMARK    6  A    between atoms: O_6  and  C_36
REMARK    7  A    between atoms: O_11  and  C_35
REMARK    8  A    between atoms: O_11  and  C_42
REMARK    9  A    between atoms: C_39  and  C_48
REMARK                            x       y       z     vdW  Elec       q    Type
REMARK                         _______ _______ _______ _____ _____    ______ ____
ROOT
ATOM      1  O   UNL     1     113.379 128.484 137.558  0.00  0.00    +0.000 OA
ATOM      2  O   UNL     1     112.768 128.348 139.952  0.00  0.00    +0.000 OA
ATOM      3  O   UNL     1     112.832 126.907 139.915  0.00  0.00    +0.000 OA
ATOM      4  C   UNL     1     113.038 129.129 138.786  0.00  0.00    +0.000 A 
ATOM      5  C   UNL     1     113.242 129.174 137.988  0.00  0.00    +0.000 A 
ATOM      6  C   UNL     1     112.971 128.393 139.154  0.00  0.00    +0.000 A 
ATOM      7  C   UNL     1     113.109 127.703 138.723  0.00  0.00    +0.000 A 
ATOM      8  C   UNL     1     113.390 126.268 137.842  0.00  0.00    +0.000 A 
ATOM      9  C   UNL     1     113.313 127.749 137.925  0.00  0.00    +0.000 A 
ATOM     10  C   UNL     1     113.458 127.037 137.465  0.00  0.00    +0.000 A 
ATOM     11  C   UNL     1     113.036 126.943 139.117  0.00  0.00    +0.000 A 
ATOM     12  C   UNL     1     113.178 126.221 138.674  0.00  0.00    +0.000 A 
ENDROOT
BRANCH   5  14
ATOM     13  O   UNL     1     113.509 132.117 136.520  0.00  0.00    +0.000 OA
ATOM     14  C   UNL     1     113.309 129.911 137.621  0.00  0.00    +0.000 A 
ATOM     15  C   UNL     1     113.966 130.386 137.768  0.00  0.00    +0.000 A 
ATOM     16  C   UNL     1     112.718 130.170 137.107  0.00  0.00    +0.000 A 
ATOM     17  C   UNL     1     114.033 131.122 137.400  0.00  0.00    +0.000 A 
ATOM     18  C   UNL     1     112.784 130.906 136.740  0.00  0.00    +0.000 A 
ATOM     19  C   UNL     1     113.442 131.382 136.887  0.00  0.00    +0.000 A 
ENDBRANCH   5  14
BRANCH   4  20
ATOM     20  O   UNL     1     112.901 129.819 139.217  0.00  0.00    +0.000 OA
BRANCH  20  27
ATOM     21  O   UNL     1     111.487 129.611 139.218  0.00  0.00    +0.000 OA
ATOM     22  O   UNL     1     112.759 130.787 140.546  0.00  0.00    +0.000 OA
ATOM     23  C   UNL     1     111.345 130.579 140.546  0.00  0.00    +0.000 C 
ATOM     24  C   UNL     1     110.673 130.232 140.214  0.00  0.00    +0.000 C 
ATOM     25  C   UNL     1     112.087 130.441 140.213  0.00  0.00    +0.000 C 
ATOM     26  C   UNL     1     110.744 129.748 139.550  0.00  0.00    +0.000 C 
ATOM     27  C   UNL     1     112.158 129.957 139.549  0.00  0.00    +0.000 C 
ATOM     28  C   UNL     1     110.073 129.403 139.219  0.00  0.00    +0.000 C 
BRANCH  23  29
ATOM     29  O   UNL     1     111.274 131.063 141.211  0.00  0.00    +0.000 OA
BRANCH  29  34
ATOM     30  O   UNL     1     111.492 129.943 142.071  0.00  0.00    +0.000 OA
ATOM     31  O   UNL     1     111.457 132.084 142.494  0.00  0.00    +0.000 OA
ATOM     32  O   UNL     1     111.766 131.475 143.996  0.00  0.00    +0.000 OA
ATOM     33  O   UNL     1     111.892 129.844 144.214  0.00  0.00    +0.000 OA
ATOM     34  C   UNL     1     111.429 130.758 141.962  0.00  0.00    +0.000 C 
ATOM     35  C   UNL     1     111.520 131.268 142.603  0.00  0.00    +0.000 C 
ATOM     36  C   UNL     1     111.675 130.964 143.354  0.00  0.00    +0.000 C 
ATOM     37  C   UNL     1     111.738 130.149 143.463  0.00  0.00    +0.000 C 
ATOM     38  C   UNL     1     111.646 129.638 142.821  0.00  0.00    +0.000 C 
ENDBRANCH  29  34
ENDBRANCH  23  29
BRANCH  24  39
ATOM     39  O   UNL     1     109.931 130.371 140.547  0.00  0.00    +0.000 OA
BRANCH  39  41
ATOM     40  O   UNL     1     109.538 131.488 139.748  0.00  0.00    +0.000 OA
ATOM     41  C   UNL     1     109.355 130.773 140.115  0.00  0.00    +0.000 C 
ATOM     42  C   UNL     1     108.594 130.458 140.050  0.00  0.00    +0.000 C 
ENDBRANCH  39  41
ENDBRANCH  24  39
ENDBRANCH  20  27
ENDBRANCH   4  20
BRANCH   8  43
ATOM     43  O   UNL     1     113.528 125.579 137.409  0.00  0.00    +0.000 OA
BRANCH  43  52
ATOM     44  O   UNL     1     112.329 125.650 136.637  0.00  0.00    +0.000 OA
ATOM     45  O   UNL     1     112.180 123.179 136.641  0.00  0.00    +0.000 OA
ATOM     46  O   UNL     1     111.030 124.074 135.867  0.00  0.00    +0.000 OA
ATOM     47  O   UNL     1     113.429 123.933 137.412  0.00  0.00    +0.000 OA
ATOM     48  C   UNL     1     112.229 124.004 136.640  0.00  0.00    +0.000 C 
ATOM     49  C   UNL     1     111.654 124.451 136.252  0.00  0.00    +0.000 C 
ATOM     50  C   UNL     1     112.853 124.380 137.025  0.00  0.00    +0.000 C 
ATOM     51  C   UNL     1     111.703 125.274 136.251  0.00  0.00    +0.000 C 
ATOM     52  C   UNL     1     112.904 125.203 137.024  0.00  0.00    +0.000 C 
ATOM     53  C   UNL     1     111.128 125.721 135.863  0.00  0.00    +0.000 C 
ENDBRANCH  43  52
ENDBRANCH   8  43
TORSDOF 9
ENDMDL
MODEL 6
REMARK VINA RESULT:     -10.0      8.523     10.627
REMARK  Name = 44258973
REMARK  9 active torsions:
REMARK  status: ('A' for Active; 'I' for Inactive)
REMARK    1  A    between atoms: O_1  and  C_20
REMARK    2  A    between atoms: O_1  and  C_25
REMARK    3  A    between atoms: O_3  and  C_21
REMARK    4  A    between atoms: O_3  and  C_37
REMARK    5  A    between atoms: O_6  and  C_24
REMARK    6  A    between atoms: O_6  and  C_36
REMARK    7  A    between atoms: O_11  and  C_35
REMARK    8  A    between atoms: O_11  and  C_42
REMARK    9  A    between atoms: C_39  and  C_48
REMARK                            x       y       z     vdW  Elec       q    Type
REMARK                         _______ _______ _______ _____ _____    ______ ____
ROOT
ATOM      1  O   UNL     1     105.061 127.178 145.384  0.00  0.00    +0.000 OA
ATOM      2  O   UNL     1     107.076 126.012 144.546  0.00  0.00    +0.000 OA
ATOM      3  O   UNL     1     106.777 124.854 145.354  0.00  0.00    +0.000 OA
ATOM      4  C   UNL     1     106.229 127.162 144.560  0.00  0.00    +0.000 A 
ATOM      5  C   UNL     1     105.557 127.550 144.840  0.00  0.00    +0.000 A 
ATOM      6  C   UNL     1     106.405 126.400 144.826  0.00  0.00    +0.000 A 
ATOM      7  C   UNL     1     105.909 126.028 145.370  0.00  0.00    +0.000 A 
ATOM      8  C   UNL     1     104.891 125.247 146.496  0.00  0.00    +0.000 A 
ATOM      9  C   UNL     1     105.237 126.417 145.649  0.00  0.00    +0.000 A 
ATOM     10  C   UNL     1     104.712 126.040 146.216  0.00  0.00    +0.000 A 
ATOM     11  C   UNL     1     106.103 125.236 145.638  0.00  0.00    +0.000 A 
ATOM     12  C   UNL     1     105.590 124.842 146.205  0.00  0.00    +0.000 A 
ENDROOT
BRANCH   5  14
ATOM     13  O   UNL     1     104.854 130.595 143.779  0.00  0.00    +0.000 OA
ATOM     14  C   UNL     1     105.381 128.312 144.574  0.00  0.00    +0.000 A 
ATOM     15  C   UNL     1     105.790 128.959 144.880  0.00  0.00    +0.000 A 
ATOM     16  C   UNL     1     104.795 128.425 144.004  0.00  0.00    +0.000 A 
ATOM     17  C   UNL     1     105.614 129.721 144.614  0.00  0.00    +0.000 A 
ATOM     18  C   UNL     1     104.620 129.186 143.739  0.00  0.00    +0.000 A 
ATOM     19  C   UNL     1     105.029 129.834 144.044  0.00  0.00    +0.000 A 
ENDBRANCH   5  14
BRANCH   4  20
ATOM     20  O   UNL     1     106.724 127.534 144.016  0.00  0.00    +0.000 OA
BRANCH  20  27
ATOM     21  O   UNL     1     106.265 126.760 142.906  0.00  0.00    +0.000 OA
ATOM     22  O   UNL     1     108.199 127.695 143.293  0.00  0.00    +0.000 OA
ATOM     23  C   UNL     1     107.739 126.921 142.183  0.00  0.00    +0.000 C 
ATOM     24  C   UNL     1     107.140 126.494 141.809  0.00  0.00    +0.000 C 
ATOM     25  C   UNL     1     107.599 127.268 142.918  0.00  0.00    +0.000 C 
ATOM     26  C   UNL     1     106.403 126.413 142.170  0.00  0.00    +0.000 C 
ATOM     27  C   UNL     1     106.862 127.187 143.280  0.00  0.00    +0.000 C 
ATOM     28  C   UNL     1     105.805 125.986 141.796  0.00  0.00    +0.000 C 
BRANCH  23  29
ATOM     29  O   UNL     1     108.476 127.002 141.821  0.00  0.00    +0.000 OA
BRANCH  29  34
ATOM     30  O   UNL     1     108.085 128.266 141.282  0.00  0.00    +0.000 OA
ATOM     31  O   UNL     1     110.029 127.274 141.334  0.00  0.00    +0.000 OA
ATOM     32  O   UNL     1     110.414 128.674 140.551  0.00  0.00    +0.000 OA
ATOM     33  O   UNL     1     109.247 129.803 140.255  0.00  0.00    +0.000 OA
ATOM     34  C   UNL     1     108.668 127.703 141.429  0.00  0.00    +0.000 C 
ATOM     35  C   UNL     1     109.445 127.838 141.186  0.00  0.00    +0.000 C 
ATOM     36  C   UNL     1     109.638 128.538 140.794  0.00  0.00    +0.000 C 
ATOM     37  C   UNL     1     109.054 129.102 140.647  0.00  0.00    +0.000 C 
ATOM     38  C   UNL     1     108.278 128.966 140.890  0.00  0.00    +0.000 C 
ENDBRANCH  29  34
ENDBRANCH  23  29
BRANCH  24  39
ATOM     39  O   UNL     1     107.279 126.147 141.073  0.00  0.00    +0.000 OA
BRANCH  39  41
ATOM     40  O   UNL     1     107.701 124.847 141.488  0.00  0.00    +0.000 OA
ATOM     41  C   UNL     1     107.250 125.327 140.993  0.00  0.00    +0.000 C 
ATOM     42  C   UNL     1     106.768 124.987 140.415  0.00  0.00    +0.000 C 
ENDBRANCH  39  41
ENDBRANCH  24  39
ENDBRANCH  20  27
ENDBRANCH   4  20
BRANCH   8  43
ATOM     43  O   UNL     1     104.393 124.878 147.040  0.00  0.00    +0.000 OA
BRANCH  43  52
ATOM     44  O   UNL     1     103.894 123.810 146.234  0.00  0.00    +0.000 OA
ATOM     45  O   UNL     1     101.605 124.251 147.065  0.00  0.00    +0.000 OA
ATOM     46  O   UNL     1     101.869 123.035 145.981  0.00  0.00    +0.000 OA
ATOM     47  O   UNL     1     102.867 125.172 147.594  0.00  0.00    +0.000 OA
ATOM     48  C   UNL     1     102.369 124.104 146.788  0.00  0.00    +0.000 C 
ATOM     49  C   UNL     1     102.500 123.496 146.246  0.00  0.00    +0.000 C 
ATOM     50  C   UNL     1     102.999 124.564 147.052  0.00  0.00    +0.000 C 
ATOM     51  C   UNL     1     103.263 123.348 145.968  0.00  0.00    +0.000 C 
ATOM     52  C   UNL     1     103.762 124.417 146.776  0.00  0.00    +0.000 C 
ATOM     53  C   UNL     1     103.395 122.740 145.426  0.00  0.00    +0.000 C 
ENDBRANCH  43  52
ENDBRANCH   8  43
TORSDOF 9
ENDMDL
MODEL 7
REMARK VINA RESULT:     -10.0      4.637      7.096
REMARK  Name = 44258973
REMARK  9 active torsions:
REMARK  status: ('A' for Active; 'I' for Inactive)
REMARK    1  A    between atoms: O_1  and  C_20
REMARK    2  A    between atoms: O_1  and  C_25
REMARK    3  A    between atoms: O_3  and  C_21
REMARK    4  A    between atoms: O_3  and  C_37
REMARK    5  A    between atoms: O_6  and  C_24
REMARK    6  A    between atoms: O_6  and  C_36
REMARK    7  A    between atoms: O_11  and  C_35
REMARK    8  A    between atoms: O_11  and  C_42
REMARK    9  A    between atoms: C_39  and  C_48
REMARK                            x       y       z     vdW  Elec       q    Type
REMARK                         _______ _______ _______ _____ _____    ______ ____
ROOT
ATOM      1  O   UNL     1     111.790 129.413 143.010  0.00  0.00    +0.000 OA
ATOM      2  O   UNL     1     112.435 131.211 141.438  0.00  0.00    +0.000 OA
ATOM      3  O   UNL     1     112.373 132.194 142.492  0.00  0.00    +0.000 OA
ATOM      4  C   UNL     1     112.146 129.835 141.693  0.00  0.00    +0.000 A 
ATOM      5  C   UNL     1     111.931 129.236 142.217  0.00  0.00    +0.000 A 
ATOM      6  C   UNL     1     112.220 130.612 141.962  0.00  0.00    +0.000 A 
ATOM      7  C   UNL     1     112.078 130.789 142.756  0.00  0.00    +0.000 A 
ATOM      8  C   UNL     1     111.788 131.167 144.395  0.00  0.00    +0.000 A 
ATOM      9  C   UNL     1     111.863 130.188 143.279  0.00  0.00    +0.000 A 
ATOM     10  C   UNL     1     111.713 130.360 144.109  0.00  0.00    +0.000 A 
ATOM     11  C   UNL     1     112.158 131.601 143.024  0.00  0.00    +0.000 A 
ATOM     12  C   UNL     1     112.012 131.791 143.849  0.00  0.00    +0.000 A 
ENDROOT
BRANCH   5  14
ATOM     13  O   UNL     1     111.639 126.131 141.139  0.00  0.00    +0.000 OA
ATOM     14  C   UNL     1     111.858 128.459 141.947  0.00  0.00    +0.000 A 
ATOM     15  C   UNL     1     112.531 128.031 141.736  0.00  0.00    +0.000 A 
ATOM     16  C   UNL     1     111.112 128.111 141.890  0.00  0.00    +0.000 A 
ATOM     17  C   UNL     1     112.457 127.254 141.467  0.00  0.00    +0.000 A 
ATOM     18  C   UNL     1     111.039 127.335 141.620  0.00  0.00    +0.000 A 
ATOM     19  C   UNL     1     111.712 126.906 141.409  0.00  0.00    +0.000 A 
ENDBRANCH   5  14
BRANCH   4  20
ATOM     20  O   UNL     1     112.288 129.659 140.899  0.00  0.00    +0.000 OA
BRANCH  20  27
ATOM     21  O   UNL     1     111.035 130.158 140.426  0.00  0.00    +0.000 OA
ATOM     22  O   UNL     1     113.005 130.118 139.486  0.00  0.00    +0.000 OA
ATOM     23  C   UNL     1     111.752 130.617 139.013  0.00  0.00    +0.000 C 
ATOM     24  C   UNL     1     110.946 130.752 139.130  0.00  0.00    +0.000 C 
ATOM     25  C   UNL     1     112.199 130.253 139.603  0.00  0.00    +0.000 C 
ATOM     26  C   UNL     1     110.588 130.522 139.837  0.00  0.00    +0.000 C 
ATOM     27  C   UNL     1     111.840 130.023 140.310  0.00  0.00    +0.000 C 
ATOM     28  C   UNL     1     109.783 130.657 139.954  0.00  0.00    +0.000 C 
BRANCH  23  29
ATOM     29  O   UNL     1     112.110 130.847 138.306  0.00  0.00    +0.000 OA
BRANCH  29  34
ATOM     30  O   UNL     1     111.911 129.538 137.768  0.00  0.00    +0.000 OA
ATOM     31  O   UNL     1     113.047 131.238 137.006  0.00  0.00    +0.000 OA
ATOM     32  O   UNL     1     113.316 130.126 135.817  0.00  0.00    +0.000 OA
ATOM     33  O   UNL     1     112.648 128.621 135.930  0.00  0.00    +0.000 OA
ATOM     34  C   UNL     1     112.245 130.290 137.712  0.00  0.00    +0.000 C 
ATOM     35  C   UNL     1     112.713 130.485 137.062  0.00  0.00    +0.000 C 
ATOM     36  C   UNL     1     112.848 129.930 136.468  0.00  0.00    +0.000 C 
ATOM     37  C   UNL     1     112.514 129.178 136.524  0.00  0.00    +0.000 C 
ATOM     38  C   UNL     1     112.045 128.982 137.175  0.00  0.00    +0.000 C 
ENDBRANCH  29  34
ENDBRANCH  23  29
BRANCH  24  39
ATOM     39  O   UNL     1     110.499 131.116 138.540  0.00  0.00    +0.000 OA
BRANCH  39  41
ATOM     40  O   UNL     1     110.554 132.445 139.063  0.00  0.00    +0.000 OA
ATOM     41  C   UNL     1     110.135 131.841 138.688  0.00  0.00    +0.000 C 
ATOM     42  C   UNL     1     109.351 131.962 138.461  0.00  0.00    +0.000 C 
ENDBRANCH  39  41
ENDBRANCH  24  39
ENDBRANCH  20  27
ENDBRANCH   4  20
BRANCH   8  43
ATOM     43  O   UNL     1     111.645 131.340 145.189  0.00  0.00    +0.000 OA
BRANCH  43  52
ATOM     44  O   UNL     1     110.236 131.562 145.120  0.00  0.00    +0.000 OA
ATOM     45  O   UNL     1     110.473 133.529 146.604  0.00  0.00    +0.000 OA
ATOM     46  O   UNL     1     108.984 133.095 146.041  0.00  0.00    +0.000 OA
ATOM     47  O   UNL     1     111.803 132.651 146.177  0.00  0.00    +0.000 OA
ATOM     48  C   UNL     1     110.394 132.873 146.109  0.00  0.00    +0.000 C 
ATOM     49  C   UNL     1     109.649 132.656 145.828  0.00  0.00    +0.000 C 
ATOM     50  C   UNL     1     111.059 132.435 145.896  0.00  0.00    +0.000 C 
ATOM     51  C   UNL     1     109.570 132.000 145.333  0.00  0.00    +0.000 C 
ATOM     52  C   UNL     1     110.980 131.779 145.402  0.00  0.00    +0.000 C 
ATOM     53  C   UNL     1     108.825 131.783 145.052  0.00  0.00    +0.000 C 
ENDBRANCH  43  52
ENDBRANCH   8  43
TORSDOF 9
ENDMDL
MODEL 8
REMARK VINA RESULT:     -10.0      7.987     10.578
REMARK  Name = 44258973
REMARK  9 active torsions:
REMARK  status: ('A' for Active; 'I' for Inactive)
REMARK    1  A    between atoms: O_1  and  C_20
REMARK    2  A    between atoms: O_1  and  C_25
REMARK    3  A    between atoms: O_3  and  C_21
REMARK    4  A    between atoms: O_3  and  C_37
REMARK    5  A    between atoms: O_6  and  C_24
REMARK    6  A    between atoms: O_6  and  C_36
REMARK    7  A    between atoms: O_11  and  C_35
REMARK    8  A    between atoms: O_11  and  C_42
REMARK    9  A    between atoms: C_39  and  C_48
REMARK                            x       y       z     vdW  Elec       q    Type
REMARK                         _______ _______ _______ _____ _____    ______ ____
ROOT
ATOM      1  O   UNL     1     105.798 124.888 143.093  0.00  0.00    +0.000 OA
ATOM      2  O   UNL     1     106.843 127.008 143.824  0.00  0.00    +0.000 OA
ATOM      3  O   UNL     1     106.661 126.653 145.211  0.00  0.00    +0.000 OA
ATOM      4  C   UNL     1     106.417 126.136 142.776  0.00  0.00    +0.000 A 
ATOM      5  C   UNL     1     106.068 125.429 142.532  0.00  0.00    +0.000 A 
ATOM      6  C   UNL     1     106.495 126.301 143.581  0.00  0.00    +0.000 A 
ATOM      7  C   UNL     1     106.224 125.760 144.141  0.00  0.00    +0.000 A 
ATOM      8  C   UNL     1     105.668 124.647 145.310  0.00  0.00    +0.000 A 
ATOM      9  C   UNL     1     105.876 125.053 143.896  0.00  0.00    +0.000 A 
ATOM     10  C   UNL     1     105.590 124.480 144.471  0.00  0.00    +0.000 A 
ATOM     11  C   UNL     1     106.311 125.943 144.976  0.00  0.00    +0.000 A 
ATOM     12  C   UNL     1     106.031 125.383 145.564  0.00  0.00    +0.000 A 
ENDROOT
BRANCH   5  14
ATOM     13  O   UNL     1     105.758 124.769 139.314  0.00  0.00    +0.000 OA
ATOM     14  C   UNL     1     105.990 125.264 141.727  0.00  0.00    +0.000 A 
ATOM     15  C   UNL     1     106.649 125.028 141.289  0.00  0.00    +0.000 A 
ATOM     16  C   UNL     1     105.255 125.335 141.360  0.00  0.00    +0.000 A 
ATOM     17  C   UNL     1     106.571 124.863 140.484  0.00  0.00    +0.000 A 
ATOM     18  C   UNL     1     105.177 125.170 140.556  0.00  0.00    +0.000 A 
ATOM     19  C   UNL     1     105.835 124.934 140.118  0.00  0.00    +0.000 A 
ENDBRANCH   5  14
BRANCH   4  20
ATOM     20  O   UNL     1     106.687 126.678 142.215  0.00  0.00    +0.000 OA
BRANCH  20  27
ATOM     21  O   UNL     1     105.606 127.564 142.512  0.00  0.00    +0.000 OA
ATOM     22  O   UNL     1     107.462 127.892 141.411  0.00  0.00    +0.000 OA
ATOM     23  C   UNL     1     106.381 128.779 141.708  0.00  0.00    +0.000 C 
ATOM     24  C   UNL     1     105.647 128.918 142.057  0.00  0.00    +0.000 C 
ATOM     25  C   UNL     1     106.728 128.032 141.761  0.00  0.00    +0.000 C 
ATOM     26  C   UNL     1     105.259 128.311 142.459  0.00  0.00    +0.000 C 
ATOM     27  C   UNL     1     106.340 127.425 142.163  0.00  0.00    +0.000 C 
ATOM     28  C   UNL     1     104.525 128.451 142.809  0.00  0.00    +0.000 C 
BRANCH  23  29
ATOM     29  O   UNL     1     106.769 129.386 141.305  0.00  0.00    +0.000 OA
BRANCH  29  34
ATOM     30  O   UNL     1     107.479 129.741 142.494  0.00  0.00    +0.000 OA
ATOM     31  O   UNL     1     107.752 130.375 140.423  0.00  0.00    +0.000 OA
ATOM     32  O   UNL     1     108.953 131.224 141.170  0.00  0.00    +0.000 OA
ATOM     33  O   UNL     1     109.172 131.084 142.800  0.00  0.00    +0.000 OA
ATOM     34  C   UNL     1     107.370 129.810 141.680  0.00  0.00    +0.000 C 
ATOM     35  C   UNL     1     107.861 130.305 141.239  0.00  0.00    +0.000 C 
ATOM     36  C   UNL     1     108.462 130.730 141.611  0.00  0.00    +0.000 C 
ATOM     37  C   UNL     1     108.570 130.659 142.426  0.00  0.00    +0.000 C 
ATOM     38  C   UNL     1     108.079 130.165 142.867  0.00  0.00    +0.000 C 
ENDBRANCH  29  34
ENDBRANCH  23  29
BRANCH  24  39
ATOM     39  O   UNL     1     105.301 129.665 142.004  0.00  0.00    +0.000 OA
BRANCH  39  41
ATOM     40  O   UNL     1     104.408 129.419 140.916  0.00  0.00    +0.000 OA
ATOM     41  C   UNL     1     104.557 129.750 141.656  0.00  0.00    +0.000 C 
ATOM     42  C   UNL     1     103.963 130.167 142.050  0.00  0.00    +0.000 C 
ENDBRANCH  39  41
ENDBRANCH  24  39
ENDBRANCH  20  27
ENDBRANCH   4  20
BRANCH   8  43
ATOM     43  O   UNL     1     105.397 124.103 145.868  0.00  0.00    +0.000 OA
BRANCH  43  52
ATOM     44  O   UNL     1     104.363 124.831 146.533  0.00  0.00    +0.000 OA
ATOM     45  O   UNL     1     102.814 122.928 146.205  0.00  0.00    +0.000 OA
ATOM     46  O   UNL     1     102.295 124.290 146.979  0.00  0.00    +0.000 OA
ATOM     47  O   UNL     1     104.365 122.835 145.650  0.00  0.00    +0.000 OA
ATOM     48  C   UNL     1     103.330 123.563 146.314  0.00  0.00    +0.000 C 
ATOM     49  C   UNL     1     103.071 124.243 146.701  0.00  0.00    +0.000 C 
ATOM     50  C   UNL     1     104.105 123.516 146.037  0.00  0.00    +0.000 C 
ATOM     51  C   UNL     1     103.587 124.878 146.811  0.00  0.00    +0.000 C 
ATOM     52  C   UNL     1     104.621 124.150 146.146  0.00  0.00    +0.000 C 
ATOM     53  C   UNL     1     103.327 125.559 147.198  0.00  0.00    +0.000 C 
ENDBRANCH  43  52
ENDBRANCH   8  43
TORSDOF 9
ENDMDL
MODEL 9
REMARK VINA RESULT:     -10.0      2.771      4.497
REMARK  Name = 44258973
REMARK  9 active torsions:
REMARK  status: ('A' for Active; 'I' for Inactive)
REMARK    1  A    between atoms: O_1  and  C_20
REMARK    2  A    between atoms: O_1  and  C_25
REMARK    3  A    between atoms: O_3  and  C_21
REMARK    4  A    between atoms: O_3  and  C_37
REMARK    5  A    between atoms: O_6  and  C_24
REMARK    6  A    between atoms: O_6  and  C_36
REMARK    7  A    between atoms: O_11  and  C_35
REMARK    8  A    between atoms: O_11  and  C_42
REMARK    9  A    between atoms: C_39  and  C_48
REMARK                            x       y       z     vdW  Elec       q    Type
REMARK                         _______ _______ _______ _____ _____    ______ ____
ROOT
ATOM      1  O   UNL     1     113.379 130.256 139.296  0.00  0.00    +0.000 OA
ATOM      2  O   UNL     1     112.610 127.907 139.163  0.00  0.00    +0.000 OA
ATOM      3  O   UNL     1     112.416 127.860 140.592  0.00  0.00    +0.000 OA
ATOM      4  C   UNL     1     113.086 129.092 138.520  0.00  0.00    +0.000 A 
ATOM      5  C   UNL     1     113.343 129.874 138.565  0.00  0.00    +0.000 A 
ATOM      6  C   UNL     1     112.866 128.690 139.208  0.00  0.00    +0.000 A 
ATOM      7  C   UNL     1     112.903 129.071 139.938  0.00  0.00    +0.000 A 
ATOM      8  C   UNL     1     112.974 129.850 141.456  0.00  0.00    +0.000 A 
ATOM      9  C   UNL     1     113.159 129.854 139.982  0.00  0.00    +0.000 A 
ATOM     10  C   UNL     1     113.201 130.263 140.737  0.00  0.00    +0.000 A 
ATOM     11  C   UNL     1     112.671 128.643 140.645  0.00  0.00    +0.000 A 
ATOM     12  C   UNL     1     112.707 129.034 141.409  0.00  0.00    +0.000 A 
ENDROOT
BRANCH   5  14
ATOM     13  O   UNL     1     114.221 131.480 135.819  0.00  0.00    +0.000 OA
ATOM     14  C   UNL     1     113.563 130.276 137.878  0.00  0.00    +0.000 A 
ATOM     15  C   UNL     1     113.071 130.861 137.568  0.00  0.00    +0.000 A 
ATOM     16  C   UNL     1     114.273 130.092 137.502  0.00  0.00    +0.000 A 
ATOM     17  C   UNL     1     113.291 131.263 136.881  0.00  0.00    +0.000 A 
ATOM     18  C   UNL     1     114.493 130.493 136.816  0.00  0.00    +0.000 A 
ATOM     19  C   UNL     1     114.002 131.079 136.505  0.00  0.00    +0.000 A 
ENDBRANCH   5  14
BRANCH   4  20
ATOM     20  O   UNL     1     113.050 128.710 137.790  0.00  0.00    +0.000 OA
BRANCH  20  27
ATOM     21  O   UNL     1     111.631 128.839 137.679  0.00  0.00    +0.000 OA
ATOM     22  O   UNL     1     112.997 127.339 136.874  0.00  0.00    +0.000 OA
ATOM     23  C   UNL     1     111.578 127.467 136.763  0.00  0.00    +0.000 C 
ATOM     24  C   UNL     1     110.881 127.875 136.937  0.00  0.00    +0.000 C 
ATOM     25  C   UNL     1     112.300 127.746 137.048  0.00  0.00    +0.000 C 
ATOM     26  C   UNL     1     110.908 128.561 137.396  0.00  0.00    +0.000 C 
ATOM     27  C   UNL     1     112.327 128.432 137.506  0.00  0.00    +0.000 C 
ATOM     28  C   UNL     1     110.212 128.967 137.569  0.00  0.00    +0.000 C 
BRANCH  23  29
ATOM     29  O   UNL     1     111.551 126.782 136.305  0.00  0.00    +0.000 OA
BRANCH  29  34
ATOM     30  O   UNL     1     111.479 125.987 137.491  0.00  0.00    +0.000 OA
ATOM     31  O   UNL     1     111.671 125.411 135.394  0.00  0.00    +0.000 OA
ATOM     32  O   UNL     1     111.658 123.932 136.124  0.00  0.00    +0.000 OA
ATOM     33  O   UNL     1     111.526 123.822 137.765  0.00  0.00    +0.000 OA
ATOM     34  C   UNL     1     111.545 126.042 136.671  0.00  0.00    +0.000 C 
ATOM     35  C   UNL     1     111.605 125.357 136.215  0.00  0.00    +0.000 C 
ATOM     36  C   UNL     1     111.598 124.617 136.579  0.00  0.00    +0.000 C 
ATOM     37  C   UNL     1     111.532 124.563 137.400  0.00  0.00    +0.000 C 
ATOM     38  C   UNL     1     111.472 125.248 137.855  0.00  0.00    +0.000 C 
ENDBRANCH  29  34
ENDBRANCH  23  29
BRANCH  24  39
ATOM     39  O   UNL     1     110.159 127.596 136.653  0.00  0.00    +0.000 OA
BRANCH  39  41
ATOM     40  O   UNL     1     110.105 128.393 135.468  0.00  0.00    +0.000 OA
ATOM     41  C   UNL     1     109.727 128.048 136.115  0.00  0.00    +0.000 C 
ATOM     42  C   UNL     1     108.915 128.154 136.224  0.00  0.00    +0.000 C 
ENDBRANCH  39  41
ENDBRANCH  24  39
ENDBRANCH  20  27
ENDBRANCH   4  20
BRANCH   8  43
ATOM     43  O   UNL     1     113.011 130.234 142.185  0.00  0.00    +0.000 OA
BRANCH  43  52
ATOM     44  O   UNL     1     111.625 130.285 142.526  0.00  0.00    +0.000 OA
ATOM     45  O   UNL     1     111.871 132.663 143.169  0.00  0.00    +0.000 OA
ATOM     46  O   UNL     1     110.402 131.921 143.296  0.00  0.00    +0.000 OA
ATOM     47  O   UNL     1     113.175 131.819 142.613  0.00  0.00    +0.000 OA
ATOM     48  C   UNL     1     111.789 131.869 142.954  0.00  0.00    +0.000 C 
ATOM     49  C   UNL     1     111.054 131.499 143.018  0.00  0.00    +0.000 C 
ATOM     50  C   UNL     1     112.440 131.448 142.677  0.00  0.00    +0.000 C 
ATOM     51  C   UNL     1     110.972 130.706 142.804  0.00  0.00    +0.000 C 
ATOM     52  C   UNL     1     112.359 130.656 142.463  0.00  0.00    +0.000 C 
ATOM     53  C   UNL     1     110.238 130.336 142.867  0.00  0.00    +0.000 C 
ENDBRANCH  43  52
ENDBRANCH   8  43
TORSDOF 9
ENDMDL
MODEL 10
REMARK VINA RESULT:      -9.9      3.757      6.200
REMARK  Name = 44258973
REMARK  9 active torsions:
REMARK  status: ('A' for Active; 'I' for Inactive)
REMARK    1  A    between atoms: O_1  and  C_20
REMARK    2  A    between atoms: O_1  and  C_25
REMARK    3  A    between atoms: O_3  and  C_21
REMARK    4  A    between atoms: O_3  and  C_37
REMARK    5  A    between atoms: O_6  and  C_24
REMARK    6  A    between atoms: O_6  and  C_36
REMARK    7  A    between atoms: O_11  and  C_35
REMARK    8  A    between atoms: O_11  and  C_42
REMARK    9  A    between atoms: C_39  and  C_48
REMARK                            x       y       z     vdW  Elec       q    Type
REMARK                         _______ _______ _______ _____ _____    ______ ____
ROOT
ATOM      1  O   UNL     1     110.226 125.555 139.490  0.00  0.00    +0.000 OA
ATOM      2  O   UNL     1     110.011 128.007 139.745  0.00  0.00    +0.000 OA
ATOM      3  O   UNL     1     108.949 127.843 140.707  0.00  0.00    +0.000 OA
ATOM      4  C   UNL     1     110.644 126.877 139.142  0.00  0.00    +0.000 A 
ATOM      5  C   UNL     1     110.715 126.059 139.058  0.00  0.00    +0.000 A 
ATOM      6  C   UNL     1     110.083 127.190 139.661  0.00  0.00    +0.000 A 
ATOM      7  C   UNL     1     109.593 126.686 140.093  0.00  0.00    +0.000 A 
ATOM      8  C   UNL     1     108.576 125.652 140.993  0.00  0.00    +0.000 A 
ATOM      9  C   UNL     1     109.666 125.868 140.007  0.00  0.00    +0.000 A 
ATOM     10  C   UNL     1     109.162 125.332 140.453  0.00  0.00    +0.000 A 
ATOM     11  C   UNL     1     109.014 127.023 140.629  0.00  0.00    +0.000 A 
ATOM     12  C   UNL     1     108.501 126.504 141.082  0.00  0.00    +0.000 A 
ENDROOT
BRANCH   5  14
ATOM     13  O   UNL     1     112.959 124.807 136.987  0.00  0.00    +0.000 OA
ATOM     14  C   UNL     1     111.277 125.746 138.539  0.00  0.00    +0.000 A 
ATOM     15  C   UNL     1     112.080 125.812 138.714  0.00  0.00    +0.000 A 
ATOM     16  C   UNL     1     111.034 125.367 137.848  0.00  0.00    +0.000 A 
ATOM     17  C   UNL     1     112.641 125.499 138.196  0.00  0.00    +0.000 A 
ATOM     18  C   UNL     1     111.595 125.055 137.331  0.00  0.00    +0.000 A 
ATOM     19  C   UNL     1     112.399 125.120 137.504  0.00  0.00    +0.000 A 
ENDBRANCH   5  14
BRANCH   4  20
ATOM     20  O   UNL     1     111.133 127.381 138.710  0.00  0.00    +0.000 OA
BRANCH  20  27
ATOM     21  O   UNL     1     110.153 127.740 137.734  0.00  0.00    +0.000 OA
ATOM     22  O   UNL     1     111.771 128.900 138.628  0.00  0.00    +0.000 OA
ATOM     23  C   UNL     1     110.791 129.259 137.652  0.00  0.00    +0.000 C 
ATOM     24  C   UNL     1     110.141 129.059 137.185  0.00  0.00    +0.000 C 
ATOM     25  C   UNL     1     111.121 128.700 138.160  0.00  0.00    +0.000 C 
ATOM     26  C   UNL     1     109.822 128.299 137.226  0.00  0.00    +0.000 C 
ATOM     27  C   UNL     1     110.802 127.940 138.201  0.00  0.00    +0.000 C 
ATOM     28  C   UNL     1     109.172 128.099 136.759  0.00  0.00    +0.000 C 
BRANCH  23  29
ATOM     29  O   UNL     1     111.110 130.019 137.611  0.00  0.00    +0.000 OA
BRANCH  29  34
ATOM     30  O   UNL     1     112.072 129.585 136.648  0.00  0.00    +0.000 OA
ATOM     31  O   UNL     1     111.949 131.425 137.816  0.00  0.00    +0.000 OA
ATOM     32  O   UNL     1     113.331 131.694 136.955  0.00  0.00    +0.000 OA
ATOM     33  O   UNL     1     113.873 130.557 135.889  0.00  0.00    +0.000 OA
ATOM     34  C   UNL     1     111.801 130.153 137.180  0.00  0.00    +0.000 C 
ATOM     35  C   UNL     1     112.220 130.856 137.282  0.00  0.00    +0.000 C 
ATOM     36  C   UNL     1     112.911 130.991 136.852  0.00  0.00    +0.000 C 
ATOM     37  C   UNL     1     113.182 130.422 136.320  0.00  0.00    +0.000 C 
ATOM     38  C   UNL     1     112.762 129.719 136.217  0.00  0.00    +0.000 C 
ENDBRANCH  29  34
ENDBRANCH  23  29
BRANCH  24  39
ATOM     39  O   UNL     1     109.811 129.618 136.676  0.00  0.00    +0.000 OA
BRANCH  39  41
ATOM     40  O   UNL     1     108.747 130.045 137.530  0.00  0.00    +0.000 OA
ATOM     41  C   UNL     1     109.027 129.854 136.778  0.00  0.00    +0.000 C 
ATOM     42  C   UNL     1     108.522 129.898 136.126  0.00  0.00    +0.000 C 
ENDBRANCH  39  41
ENDBRANCH  24  39
ENDBRANCH  20  27
ENDBRANCH   4  20
BRANCH   8  43
ATOM     43  O   UNL     1     108.088 125.146 141.424  0.00  0.00    +0.000 OA
BRANCH  43  52
ATOM     44  O   UNL     1     107.064 124.952 140.447  0.00  0.00    +0.000 OA
ATOM     45  O   UNL     1     105.342 125.134 142.217  0.00  0.00    +0.000 OA
ATOM     46  O   UNL     1     104.892 124.879 140.650  0.00  0.00    +0.000 OA
ATOM     47  O   UNL     1     106.940 125.267 142.603  0.00  0.00    +0.000 OA
ATOM     48  C   UNL     1     105.916 125.073 141.626  0.00  0.00    +0.000 C 
ATOM     49  C   UNL     1     105.691 124.946 140.843  0.00  0.00    +0.000 C 
ATOM     50  C   UNL     1     106.715 125.140 141.820  0.00  0.00    +0.000 C 
ATOM     51  C   UNL     1     106.264 124.885 140.253  0.00  0.00    +0.000 C 
ATOM     52  C   UNL     1     107.289 125.079 141.231  0.00  0.00    +0.000 C 
ATOM     53  C   UNL     1     106.039 124.758 139.470  0.00  0.00    +0.000 C 
ENDBRANCH  43  52
ENDBRANCH   8  43
TORSDOF 9
ENDMDL
