MODEL 1
REMARK VINA RESULT:     -11.3      0.000      0.000
REMARK  Name = 44257960
REMARK  5 active torsions:
REMARK  status: ('A' for Active; 'I' for Inactive)
REMARK    1  A    between atoms: O_1  and  C_17
REMARK    2  A    between atoms: O_1  and  C_22
REMARK    3  A    between atoms: C_19  and  C_27
REMARK    4  A    between atoms: C_21  and  C_28
REMARK    5  A    between atoms: C_36  and  C_38
REMARK                            x       y       z     vdW  Elec       q    Type
REMARK                         _______ _______ _______ _____ _____    ______ ____
ROOT
ATOM      1  O   UNL     1     111.827 126.199 136.568  0.00  0.00    +0.000 OA
ATOM      2  O   UNL     1     114.520 126.016 137.661  0.00  0.00    +0.000 OA
ATOM      3  O   UNL     1     113.184 123.648 136.593  0.00  0.00    +0.000 OA
ATOM      4  O   UNL     1     111.850 123.776 136.060  0.00  0.00    +0.000 OA
ATOM      5  O   UNL     1     110.521 124.683 135.695  0.00  0.00    +0.000 OA
ATOM      6  C   UNL     1     113.169 126.125 137.117  0.00  0.00    +0.000 A 
ATOM      7  C   UNL     1     112.491 125.745 136.750  0.00  0.00    +0.000 A 
ATOM      8  C   UNL     1     113.865 125.659 137.309  0.00  0.00    +0.000 A 
ATOM      9  C   UNL     1     112.499 124.938 136.581  0.00  0.00    +0.000 A 
ATOM     10  C   UNL     1     113.873 124.818 137.133  0.00  0.00    +0.000 A 
ATOM     11  C   UNL     1     113.185 124.455 136.766  0.00  0.00    +0.000 A 
ATOM     12  C   UNL     1     111.842 124.584 136.229  0.00  0.00    +0.000 A 
ATOM     13  C   UNL     1     111.170 125.845 136.216  0.00  0.00    +0.000 A 
ATOM     14  C   UNL     1     111.177 125.038 136.046  0.00  0.00    +0.000 A 
ENDROOT
BRANCH   6  20
ATOM     15  O   UNL     1     113.455 127.474 136.737  0.00  0.00    +0.000 OA
ATOM     16  O   UNL     1     112.498 128.278 138.872  0.00  0.00    +0.000 OA
ATOM     17  O   UNL     1     113.102 129.357 137.780  0.00  0.00    +0.000 OA
ATOM     18  C   UNL     1     112.834 127.202 137.994  0.00  0.00    +0.000 C 
ATOM     19  C   UNL     1     112.817 128.011 138.160  0.00  0.00    +0.000 C 
ATOM     20  C   UNL     1     113.153 126.934 137.283  0.00  0.00    +0.000 C 
ATOM     21  C   UNL     1     113.119 128.550 137.614  0.00  0.00    +0.000 C 
ATOM     22  C   UNL     1     113.438 128.281 136.902  0.00  0.00    +0.000 C 
BRANCH  22  24
ATOM     23  O   UNL     1     113.859 128.592 135.572  0.00  0.00    +0.000 OA
ATOM     24  C   UNL     1     113.740 128.821 136.356  0.00  0.00    +0.000 C 
ENDBRANCH  22  24
BRANCH  18  25
ATOM     25  O   UNL     1     112.531 126.662 138.541  0.00  0.00    +0.000 OA
BRANCH  25  30
ATOM     26  O   UNL     1     113.482 126.982 139.558  0.00  0.00    +0.000 OA
ATOM     27  O   UNL     1     111.417 126.291 139.699  0.00  0.00    +0.000 OA
ATOM     28  O   UNL     1     111.810 126.425 141.296  0.00  0.00    +0.000 OA
ATOM     29  O   UNL     1     113.319 126.931 141.734  0.00  0.00    +0.000 OA
ATOM     30  C   UNL     1     112.729 126.730 139.339  0.00  0.00    +0.000 C 
ATOM     31  C   UNL     1     112.172 126.544 139.918  0.00  0.00    +0.000 C 
ATOM     32  C   UNL     1     112.368 126.611 140.717  0.00  0.00    +0.000 C 
ATOM     33  C   UNL     1     113.122 126.864 140.935  0.00  0.00    +0.000 C 
ATOM     34  C   UNL     1     113.679 127.049 140.356  0.00  0.00    +0.000 C 
ATOM     35  C   UNL     1     114.433 127.302 140.575  0.00  0.00    +0.000 C 
ENDBRANCH  25  30
ENDBRANCH  18  25
ENDBRANCH   6  20
BRANCH  13  38
ATOM     36  O   UNL     1     108.640 126.943 136.966  0.00  0.00    +0.000 OA
ATOM     37  O   UNL     1     108.513 127.660 135.484  0.00  0.00    +0.000 OA
ATOM     38  C   UNL     1     110.505 126.298 136.033  0.00  0.00    +0.000 A 
ATOM     39  C   UNL     1     109.905 126.394 136.591  0.00  0.00    +0.000 A 
ATOM     40  C   UNL     1     110.442 126.657 135.293  0.00  0.00    +0.000 A 
ATOM     41  C   UNL     1     109.241 126.848 136.407  0.00  0.00    +0.000 A 
ATOM     42  C   UNL     1     109.778 127.110 135.111  0.00  0.00    +0.000 A 
ATOM     43  C   UNL     1     109.177 127.206 135.668  0.00  0.00    +0.000 A 
ENDBRANCH  13  38
TORSDOF 5
ENDMDL
MODEL 2
REMARK VINA RESULT:     -10.9      1.909      3.963
REMARK  Name = 44257960
REMARK  5 active torsions:
REMARK  status: ('A' for Active; 'I' for Inactive)
REMARK    1  A    between atoms: O_1  and  C_17
REMARK    2  A    between atoms: O_1  and  C_22
REMARK    3  A    between atoms: C_19  and  C_27
REMARK    4  A    between atoms: C_21  and  C_28
REMARK    5  A    between atoms: C_36  and  C_38
REMARK                            x       y       z     vdW  Elec       q    Type
REMARK                         _______ _______ _______ _____ _____    ______ ____
ROOT
ATOM      1  O   UNL     1     112.520 127.205 136.139  0.00  0.00    +0.000 OA
ATOM      2  O   UNL     1     111.354 129.570 134.902  0.00  0.00    +0.000 OA
ATOM      3  O   UNL     1     109.931 127.020 134.868  0.00  0.00    +0.000 OA
ATOM      4  O   UNL     1     110.539 125.869 135.490  0.00  0.00    +0.000 OA
ATOM      5  O   UNL     1     111.779 125.159 136.315  0.00  0.00    +0.000 OA
ATOM      6  C   UNL     1     111.954 128.394 135.527  0.00  0.00    +0.000 A 
ATOM      7  C   UNL     1     111.900 127.560 135.726  0.00  0.00    +0.000 A 
ATOM      8  C   UNL     1     111.311 128.770 135.098  0.00  0.00    +0.000 A 
ATOM      9  C   UNL     1     111.240 127.115 135.510  0.00  0.00    +0.000 A 
ATOM     10  C   UNL     1     110.624 128.306 134.873  0.00  0.00    +0.000 A 
ATOM     11  C   UNL     1     110.588 127.473 135.080  0.00  0.00    +0.000 A 
ATOM     12  C   UNL     1     111.200 126.314 135.707  0.00  0.00    +0.000 A 
ATOM     13  C   UNL     1     112.480 126.404 136.335  0.00  0.00    +0.000 A 
ATOM     14  C   UNL     1     111.820 125.959 136.119  0.00  0.00    +0.000 A 
ENDROOT
BRANCH   6  20
ATOM     15  O   UNL     1     113.250 128.915 135.223  0.00  0.00    +0.000 OA
ATOM     16  O   UNL     1     113.346 129.978 137.456  0.00  0.00    +0.000 OA
ATOM     17  O   UNL     1     114.610 130.143 136.408  0.00  0.00    +0.000 OA
ATOM     18  C   UNL     1     112.650 129.186 136.491  0.00  0.00    +0.000 C 
ATOM     19  C   UNL     1     113.314 129.624 136.712  0.00  0.00    +0.000 C 
ATOM     20  C   UNL     1     112.618 128.832 135.747  0.00  0.00    +0.000 C 
ATOM     21  C   UNL     1     113.946 129.706 136.188  0.00  0.00    +0.000 C 
ATOM     22  C   UNL     1     113.914 129.351 135.444  0.00  0.00    +0.000 C 
BRANCH  22  24
ATOM     23  O   UNL     1     114.917 128.764 134.612  0.00  0.00    +0.000 OA
ATOM     24  C   UNL     1     114.545 129.434 134.920  0.00  0.00    +0.000 C 
ENDBRANCH  22  24
BRANCH  18  25
ATOM     25  O   UNL     1     112.018 129.103 137.015  0.00  0.00    +0.000 OA
BRANCH  25  30
ATOM     26  O   UNL     1     111.671 130.490 137.035  0.00  0.00    +0.000 OA
ATOM     27  O   UNL     1     111.554 128.965 138.593  0.00  0.00    +0.000 OA
ATOM     28  O   UNL     1     110.975 130.282 139.401  0.00  0.00    +0.000 OA
ATOM     29  O   UNL     1     110.860 131.737 138.632  0.00  0.00    +0.000 OA
ATOM     30  C   UNL     1     111.729 129.762 137.419  0.00  0.00    +0.000 C 
ATOM     31  C   UNL     1     111.496 129.693 138.208  0.00  0.00    +0.000 C 
ATOM     32  C   UNL     1     111.207 130.351 138.612  0.00  0.00    +0.000 C 
ATOM     33  C   UNL     1     111.150 131.078 138.227  0.00  0.00    +0.000 C 
ATOM     34  C   UNL     1     111.382 131.148 137.439  0.00  0.00    +0.000 C 
ATOM     35  C   UNL     1     111.325 131.876 137.055  0.00  0.00    +0.000 C 
ENDBRANCH  25  30
ENDBRANCH  18  25
ENDBRANCH   6  20
BRANCH  13  38
ATOM     36  O   UNL     1     115.005 125.065 136.339  0.00  0.00    +0.000 OA
ATOM     37  O   UNL     1     114.960 124.986 137.987  0.00  0.00    +0.000 OA
ATOM     38  C   UNL     1     113.100 126.050 136.748  0.00  0.00    +0.000 A 
ATOM     39  C   UNL     1     113.742 125.735 136.337  0.00  0.00    +0.000 A 
ATOM     40  C   UNL     1     113.077 126.010 137.571  0.00  0.00    +0.000 A 
ATOM     41  C   UNL     1     114.362 125.380 136.750  0.00  0.00    +0.000 A 
ATOM     42  C   UNL     1     113.697 125.655 137.984  0.00  0.00    +0.000 A 
ATOM     43  C   UNL     1     114.340 125.340 137.574  0.00  0.00    +0.000 A 
ENDBRANCH  13  38
TORSDOF 5
ENDMDL
MODEL 3
REMARK VINA RESULT:     -10.9      1.920      4.006
REMARK  Name = 44257960
REMARK  5 active torsions:
REMARK  status: ('A' for Active; 'I' for Inactive)
REMARK    1  A    between atoms: O_1  and  C_17
REMARK    2  A    between atoms: O_1  and  C_22
REMARK    3  A    between atoms: C_19  and  C_27
REMARK    4  A    between atoms: C_21  and  C_28
REMARK    5  A    between atoms: C_36  and  C_38
REMARK                            x       y       z     vdW  Elec       q    Type
REMARK                         _______ _______ _______ _____ _____    ______ ____
ROOT
ATOM      1  O   UNL     1     112.021 126.883 136.204  0.00  0.00    +0.000 OA
ATOM      2  O   UNL     1     110.372 128.679 134.612  0.00  0.00    +0.000 OA
ATOM      3  O   UNL     1     109.838 125.808 134.644  0.00  0.00    +0.000 OA
ATOM      4  O   UNL     1     110.676 124.948 135.444  0.00  0.00    +0.000 OA
ATOM      5  O   UNL     1     111.938 124.719 136.481  0.00  0.00    +0.000 OA
ATOM      6  C   UNL     1     111.208 127.793 135.416  0.00  0.00    +0.000 A 
ATOM      7  C   UNL     1     111.389 126.997 135.685  0.00  0.00    +0.000 A 
ATOM      8  C   UNL     1     110.552 127.919 134.876  0.00  0.00    +0.000 A 
ATOM      9  C   UNL     1     110.941 126.352 135.432  0.00  0.00    +0.000 A 
ATOM     10  C   UNL     1     110.086 127.247 134.612  0.00  0.00    +0.000 A 
ATOM     11  C   UNL     1     110.281 126.459 134.892  0.00  0.00    +0.000 A 
ATOM     12  C   UNL     1     111.124 125.592 135.698  0.00  0.00    +0.000 A 
ATOM     13  C   UNL     1     112.204 126.123 136.469  0.00  0.00    +0.000 A 
ATOM     14  C   UNL     1     111.756 125.478 136.216  0.00  0.00    +0.000 A 
ENDROOT
BRANCH   6  20
ATOM     15  O   UNL     1     112.315 128.680 135.234  0.00  0.00    +0.000 OA
ATOM     16  O   UNL     1     111.719 129.852 137.331  0.00  0.00    +0.000 OA
ATOM     17  O   UNL     1     113.023 130.348 136.450  0.00  0.00    +0.000 OA
ATOM     18  C   UNL     1     111.464 128.822 136.373  0.00  0.00    +0.000 C 
ATOM     19  C   UNL     1     111.918 129.462 136.632  0.00  0.00    +0.000 C 
ATOM     20  C   UNL     1     111.663 128.432 135.674  0.00  0.00    +0.000 C 
ATOM     21  C   UNL     1     112.570 129.710 136.192  0.00  0.00    +0.000 C 
ATOM     22  C   UNL     1     112.768 129.318 135.493  0.00  0.00    +0.000 C 
BRANCH  22  24
ATOM     23  O   UNL     1     114.015 129.028 134.858  0.00  0.00    +0.000 OA
ATOM     24  C   UNL     1     113.420 129.566 135.052  0.00  0.00    +0.000 C 
ENDBRANCH  22  24
BRANCH  18  25
ATOM     25  O   UNL     1     110.811 128.575 136.813  0.00  0.00    +0.000 OA
BRANCH  25  30
ATOM     26  O   UNL     1     110.067 129.778 136.612  0.00  0.00    +0.000 OA
ATOM     27  O   UNL     1     110.099 128.380 138.289  0.00  0.00    +0.000 OA
ATOM     28  O   UNL     1     108.998 129.486 138.826  0.00  0.00    +0.000 OA
ATOM     29  O   UNL     1     108.609 130.786 137.887  0.00  0.00    +0.000 OA
ATOM     30  C   UNL     1     110.261 129.128 137.081  0.00  0.00    +0.000 C 
ATOM     31  C   UNL     1     109.904 129.031 137.819  0.00  0.00    +0.000 C 
ATOM     32  C   UNL     1     109.354 129.583 138.088  0.00  0.00    +0.000 C 
ATOM     33  C   UNL     1     109.160 130.233 137.618  0.00  0.00    +0.000 C 
ATOM     34  C   UNL     1     109.516 130.330 136.880  0.00  0.00    +0.000 C 
ATOM     35  C   UNL     1     109.322 130.980 136.411  0.00  0.00    +0.000 C 
ENDBRANCH  25  30
ENDBRANCH  18  25
ENDBRANCH   6  20
BRANCH  13  38
ATOM     36  O   UNL     1     113.253 126.112 139.128  0.00  0.00    +0.000 OA
ATOM     37  O   UNL     1     114.731 125.665 138.542  0.00  0.00    +0.000 OA
ATOM     38  C   UNL     1     112.835 126.009 136.988  0.00  0.00    +0.000 A 
ATOM     39  C   UNL     1     112.729 126.117 137.798  0.00  0.00    +0.000 A 
ATOM     40  C   UNL     1     113.573 125.785 136.695  0.00  0.00    +0.000 A 
ATOM     41  C   UNL     1     113.361 126.003 138.316  0.00  0.00    +0.000 A 
ATOM     42  C   UNL     1     114.205 125.671 137.213  0.00  0.00    +0.000 A 
ATOM     43  C   UNL     1     114.099 125.780 138.024  0.00  0.00    +0.000 A 
ENDBRANCH  13  38
TORSDOF 5
ENDMDL
MODEL 4
REMARK VINA RESULT:     -10.7      1.392      3.384
REMARK  Name = 44257960
REMARK  5 active torsions:
REMARK  status: ('A' for Active; 'I' for Inactive)
REMARK    1  A    between atoms: O_1  and  C_17
REMARK    2  A    between atoms: O_1  and  C_22
REMARK    3  A    between atoms: C_19  and  C_27
REMARK    4  A    between atoms: C_21  and  C_28
REMARK    5  A    between atoms: C_36  and  C_38
REMARK                            x       y       z     vdW  Elec       q    Type
REMARK                         _______ _______ _______ _____ _____    ______ ____
ROOT
ATOM      1  O   UNL     1     112.445 127.368 136.010  0.00  0.00    +0.000 OA
ATOM      2  O   UNL     1     111.456 124.663 136.444  0.00  0.00    +0.000 OA
ATOM      3  O   UNL     1     109.948 126.552 134.806  0.00  0.00    +0.000 OA
ATOM      4  O   UNL     1     110.467 127.884 134.613  0.00  0.00    +0.000 OA
ATOM      5  O   UNL     1     111.619 129.037 134.871  0.00  0.00    +0.000 OA
ATOM      6  C   UNL     1     111.967 126.015 136.237  0.00  0.00    +0.000 A 
ATOM      7  C   UNL     1     111.869 126.791 135.881  0.00  0.00    +0.000 A 
ATOM      8  C   UNL     1     111.371 125.410 136.106  0.00  0.00    +0.000 A 
ATOM      9  C   UNL     1     111.210 126.963 135.415  0.00  0.00    +0.000 A 
ATOM     10  C   UNL     1     110.684 125.590 135.621  0.00  0.00    +0.000 A 
ATOM     11  C   UNL     1     110.603 126.371 135.273  0.00  0.00    +0.000 A 
ATOM     12  C   UNL     1     111.127 127.712 135.078  0.00  0.00    +0.000 A 
ATOM     13  C   UNL     1     112.362 128.117 135.673  0.00  0.00    +0.000 A 
ATOM     14  C   UNL     1     111.703 128.289 135.208  0.00  0.00    +0.000 A 
ENDROOT
BRANCH   6  20
ATOM     15  O   UNL     1     113.367 125.752 136.346  0.00  0.00    +0.000 OA
ATOM     16  O   UNL     1     113.139 125.563 138.804  0.00  0.00    +0.000 OA
ATOM     17  O   UNL     1     114.615 125.363 138.094  0.00  0.00    +0.000 OA
ATOM     18  C   UNL     1     112.553 125.789 137.520  0.00  0.00    +0.000 C 
ATOM     19  C   UNL     1     113.216 125.626 137.985  0.00  0.00    +0.000 C 
ATOM     20  C   UNL     1     112.629 125.852 136.701  0.00  0.00    +0.000 C 
ATOM     21  C   UNL     1     113.954 125.526 137.630  0.00  0.00    +0.000 C 
ATOM     22  C   UNL     1     114.029 125.589 136.811  0.00  0.00    +0.000 C 
BRANCH  22  24
ATOM     23  O   UNL     1     114.846 124.992 135.801  0.00  0.00    +0.000 OA
ATOM     24  C   UNL     1     114.767 125.489 136.456  0.00  0.00    +0.000 C 
ENDBRANCH  22  24
BRANCH  18  25
ATOM     25  O   UNL     1     111.815 125.889 137.875  0.00  0.00    +0.000 OA
BRANCH  25  30
ATOM     26  O   UNL     1     112.171 127.032 138.656  0.00  0.00    +0.000 OA
ATOM     27  O   UNL     1     110.834 125.362 139.093  0.00  0.00    +0.000 OA
ATOM     28  O   UNL     1     110.700 126.241 140.483  0.00  0.00    +0.000 OA
ATOM     29  O   UNL     1     111.546 127.647 140.655  0.00  0.00    +0.000 OA
ATOM     30  C   UNL     1     111.748 126.329 138.570  0.00  0.00    +0.000 C 
ATOM     31  C   UNL     1     111.258 126.066 139.179  0.00  0.00    +0.000 C 
ATOM     32  C   UNL     1     111.190 126.505 139.874  0.00  0.00    +0.000 C 
ATOM     33  C   UNL     1     111.614 127.207 139.960  0.00  0.00    +0.000 C 
ATOM     34  C   UNL     1     112.104 127.471 139.351  0.00  0.00    +0.000 C 
ATOM     35  C   UNL     1     112.527 128.174 139.437  0.00  0.00    +0.000 C 
ENDBRANCH  25  30
ENDBRANCH  18  25
ENDBRANCH   6  20
BRANCH  13  38
ATOM     36  O   UNL     1     114.904 129.260 135.044  0.00  0.00    +0.000 OA
ATOM     37  O   UNL     1     114.665 130.423 136.191  0.00  0.00    +0.000 OA
ATOM     38  C   UNL     1     112.938 128.693 135.802  0.00  0.00    +0.000 A 
ATOM     39  C   UNL     1     113.633 128.688 135.358  0.00  0.00    +0.000 A 
ATOM     40  C   UNL     1     112.817 129.273 136.376  0.00  0.00    +0.000 A 
ATOM     41  C   UNL     1     114.208 129.265 135.488  0.00  0.00    +0.000 A 
ATOM     42  C   UNL     1     113.393 129.850 136.505  0.00  0.00    +0.000 A 
ATOM     43  C   UNL     1     114.089 129.846 136.061  0.00  0.00    +0.000 A 
ENDBRANCH  13  38
TORSDOF 5
ENDMDL
MODEL 5
REMARK VINA RESULT:     -10.5      9.491     11.944
REMARK  Name = 44257960
REMARK  5 active torsions:
REMARK  status: ('A' for Active; 'I' for Inactive)
REMARK    1  A    between atoms: O_1  and  C_17
REMARK    2  A    between atoms: O_1  and  C_22
REMARK    3  A    between atoms: C_19  and  C_27
REMARK    4  A    between atoms: C_21  and  C_28
REMARK    5  A    between atoms: C_36  and  C_38
REMARK                            x       y       z     vdW  Elec       q    Type
REMARK                         _______ _______ _______ _____ _____    ______ ____
ROOT
ATOM      1  O   UNL     1     105.086 125.035 147.362  0.00  0.00    +0.000 OA
ATOM      2  O   UNL     1     107.822 125.728 146.645  0.00  0.00    +0.000 OA
ATOM      3  O   UNL     1     107.204 124.659 149.291  0.00  0.00    +0.000 OA
ATOM      4  O   UNL     1     105.837 124.326 149.612  0.00  0.00    +0.000 OA
ATOM      5  O   UNL     1     104.241 124.225 149.205  0.00  0.00    +0.000 OA
ATOM      6  C   UNL     1     106.445 125.386 146.988  0.00  0.00    +0.000 A 
ATOM      7  C   UNL     1     105.884 125.085 147.566  0.00  0.00    +0.000 A 
ATOM      8  C   UNL     1     107.277 125.441 147.193  0.00  0.00    +0.000 A 
ATOM      9  C   UNL     1     106.134 124.849 148.315  0.00  0.00    +0.000 A 
ATOM     10  C   UNL     1     107.538 125.195 147.974  0.00  0.00    +0.000 A 
ATOM     11  C   UNL     1     106.962 124.897 148.539  0.00  0.00    +0.000 A 
ATOM     12  C   UNL     1     105.586 124.562 148.862  0.00  0.00    +0.000 A 
ATOM     13  C   UNL     1     104.538 124.748 147.908  0.00  0.00    +0.000 A 
ATOM     14  C   UNL     1     104.788 124.512 148.658  0.00  0.00    +0.000 A 
ENDROOT
BRANCH   6  20
ATOM     15  O   UNL     1     106.206 125.087 145.610  0.00  0.00    +0.000 OA
ATOM     16  O   UNL     1     105.366 127.388 145.257  0.00  0.00    +0.000 OA
ATOM     17  O   UNL     1     105.407 126.322 143.998  0.00  0.00    +0.000 OA
ATOM     18  C   UNL     1     105.905 126.387 146.122  0.00  0.00    +0.000 C 
ATOM     19  C   UNL     1     105.646 126.621 145.374  0.00  0.00    +0.000 C 
ATOM     20  C   UNL     1     106.185 125.620 146.240  0.00  0.00    +0.000 C 
ATOM     21  C   UNL     1     105.666 126.088 144.745  0.00  0.00    +0.000 C 
ATOM     22  C   UNL     1     105.947 125.321 144.864  0.00  0.00    +0.000 C 
BRANCH  22  24
ATOM     23  O   UNL     1     106.041 123.979 144.381  0.00  0.00    +0.000 OA
ATOM     24  C   UNL     1     105.967 124.788 144.234  0.00  0.00    +0.000 C 
ENDBRANCH  22  24
BRANCH  18  25
ATOM     25  O   UNL     1     105.884 126.920 146.752  0.00  0.00    +0.000 OA
BRANCH  25  30
ATOM     26  O   UNL     1     106.836 127.840 146.213  0.00  0.00    +0.000 OA
ATOM     27  O   UNL     1     105.037 128.177 147.403  0.00  0.00    +0.000 OA
ATOM     28  O   UNL     1     105.565 129.726 147.190  0.00  0.00    +0.000 OA
ATOM     29  O   UNL     1     106.940 130.017 146.326  0.00  0.00    +0.000 OA
ATOM     30  C   UNL     1     106.149 127.694 146.645  0.00  0.00    +0.000 C 
ATOM     31  C   UNL     1     105.725 128.323 146.971  0.00  0.00    +0.000 C 
ATOM     32  C   UNL     1     105.989 129.097 146.865  0.00  0.00    +0.000 C 
ATOM     33  C   UNL     1     106.676 129.242 146.432  0.00  0.00    +0.000 C 
ATOM     34  C   UNL     1     107.100 128.614 146.107  0.00  0.00    +0.000 C 
ATOM     35  C   UNL     1     107.787 128.760 145.674  0.00  0.00    +0.000 C 
ENDBRANCH  25  30
ENDBRANCH  18  25
ENDBRANCH   6  20
BRANCH  13  38
ATOM     36  O   UNL     1     102.397 123.370 146.610  0.00  0.00    +0.000 OA
ATOM     37  O   UNL     1     101.346 124.548 147.093  0.00  0.00    +0.000 OA
ATOM     38  C   UNL     1     103.740 124.697 147.704  0.00  0.00    +0.000 A 
ATOM     39  C   UNL     1     103.468 124.059 147.259  0.00  0.00    +0.000 A 
ATOM     40  C   UNL     1     103.216 125.286 147.947  0.00  0.00    +0.000 A 
ATOM     41  C   UNL     1     102.670 124.009 147.055  0.00  0.00    +0.000 A 
ATOM     42  C   UNL     1     102.418 125.236 147.743  0.00  0.00    +0.000 A 
ATOM     43  C   UNL     1     102.144 124.597 147.297  0.00  0.00    +0.000 A 
ENDBRANCH  13  38
TORSDOF 5
ENDMDL
MODEL 6
REMARK VINA RESULT:     -10.4      1.608      4.485
REMARK  Name = 44257960
REMARK  5 active torsions:
REMARK  status: ('A' for Active; 'I' for Inactive)
REMARK    1  A    between atoms: O_1  and  C_17
REMARK    2  A    between atoms: O_1  and  C_22
REMARK    3  A    between atoms: C_19  and  C_27
REMARK    4  A    between atoms: C_21  and  C_28
REMARK    5  A    between atoms: C_36  and  C_38
REMARK                            x       y       z     vdW  Elec       q    Type
REMARK                         _______ _______ _______ _____ _____    ______ ____
ROOT
ATOM      1  O   UNL     1     112.322 127.287 137.806  0.00  0.00    +0.000 OA
ATOM      2  O   UNL     1     111.800 130.150 137.929  0.00  0.00    +0.000 OA
ATOM      3  O   UNL     1     111.612 128.499 140.331  0.00  0.00    +0.000 OA
ATOM      4  O   UNL     1     111.878 127.085 140.233  0.00  0.00    +0.000 OA
ATOM      5  O   UNL     1     112.284 125.748 139.354  0.00  0.00    +0.000 OA
ATOM      6  C   UNL     1     112.065 128.716 137.849  0.00  0.00    +0.000 A 
ATOM      7  C   UNL     1     112.119 127.955 138.246  0.00  0.00    +0.000 A 
ATOM      8  C   UNL     1     111.854 129.415 138.301  0.00  0.00    +0.000 A 
ATOM      9  C   UNL     1     111.971 127.888 139.054  0.00  0.00    +0.000 A 
ATOM     10  C   UNL     1     111.700 129.345 139.143  0.00  0.00    +0.000 A 
ATOM     11  C   UNL     1     111.759 128.576 139.522  0.00  0.00    +0.000 A 
ATOM     12  C   UNL     1     112.026 127.152 139.424  0.00  0.00    +0.000 A 
ATOM     13  C   UNL     1     112.377 126.551 138.175  0.00  0.00    +0.000 A 
ATOM     14  C   UNL     1     112.229 126.484 138.984  0.00  0.00    +0.000 A 
ENDROOT
BRANCH   6  20
ATOM     15  O   UNL     1     112.974 128.956 136.772  0.00  0.00    +0.000 OA
ATOM     16  O   UNL     1     111.145 128.584 135.146  0.00  0.00    +0.000 OA
ATOM     17  O   UNL     1     112.663 128.947 134.612  0.00  0.00    +0.000 OA
ATOM     18  C   UNL     1     111.605 128.650 136.498  0.00  0.00    +0.000 C 
ATOM     19  C   UNL     1     111.755 128.708 135.688  0.00  0.00    +0.000 C 
ATOM     20  C   UNL     1     112.215 128.774 137.039  0.00  0.00    +0.000 C 
ATOM     21  C   UNL     1     112.514 128.890 135.421  0.00  0.00    +0.000 C 
ATOM     22  C   UNL     1     113.123 129.013 135.963  0.00  0.00    +0.000 C 
BRANCH  22  24
ATOM     23  O   UNL     1     114.376 129.675 136.152  0.00  0.00    +0.000 OA
ATOM     24  C   UNL     1     113.882 129.195 135.696  0.00  0.00    +0.000 C 
ENDBRANCH  22  24
BRANCH  18  25
ATOM     25  O   UNL     1     110.846 128.468 136.765  0.00  0.00    +0.000 OA
BRANCH  25  30
ATOM     26  O   UNL     1     110.234 129.664 136.278  0.00  0.00    +0.000 OA
ATOM     27  O   UNL     1     109.455 127.633 136.463  0.00  0.00    +0.000 OA
ATOM     28  O   UNL     1     108.148 128.411 135.825  0.00  0.00    +0.000 OA
ATOM     29  O   UNL     1     108.231 130.025 135.489  0.00  0.00    +0.000 OA
ATOM     30  C   UNL     1     110.192 128.858 136.446  0.00  0.00    +0.000 C 
ATOM     31  C   UNL     1     109.497 128.440 136.295  0.00  0.00    +0.000 C 
ATOM     32  C   UNL     1     108.843 128.829 135.976  0.00  0.00    +0.000 C 
ATOM     33  C   UNL     1     108.885 129.635 135.808  0.00  0.00    +0.000 C 
ATOM     34  C   UNL     1     109.581 130.053 135.959  0.00  0.00    +0.000 C 
ATOM     35  C   UNL     1     109.621 130.860 135.791  0.00  0.00    +0.000 C 
ENDBRANCH  25  30
ENDBRANCH  18  25
ENDBRANCH   6  20
BRANCH  13  38
ATOM     36  O   UNL     1     111.604 124.297 136.598  0.00  0.00    +0.000 OA
ATOM     37  O   UNL     1     113.191 123.880 136.417  0.00  0.00    +0.000 OA
ATOM     38  C   UNL     1     112.580 125.883 137.736  0.00  0.00    +0.000 A 
ATOM     39  C   UNL     1     111.991 125.424 137.387  0.00  0.00    +0.000 A 
ATOM     40  C   UNL     1     113.373 125.676 137.646  0.00  0.00    +0.000 A 
ATOM     41  C   UNL     1     112.195 124.756 136.947  0.00  0.00    +0.000 A 
ATOM     42  C   UNL     1     113.576 125.008 137.206  0.00  0.00    +0.000 A 
ATOM     43  C   UNL     1     112.987 124.548 136.856  0.00  0.00    +0.000 A 
ENDBRANCH  13  38
TORSDOF 5
ENDMDL
MODEL 7
REMARK VINA RESULT:     -10.4      1.358      2.813
REMARK  Name = 44257960
REMARK  5 active torsions:
REMARK  status: ('A' for Active; 'I' for Inactive)
REMARK    1  A    between atoms: O_1  and  C_17
REMARK    2  A    between atoms: O_1  and  C_22
REMARK    3  A    between atoms: C_19  and  C_27
REMARK    4  A    between atoms: C_21  and  C_28
REMARK    5  A    between atoms: C_36  and  C_38
REMARK                            x       y       z     vdW  Elec       q    Type
REMARK                         _______ _______ _______ _____ _____    ______ ____
ROOT
ATOM      1  O   UNL     1     111.608 127.816 136.204  0.00  0.00    +0.000 OA
ATOM      2  O   UNL     1     114.081 126.573 137.109  0.00  0.00    +0.000 OA
ATOM      3  O   UNL     1     114.139 128.775 135.192  0.00  0.00    +0.000 OA
ATOM      4  O   UNL     1     112.894 129.367 134.765  0.00  0.00    +0.000 OA
ATOM      5  O   UNL     1     111.247 129.454 134.806  0.00  0.00    +0.000 OA
ATOM      6  C   UNL     1     112.832 127.185 136.666  0.00  0.00    +0.000 A 
ATOM      7  C   UNL     1     112.432 127.773 136.183  0.00  0.00    +0.000 A 
ATOM      8  C   UNL     1     113.689 127.134 136.649  0.00  0.00    +0.000 A 
ATOM      9  C   UNL     1     112.860 128.289 135.704  0.00  0.00    +0.000 A 
ATOM     10  C   UNL     1     114.135 127.672 136.150  0.00  0.00    +0.000 A 
ATOM     11  C   UNL     1     113.718 128.254 135.674  0.00  0.00    +0.000 A 
ATOM     12  C   UNL     1     112.465 128.850 135.245  0.00  0.00    +0.000 A 
ATOM     13  C   UNL     1     111.213 128.377 135.745  0.00  0.00    +0.000 A 
ATOM     14  C   UNL     1     111.641 128.893 135.266  0.00  0.00    +0.000 A 
ENDROOT
BRANCH   6  20
ATOM     15  O   UNL     1     112.186 125.924 136.863  0.00  0.00    +0.000 OA
ATOM     16  O   UNL     1     111.500 126.630 139.133  0.00  0.00    +0.000 OA
ATOM     17  O   UNL     1     111.084 125.135 138.573  0.00  0.00    +0.000 OA
ATOM     18  C   UNL     1     112.166 126.907 137.900  0.00  0.00    +0.000 C 
ATOM     19  C   UNL     1     111.729 126.394 138.377  0.00  0.00    +0.000 C 
ATOM     20  C   UNL     1     112.394 126.672 137.143  0.00  0.00    +0.000 C 
ATOM     21  C   UNL     1     111.521 125.647 138.096  0.00  0.00    +0.000 C 
ATOM     22  C   UNL     1     111.750 125.412 137.339  0.00  0.00    +0.000 C 
BRANCH  22  24
ATOM     23  O   UNL     1     111.319 124.567 136.269  0.00  0.00    +0.000 OA
ATOM     24  C   UNL     1     111.542 124.665 137.058  0.00  0.00    +0.000 C 
ENDBRANCH  22  24
BRANCH  18  25
ATOM     25  O   UNL     1     112.374 127.655 138.180  0.00  0.00    +0.000 OA
BRANCH  25  30
ATOM     26  O   UNL     1     113.241 127.177 139.210  0.00  0.00    +0.000 OA
ATOM     27  O   UNL     1     111.953 128.937 139.130  0.00  0.00    +0.000 OA
ATOM     28  O   UNL     1     112.610 129.100 140.635  0.00  0.00    +0.000 OA
ATOM     29  O   UNL     1     113.688 127.981 141.190  0.00  0.00    +0.000 OA
ATOM     30  C   UNL     1     112.703 127.736 138.933  0.00  0.00    +0.000 C 
ATOM     31  C   UNL     1     112.492 128.377 139.407  0.00  0.00    +0.000 C 
ATOM     32  C   UNL     1     112.820 128.459 140.160  0.00  0.00    +0.000 C 
ATOM     33  C   UNL     1     113.359 127.899 140.437  0.00  0.00    +0.000 C 
ATOM     34  C   UNL     1     113.570 127.258 139.962  0.00  0.00    +0.000 C 
ATOM     35  C   UNL     1     114.109 126.699 140.240  0.00  0.00    +0.000 C 
ENDBRANCH  25  30
ENDBRANCH  18  25
ENDBRANCH   6  20
BRANCH  13  38
ATOM     36  O   UNL     1     108.818 129.466 136.862  0.00  0.00    +0.000 OA
ATOM     37  O   UNL     1     107.918 128.548 135.827  0.00  0.00    +0.000 OA
ATOM     38  C   UNL     1     110.389 128.420 135.766  0.00  0.00    +0.000 A 
ATOM     39  C   UNL     1     110.015 128.921 136.303  0.00  0.00    +0.000 A 
ATOM     40  C   UNL     1     109.940 127.961 135.248  0.00  0.00    +0.000 A 
ATOM     41  C   UNL     1     109.192 128.964 136.323  0.00  0.00    +0.000 A 
ATOM     42  C   UNL     1     109.116 128.004 135.269  0.00  0.00    +0.000 A 
ATOM     43  C   UNL     1     108.742 128.506 135.807  0.00  0.00    +0.000 A 
ENDBRANCH  13  38
TORSDOF 5
ENDMDL
MODEL 8
REMARK VINA RESULT:     -10.3      2.646      4.690
REMARK  Name = 44257960
REMARK  5 active torsions:
REMARK  status: ('A' for Active; 'I' for Inactive)
REMARK    1  A    between atoms: O_1  and  C_17
REMARK    2  A    between atoms: O_1  and  C_22
REMARK    3  A    between atoms: C_19  and  C_27
REMARK    4  A    between atoms: C_21  and  C_28
REMARK    5  A    between atoms: C_36  and  C_38
REMARK                            x       y       z     vdW  Elec       q    Type
REMARK                         _______ _______ _______ _____ _____    ______ ____
ROOT
ATOM      1  O   UNL     1     110.713 128.202 137.034  0.00  0.00    +0.000 OA
ATOM      2  O   UNL     1     110.107 130.434 135.265  0.00  0.00    +0.000 OA
ATOM      3  O   UNL     1     108.136 128.331 135.733  0.00  0.00    +0.000 OA
ATOM      4  O   UNL     1     108.470 127.240 136.616  0.00  0.00    +0.000 OA
ATOM      5  O   UNL     1     109.524 126.469 137.625  0.00  0.00    +0.000 OA
ATOM      6  C   UNL     1     110.427 129.322 136.155  0.00  0.00    +0.000 A 
ATOM      7  C   UNL     1     110.186 128.587 136.529  0.00  0.00    +0.000 A 
ATOM      8  C   UNL     1     109.884 129.728 135.628  0.00  0.00    +0.000 A 
ATOM      9  C   UNL     1     109.439 128.267 136.390  0.00  0.00    +0.000 A 
ATOM     10  C   UNL     1     109.106 129.395 135.483  0.00  0.00    +0.000 A 
ATOM     11  C   UNL     1     108.881 128.659 135.867  0.00  0.00    +0.000 A 
ATOM     12  C   UNL     1     109.218 127.560 136.755  0.00  0.00    +0.000 A 
ATOM     13  C   UNL     1     110.492 127.495 137.399  0.00  0.00    +0.000 A 
ATOM     14  C   UNL     1     109.745 127.175 137.260  0.00  0.00    +0.000 A 
ENDROOT
BRANCH   6  20
ATOM     15  O   UNL     1     111.804 129.457 135.794  0.00  0.00    +0.000 OA
ATOM     16  O   UNL     1     112.171 130.931 137.748  0.00  0.00    +0.000 OA
ATOM     17  O   UNL     1     113.425 130.574 136.736  0.00  0.00    +0.000 OA
ATOM     18  C   UNL     1     111.299 130.126 136.952  0.00  0.00    +0.000 C 
ATOM     19  C   UNL     1     112.049 130.440 137.097  0.00  0.00    +0.000 C 
ATOM     20  C   UNL     1     111.178 129.635 136.300  0.00  0.00    +0.000 C 
ATOM     21  C   UNL     1     112.676 130.261 136.591  0.00  0.00    +0.000 C 
ATOM     22  C   UNL     1     112.553 129.770 135.939  0.00  0.00    +0.000 C 
BRANCH  22  24
ATOM     23  O   UNL     1     113.198 128.868 135.038  0.00  0.00    +0.000 OA
ATOM     24  C   UNL     1     113.180 129.592 135.433  0.00  0.00    +0.000 C 
ENDBRANCH  22  24
BRANCH  18  25
ATOM     25  O   UNL     1     110.673 130.304 137.458  0.00  0.00    +0.000 OA
BRANCH  25  30
ATOM     26  O   UNL     1     110.633 131.701 137.156  0.00  0.00    +0.000 OA
ATOM     27  O   UNL     1     110.238 130.629 139.016  0.00  0.00    +0.000 OA
ATOM     28  O   UNL     1     109.981 132.187 139.494  0.00  0.00    +0.000 OA
ATOM     29  O   UNL     1     110.158 133.421 138.413  0.00  0.00    +0.000 OA
ATOM     30  C   UNL     1     110.544 131.084 137.696  0.00  0.00    +0.000 C 
ATOM     31  C   UNL     1     110.327 131.246 138.475  0.00  0.00    +0.000 C 
ATOM     32  C   UNL     1     110.198 132.025 138.715  0.00  0.00    +0.000 C 
ATOM     33  C   UNL     1     110.287 132.641 138.174  0.00  0.00    +0.000 C 
ATOM     34  C   UNL     1     110.504 132.479 137.395  0.00  0.00    +0.000 C 
ATOM     35  C   UNL     1     110.593 133.097 136.855  0.00  0.00    +0.000 C 
ENDBRANCH  25  30
ENDBRANCH  18  25
ENDBRANCH   6  20
BRANCH  13  38
ATOM     36  O   UNL     1     112.687 125.708 137.789  0.00  0.00    +0.000 OA
ATOM     37  O   UNL     1     112.599 125.955 139.419  0.00  0.00    +0.000 OA
ATOM     38  C   UNL     1     111.019 127.110 137.904  0.00  0.00    +0.000 A 
ATOM     39  C   UNL     1     111.590 126.601 137.594  0.00  0.00    +0.000 A 
ATOM     40  C   UNL     1     110.974 127.234 138.718  0.00  0.00    +0.000 A 
ATOM     41  C   UNL     1     112.116 126.217 138.099  0.00  0.00    +0.000 A 
ATOM     42  C   UNL     1     111.501 126.849 139.223  0.00  0.00    +0.000 A 
ATOM     43  C   UNL     1     112.073 126.340 138.914  0.00  0.00    +0.000 A 
ENDBRANCH  13  38
TORSDOF 5
ENDMDL
MODEL 9
REMARK VINA RESULT:     -10.3      1.448      4.496
REMARK  Name = 44257960
REMARK  5 active torsions:
REMARK  status: ('A' for Active; 'I' for Inactive)
REMARK    1  A    between atoms: O_1  and  C_17
REMARK    2  A    between atoms: O_1  and  C_22
REMARK    3  A    between atoms: C_19  and  C_27
REMARK    4  A    between atoms: C_21  and  C_28
REMARK    5  A    between atoms: C_36  and  C_38
REMARK                            x       y       z     vdW  Elec       q    Type
REMARK                         _______ _______ _______ _____ _____    ______ ____
ROOT
ATOM      1  O   UNL     1     112.536 126.125 138.424  0.00  0.00    +0.000 OA
ATOM      2  O   UNL     1     110.909 124.691 136.480  0.00  0.00    +0.000 OA
ATOM      3  O   UNL     1     113.802 124.302 136.573  0.00  0.00    +0.000 OA
ATOM      4  O   UNL     1     114.576 125.030 137.549  0.00  0.00    +0.000 OA
ATOM      5  O   UNL     1     114.687 126.103 138.798  0.00  0.00    +0.000 OA
ATOM      6  C   UNL     1     111.710 125.418 137.461  0.00  0.00    +0.000 A 
ATOM      7  C   UNL     1     112.481 125.588 137.799  0.00  0.00    +0.000 A 
ATOM      8  C   UNL     1     111.645 124.860 136.811  0.00  0.00    +0.000 A 
ATOM      9  C   UNL     1     113.161 125.223 137.508  0.00  0.00    +0.000 A 
ATOM     10  C   UNL     1     112.353 124.480 136.507  0.00  0.00    +0.000 A 
ATOM     11  C   UNL     1     113.117 124.663 136.858  0.00  0.00    +0.000 A 
ATOM     12  C   UNL     1     113.897 125.395 137.841  0.00  0.00    +0.000 A 
ATOM     13  C   UNL     1     113.271 126.297 138.757  0.00  0.00    +0.000 A 
ATOM     14  C   UNL     1     113.951 125.932 138.465  0.00  0.00    +0.000 A 
ENDROOT
BRANCH   6  20
ATOM     15  O   UNL     1     110.744 125.580 138.503  0.00  0.00    +0.000 OA
ATOM     16  O   UNL     1     109.592 127.315 137.165  0.00  0.00    +0.000 OA
ATOM     17  O   UNL     1     109.011 126.898 138.652  0.00  0.00    +0.000 OA
ATOM     18  C   UNL     1     110.651 126.366 137.313  0.00  0.00    +0.000 C 
ATOM     19  C   UNL     1     109.976 126.737 137.611  0.00  0.00    +0.000 C 
ATOM     20  C   UNL     1     111.034 125.788 137.759  0.00  0.00    +0.000 C 
ATOM     21  C   UNL     1     109.685 126.528 138.355  0.00  0.00    +0.000 C 
ATOM     22  C   UNL     1     110.070 125.950 138.800  0.00  0.00    +0.000 C 
BRANCH  22  24
ATOM     23  O   UNL     1     109.995 125.021 139.884  0.00  0.00    +0.000 OA
ATOM     24  C   UNL     1     109.779 125.741 139.544  0.00  0.00    +0.000 C 
ENDBRANCH  22  24
BRANCH  18  25
ATOM     25  O   UNL     1     110.941 126.575 136.569  0.00  0.00    +0.000 OA
BRANCH  25  30
ATOM     26  O   UNL     1     111.246 127.923 136.931  0.00  0.00    +0.000 OA
ATOM     27  O   UNL     1     110.630 127.060 135.023  0.00  0.00    +0.000 OA
ATOM     28  O   UNL     1     110.778 128.651 134.612  0.00  0.00    +0.000 OA
ATOM     29  O   UNL     1     111.239 129.757 135.747  0.00  0.00    +0.000 OA
ATOM     30  C   UNL     1     111.016 127.370 136.364  0.00  0.00    +0.000 C 
ATOM     31  C   UNL     1     110.860 127.613 135.591  0.00  0.00    +0.000 C 
ATOM     32  C   UNL     1     110.934 128.408 135.385  0.00  0.00    +0.000 C 
ATOM     33  C   UNL     1     111.164 128.961 135.953  0.00  0.00    +0.000 C 
ATOM     34  C   UNL     1     111.320 128.718 136.726  0.00  0.00    +0.000 C 
ATOM     35  C   UNL     1     111.550 129.272 137.293  0.00  0.00    +0.000 C 
ENDBRANCH  25  30
ENDBRANCH  18  25
ENDBRANCH   6  20
BRANCH  13  38
ATOM     36  O   UNL     1     113.099 126.869 141.551  0.00  0.00    +0.000 OA
ATOM     37  O   UNL     1     113.491 128.445 141.252  0.00  0.00    +0.000 OA
ATOM     38  C   UNL     1     113.326 126.833 139.381  0.00  0.00    +0.000 A 
ATOM     39  C   UNL     1     113.185 126.583 140.154  0.00  0.00    +0.000 A 
ATOM     40  C   UNL     1     113.522 127.620 139.231  0.00  0.00    +0.000 A 
ATOM     41  C   UNL     1     113.240 127.120 140.777  0.00  0.00    +0.000 A 
ATOM     42  C   UNL     1     113.577 128.157 139.855  0.00  0.00    +0.000 A 
ATOM     43  C   UNL     1     113.436 127.907 140.629  0.00  0.00    +0.000 A 
ENDBRANCH  13  38
TORSDOF 5
ENDMDL
MODEL 10
REMARK VINA RESULT:     -10.3      2.677      4.294
REMARK  Name = 44257960
REMARK  5 active torsions:
REMARK  status: ('A' for Active; 'I' for Inactive)
REMARK    1  A    between atoms: O_1  and  C_17
REMARK    2  A    between atoms: O_1  and  C_22
REMARK    3  A    between atoms: C_19  and  C_27
REMARK    4  A    between atoms: C_21  and  C_28
REMARK    5  A    between atoms: C_36  and  C_38
REMARK                            x       y       z     vdW  Elec       q    Type
REMARK                         _______ _______ _______ _____ _____    ______ ____
ROOT
ATOM      1  O   UNL     1     110.132 130.060 136.694  0.00  0.00    +0.000 OA
ATOM      2  O   UNL     1     110.848 127.365 135.856  0.00  0.00    +0.000 OA
ATOM      3  O   UNL     1     108.088 128.298 135.662  0.00  0.00    +0.000 OA
ATOM      4  O   UNL     1     107.769 129.639 136.087  0.00  0.00    +0.000 OA
ATOM      5  O   UNL     1     108.214 131.104 136.703  0.00  0.00    +0.000 OA
ATOM      6  C   UNL     1     110.507 128.719 136.281  0.00  0.00    +0.000 A 
ATOM      7  C   UNL     1     109.909 129.328 136.386  0.00  0.00    +0.000 A 
ATOM      8  C   UNL     1     110.282 127.955 135.961  0.00  0.00    +0.000 A 
ATOM      9  C   UNL     1     109.122 129.188 136.184  0.00  0.00    +0.000 A 
ATOM     10  C   UNL     1     109.462 127.809 135.750  0.00  0.00    +0.000 A 
ATOM     11  C   UNL     1     108.878 128.429 135.862  0.00  0.00    +0.000 A 
ATOM     12  C   UNL     1     108.557 129.780 136.289  0.00  0.00    +0.000 A 
ATOM     13  C   UNL     1     109.567 130.653 136.800  0.00  0.00    +0.000 A 
ATOM     14  C   UNL     1     108.780 130.512 136.598  0.00  0.00    +0.000 A 
ENDROOT
BRANCH   6  20
ATOM     15  O   UNL     1     111.823 129.141 135.917  0.00  0.00    +0.000 OA
ATOM     16  O   UNL     1     112.585 128.771 138.242  0.00  0.00    +0.000 OA
ATOM     17  O   UNL     1     113.647 129.316 137.103  0.00  0.00    +0.000 OA
ATOM     18  C   UNL     1     111.546 128.745 137.262  0.00  0.00    +0.000 C 
ATOM     19  C   UNL     1     112.332 128.895 137.467  0.00  0.00    +0.000 C 
ATOM     20  C   UNL     1     111.292 128.869 136.486  0.00  0.00    +0.000 C 
ATOM     21  C   UNL     1     112.862 129.167 136.897  0.00  0.00    +0.000 C 
ATOM     22  C   UNL     1     112.608 129.290 136.122  0.00  0.00    +0.000 C 
BRANCH  22  24
ATOM     23  O   UNL     1     112.974 129.456 134.750  0.00  0.00    +0.000 OA
ATOM     24  C   UNL     1     113.138 129.563 135.552  0.00  0.00    +0.000 C 
ENDBRANCH  22  24
BRANCH  18  25
ATOM     25  O   UNL     1     111.015 128.473 137.831  0.00  0.00    +0.000 OA
BRANCH  25  30
ATOM     26  O   UNL     1     111.679 127.226 138.048  0.00  0.00    +0.000 OA
ATOM     27  O   UNL     1     110.555 128.503 139.415  0.00  0.00    +0.000 OA
ATOM     28  O   UNL     1     110.988 127.272 140.425  0.00  0.00    +0.000 OA
ATOM     29  O   UNL     1     111.882 126.010 139.849  0.00  0.00    +0.000 OA
ATOM     30  C   UNL     1     111.232 127.856 138.335  0.00  0.00    +0.000 C 
ATOM     31  C   UNL     1     111.002 127.872 139.127  0.00  0.00    +0.000 C 
ATOM     32  C   UNL     1     111.218 127.257 139.632  0.00  0.00    +0.000 C 
ATOM     33  C   UNL     1     111.665 126.626 139.344  0.00  0.00    +0.000 C 
ATOM     34  C   UNL     1     111.895 126.610 138.552  0.00  0.00    +0.000 C 
ATOM     35  C   UNL     1     112.342 125.979 138.265  0.00  0.00    +0.000 C 
ENDBRANCH  25  30
ENDBRANCH  18  25
ENDBRANCH   6  20
BRANCH  13  38
ATOM     36  O   UNL     1     110.027 132.356 139.048  0.00  0.00    +0.000 OA
ATOM     37  O   UNL     1     110.459 133.582 138.031  0.00  0.00    +0.000 OA
ATOM     38  C   UNL     1     109.790 131.385 137.108  0.00  0.00    +0.000 A 
ATOM     39  C   UNL     1     109.797 131.504 137.924  0.00  0.00    +0.000 A 
ATOM     40  C   UNL     1     110.006 131.997 136.599  0.00  0.00    +0.000 A 
ATOM     41  C   UNL     1     110.020 132.237 138.231  0.00  0.00    +0.000 A 
ATOM     42  C   UNL     1     110.229 132.729 136.907  0.00  0.00    +0.000 A 
ATOM     43  C   UNL     1     110.236 132.849 137.724  0.00  0.00    +0.000 A 
ENDBRANCH  13  38
TORSDOF 5
ENDMDL
