MODEL 1
REMARK VINA RESULT:      -9.6      0.000      0.000
REMARK  Name = 44259533
REMARK  11 active torsions:
REMARK  status: ('A' for Active; 'I' for Inactive)
REMARK    1  A    between atoms: O_1  and  C_21
REMARK    2  A    between atoms: O_1  and  C_23
REMARK    3  A    between atoms: O_4  and  C_26
REMARK    4  A    between atoms: O_4  and  C_38
REMARK    5  A    between atoms: O_12  and  C_37
REMARK    6  A    between atoms: O_12  and  C_44
REMARK    7  A    between atoms: O_18  and  C_46
REMARK    8  A    between atoms: O_19  and  C_51
REMARK    9  A    between atoms: O_20  and  C_53
REMARK   10  A    between atoms: C_30  and  C_32
REMARK   11  A    between atoms: C_40  and  C_47
REMARK                            x       y       z     vdW  Elec       q    Type
REMARK                         _______ _______ _______ _____ _____    ______ ____
ROOT
ATOM      1  O   UNL     1     110.036 130.604 142.863  0.00  0.00    +0.000 OA
ATOM      2  O   UNL     1     111.042 128.422 143.460  0.00  0.00    +0.000 OA
ATOM      3  C   UNL     1     110.326 129.243 142.535  0.00  0.00    +0.000 A 
ATOM      4  C   UNL     1     109.991 129.971 142.336  0.00  0.00    +0.000 A 
ATOM      5  C   UNL     1     110.706 129.150 143.261  0.00  0.00    +0.000 A 
ATOM      6  C   UNL     1     110.752 129.783 143.788  0.00  0.00    +0.000 A 
ATOM      7  C   UNL     1     110.417 130.509 143.589  0.00  0.00    +0.000 A 
ATOM      8  C   UNL     1     110.852 131.085 144.887  0.00  0.00    +0.000 A 
ATOM      9  C   UNL     1     110.457 131.177 144.130  0.00  0.00    +0.000 A 
ATOM     10  C   UNL     1     111.151 129.672 144.541  0.00  0.00    +0.000 A 
ATOM     11  C   UNL     1     111.201 130.327 145.095  0.00  0.00    +0.000 A 
ENDROOT
BRANCH   4  12
ATOM     12  C   UNL     1     109.611 130.065 141.610  0.00  0.00    +0.000 A 
ATOM     13  C   UNL     1     108.817 129.852 141.530  0.00  0.00    +0.000 A 
ATOM     14  C   UNL     1     110.023 130.371 140.964  0.00  0.00    +0.000 A 
ATOM     15  C   UNL     1     108.437 129.945 140.804  0.00  0.00    +0.000 A 
ATOM     16  C   UNL     1     109.642 130.464 140.239  0.00  0.00    +0.000 A 
ATOM     17  C   UNL     1     108.849 130.252 140.158  0.00  0.00    +0.000 A 
BRANCH  15  18
ATOM     18  O   UNL     1     107.643 129.732 140.724  0.00  0.00    +0.000 OA
ATOM     19  C   UNL     1     107.167 129.654 141.393  0.00  0.00    +0.000 C 
ENDBRANCH  15  18
BRANCH  17  20
ATOM     20  O   UNL     1     108.468 130.345 139.433  0.00  0.00    +0.000 OA
ATOM     21  C   UNL     1     108.861 130.702 138.802  0.00  0.00    +0.000 C 
ENDBRANCH  17  20
ENDBRANCH   4  12
BRANCH  10  22
ATOM     22  O   UNL     1     111.483 128.941 144.732  0.00  0.00    +0.000 OA
ATOM     23  C   UNL     1     111.891 128.846 145.443  0.00  0.00    +0.000 C 
ENDBRANCH  10  22
BRANCH   3  24
ATOM     24  O   UNL     1     110.281 128.610 142.008  0.00  0.00    +0.000 OA
BRANCH  24  31
ATOM     25  O   UNL     1     111.665 128.636 141.655  0.00  0.00    +0.000 OA
ATOM     26  O   UNL     1     111.631 126.182 141.340  0.00  0.00    +0.000 OA
ATOM     27  O   UNL     1     113.027 127.026 141.091  0.00  0.00    +0.000 OA
ATOM     28  C   UNL     1     110.956 127.397 141.674  0.00  0.00    +0.000 C 
ATOM     29  C   UNL     1     111.643 127.000 141.445  0.00  0.00    +0.000 C 
ATOM     30  C   UNL     1     112.340 127.423 141.321  0.00  0.00    +0.000 C 
ATOM     31  C   UNL     1     110.967 128.215 141.779  0.00  0.00    +0.000 C 
ATOM     32  C   UNL     1     112.351 128.241 141.426  0.00  0.00    +0.000 C 
ATOM     33  C   UNL     1     113.050 128.663 141.301  0.00  0.00    +0.000 C 
BRANCH  28  34
ATOM     34  O   UNL     1     110.258 126.974 141.798  0.00  0.00    +0.000 OA
BRANCH  34  39
ATOM     35  O   UNL     1     110.078 126.841 140.387  0.00  0.00    +0.000 OA
ATOM     36  O   UNL     1     108.764 126.320 142.050  0.00  0.00    +0.000 OA
ATOM     37  O   UNL     1     107.838 125.860 140.765  0.00  0.00    +0.000 OA
ATOM     38  O   UNL     1     108.405 126.053 139.227  0.00  0.00    +0.000 OA
ATOM     39  C   UNL     1     109.795 126.744 141.155  0.00  0.00    +0.000 C 
ATOM     40  C   UNL     1     109.048 126.417 141.282  0.00  0.00    +0.000 C 
ATOM     41  C   UNL     1     108.584 126.187 140.639  0.00  0.00    +0.000 C 
ATOM     42  C   UNL     1     108.868 126.284 139.870  0.00  0.00    +0.000 C 
ATOM     43  C   UNL     1     109.615 126.610 139.745  0.00  0.00    +0.000 C 
BRANCH  43  45
ATOM     44  O   UNL     1     109.927 127.460 138.638  0.00  0.00    +0.000 OA
ATOM     45  C   UNL     1     109.899 126.707 138.975  0.00  0.00    +0.000 C 
ENDBRANCH  43  45
ENDBRANCH  34  39
ENDBRANCH  28  34
ENDBRANCH  24  31
ENDBRANCH   3  24
BRANCH   8  46
ATOM     46  O   UNL     1     110.896 131.720 145.412  0.00  0.00    +0.000 OA
BRANCH  46  55
ATOM     47  O   UNL     1     112.141 132.263 144.968  0.00  0.00    +0.000 OA
ATOM     48  O   UNL     1     111.231 134.551 145.216  0.00  0.00    +0.000 OA
ATOM     49  O   UNL     1     112.779 134.332 144.689  0.00  0.00    +0.000 OA
ATOM     50  O   UNL     1     110.290 133.245 145.577  0.00  0.00    +0.000 OA
ATOM     51  C   UNL     1     111.534 133.789 145.133  0.00  0.00    +0.000 C 
ATOM     52  C   UNL     1     112.308 133.679 144.870  0.00  0.00    +0.000 C 
ATOM     53  C   UNL     1     111.064 133.135 145.314  0.00  0.00    +0.000 C 
ATOM     54  C   UNL     1     112.612 132.916 144.787  0.00  0.00    +0.000 C 
ATOM     55  C   UNL     1     111.367 132.373 145.232  0.00  0.00    +0.000 C 
ATOM     56  C   UNL     1     113.386 132.807 144.523  0.00  0.00    +0.000 C 
ENDBRANCH  46  55
ENDBRANCH   8  46
TORSDOF 11
ENDMDL
MODEL 2
REMARK VINA RESULT:      -9.6      3.831      6.801
REMARK  Name = 44259533
REMARK  11 active torsions:
REMARK  status: ('A' for Active; 'I' for Inactive)
REMARK    1  A    between atoms: O_1  and  C_21
REMARK    2  A    between atoms: O_1  and  C_23
REMARK    3  A    between atoms: O_4  and  C_26
REMARK    4  A    between atoms: O_4  and  C_38
REMARK    5  A    between atoms: O_12  and  C_37
REMARK    6  A    between atoms: O_12  and  C_44
REMARK    7  A    between atoms: O_18  and  C_46
REMARK    8  A    between atoms: O_19  and  C_51
REMARK    9  A    between atoms: O_20  and  C_53
REMARK   10  A    between atoms: C_30  and  C_32
REMARK   11  A    between atoms: C_40  and  C_47
REMARK                            x       y       z     vdW  Elec       q    Type
REMARK                         _______ _______ _______ _____ _____    ______ ____
ROOT
ATOM      1  O   UNL     1     110.094 125.567 139.179  0.00  0.00    +0.000 OA
ATOM      2  O   UNL     1     110.174 128.011 139.568  0.00  0.00    +0.000 OA
ATOM      3  C   UNL     1     110.601 126.859 138.837  0.00  0.00    +0.000 A 
ATOM      4  C   UNL     1     110.575 126.044 138.708  0.00  0.00    +0.000 A 
ATOM      5  C   UNL     1     110.148 127.196 139.438  0.00  0.00    +0.000 A 
ATOM      6  C   UNL     1     109.667 126.719 139.910  0.00  0.00    +0.000 A 
ATOM      7  C   UNL     1     109.641 125.905 139.780  0.00  0.00    +0.000 A 
ATOM      8  C   UNL     1     108.670 125.742 140.892  0.00  0.00    +0.000 A 
ATOM      9  C   UNL     1     109.144 125.396 140.264  0.00  0.00    +0.000 A 
ATOM     10  C   UNL     1     109.200 127.082 140.532  0.00  0.00    +0.000 A 
ATOM     11  C   UNL     1     108.697 126.591 141.027  0.00  0.00    +0.000 A 
ENDROOT
BRANCH   4  12
ATOM     12  C   UNL     1     111.028 125.708 138.107  0.00  0.00    +0.000 A 
ATOM     13  C   UNL     1     110.753 125.716 137.328  0.00  0.00    +0.000 A 
ATOM     14  C   UNL     1     111.757 125.363 138.283  0.00  0.00    +0.000 A 
ATOM     15  C   UNL     1     111.207 125.380 136.727  0.00  0.00    +0.000 A 
ATOM     16  C   UNL     1     112.210 125.027 137.680  0.00  0.00    +0.000 A 
ATOM     17  C   UNL     1     111.935 125.035 136.903  0.00  0.00    +0.000 A 
BRANCH  15  18
ATOM     18  O   UNL     1     110.931 125.388 135.949  0.00  0.00    +0.000 OA
ATOM     19  C   UNL     1     110.203 125.733 135.773  0.00  0.00    +0.000 C 
ENDBRANCH  15  18
BRANCH  17  20
ATOM     20  O   UNL     1     112.388 124.699 136.301  0.00  0.00    +0.000 OA
ATOM     21  C   UNL     1     113.058 124.256 136.487  0.00  0.00    +0.000 C 
ENDBRANCH  17  20
ENDBRANCH   4  12
BRANCH  10  22
ATOM     22  O   UNL     1     109.233 127.897 140.655  0.00  0.00    +0.000 OA
ATOM     23  C   UNL     1     109.072 128.209 141.402  0.00  0.00    +0.000 C 
ENDBRANCH  10  22
BRANCH   3  24
ATOM     24  O   UNL     1     111.082 127.337 138.366  0.00  0.00    +0.000 OA
BRANCH  24  31
ATOM     25  O   UNL     1     112.099 127.541 139.348  0.00  0.00    +0.000 OA
ATOM     26  O   UNL     1     112.462 129.835 138.495  0.00  0.00    +0.000 OA
ATOM     27  O   UNL     1     113.359 129.275 139.761  0.00  0.00    +0.000 OA
ATOM     28  C   UNL     1     111.772 128.585 138.430  0.00  0.00    +0.000 C 
ATOM     29  C   UNL     1     112.341 129.071 138.779  0.00  0.00    +0.000 C 
ATOM     30  C   UNL     1     112.789 128.790 139.412  0.00  0.00    +0.000 C 
ATOM     31  C   UNL     1     111.651 127.821 138.715  0.00  0.00    +0.000 C 
ATOM     32  C   UNL     1     112.668 128.025 139.697  0.00  0.00    +0.000 C 
ATOM     33  C   UNL     1     113.117 127.745 140.330  0.00  0.00    +0.000 C 
BRANCH  28  34
ATOM     34  O   UNL     1     111.324 128.866 137.797  0.00  0.00    +0.000 OA
BRANCH  34  39
ATOM     35  O   UNL     1     112.429 128.653 136.918  0.00  0.00    +0.000 OA
ATOM     36  O   UNL     1     110.424 129.422 136.530  0.00  0.00    +0.000 OA
ATOM     37  O   UNL     1     111.081 129.487 135.018  0.00  0.00    +0.000 OA
ATOM     38  O   UNL     1     112.637 128.995 134.772  0.00  0.00    +0.000 OA
ATOM     39  C   UNL     1     111.652 128.899 137.041  0.00  0.00    +0.000 C 
ATOM     40  C   UNL     1     111.202 129.177 136.408  0.00  0.00    +0.000 C 
ATOM     41  C   UNL     1     111.530 129.209 135.652  0.00  0.00    +0.000 C 
ATOM     42  C   UNL     1     112.309 128.963 135.529  0.00  0.00    +0.000 C 
ATOM     43  C   UNL     1     112.758 128.685 136.162  0.00  0.00    +0.000 C 
BRANCH  43  45
ATOM     44  O   UNL     1     113.734 127.643 136.119  0.00  0.00    +0.000 OA
ATOM     45  C   UNL     1     113.536 128.439 136.039  0.00  0.00    +0.000 C 
ENDBRANCH  43  45
ENDBRANCH  34  39
ENDBRANCH  28  34
ENDBRANCH  24  31
ENDBRANCH   3  24
BRANCH   8  46
ATOM     46  O   UNL     1     108.190 125.262 141.361  0.00  0.00    +0.000 OA
BRANCH  46  55
ATOM     47  O   UNL     1     107.131 125.055 140.425  0.00  0.00    +0.000 OA
ATOM     48  O   UNL     1     105.473 125.286 142.247  0.00  0.00    +0.000 OA
ATOM     49  O   UNL     1     104.967 125.001 140.703  0.00  0.00    +0.000 OA
ATOM     50  O   UNL     1     107.085 125.416 142.576  0.00  0.00    +0.000 OA
ATOM     51  C   UNL     1     106.026 125.209 141.639  0.00  0.00    +0.000 C 
ATOM     52  C   UNL     1     105.773 125.066 140.867  0.00  0.00    +0.000 C 
ATOM     53  C   UNL     1     106.831 125.274 141.804  0.00  0.00    +0.000 C 
ATOM     54  C   UNL     1     106.325 124.989 140.259  0.00  0.00    +0.000 C 
ATOM     55  C   UNL     1     107.384 125.197 141.197  0.00  0.00    +0.000 C 
ATOM     56  C   UNL     1     106.072 124.847 139.487  0.00  0.00    +0.000 C 
ENDBRANCH  46  55
ENDBRANCH   8  46
TORSDOF 11
ENDMDL
MODEL 3
REMARK VINA RESULT:      -9.6      1.544      2.894
REMARK  Name = 44259533
REMARK  11 active torsions:
REMARK  status: ('A' for Active; 'I' for Inactive)
REMARK    1  A    between atoms: O_1  and  C_21
REMARK    2  A    between atoms: O_1  and  C_23
REMARK    3  A    between atoms: O_4  and  C_26
REMARK    4  A    between atoms: O_4  and  C_38
REMARK    5  A    between atoms: O_12  and  C_37
REMARK    6  A    between atoms: O_12  and  C_44
REMARK    7  A    between atoms: O_18  and  C_46
REMARK    8  A    between atoms: O_19  and  C_51
REMARK    9  A    between atoms: O_20  and  C_53
REMARK   10  A    between atoms: C_30  and  C_32
REMARK   11  A    between atoms: C_40  and  C_47
REMARK                            x       y       z     vdW  Elec       q    Type
REMARK                         _______ _______ _______ _____ _____    ______ ____
ROOT
ATOM      1  O   UNL     1     111.910 130.629 142.487  0.00  0.00    +0.000 OA
ATOM      2  O   UNL     1     111.664 128.291 143.262  0.00  0.00    +0.000 OA
ATOM      3  C   UNL     1     111.814 129.232 142.198  0.00  0.00    +0.000 A 
ATOM      4  C   UNL     1     111.896 130.012 141.939  0.00  0.00    +0.000 A 
ATOM      5  C   UNL     1     111.746 129.071 143.004  0.00  0.00    +0.000 A 
ATOM      6  C   UNL     1     111.760 129.687 143.551  0.00  0.00    +0.000 A 
ATOM      7  C   UNL     1     111.842 130.466 143.293  0.00  0.00    +0.000 A 
ATOM      8  C   UNL     1     111.788 130.955 144.694  0.00  0.00    +0.000 A 
ATOM      9  C   UNL     1     111.858 131.118 143.854  0.00  0.00    +0.000 A 
ATOM     10  C   UNL     1     111.689 129.505 144.388  0.00  0.00    +0.000 A 
ATOM     11  C   UNL     1     111.703 130.143 144.964  0.00  0.00    +0.000 A 
ENDROOT
BRANCH   4  12
ATOM     12  C   UNL     1     111.963 130.174 141.133  0.00  0.00    +0.000 A 
ATOM     13  C   UNL     1     112.701 130.128 140.764  0.00  0.00    +0.000 A 
ATOM     14  C   UNL     1     111.295 130.382 140.696  0.00  0.00    +0.000 A 
ATOM     15  C   UNL     1     112.768 130.290 139.958  0.00  0.00    +0.000 A 
ATOM     16  C   UNL     1     111.365 130.544 139.890  0.00  0.00    +0.000 A 
ATOM     17  C   UNL     1     112.100 130.498 139.521  0.00  0.00    +0.000 A 
BRANCH  15  18
ATOM     18  O   UNL     1     113.506 130.244 139.589  0.00  0.00    +0.000 OA
ATOM     19  C   UNL     1     114.196 130.289 140.039  0.00  0.00    +0.000 C 
ENDBRANCH  15  18
BRANCH  17  20
ATOM     20  O   UNL     1     112.169 130.659 138.715  0.00  0.00    +0.000 OA
ATOM     21  C   UNL     1     111.501 130.857 138.275  0.00  0.00    +0.000 C 
ENDBRANCH  17  20
ENDBRANCH   4  12
BRANCH  10  22
ATOM     22  O   UNL     1     111.607 128.722 144.638  0.00  0.00    +0.000 OA
ATOM     23  C   UNL     1     111.760 128.522 145.423  0.00  0.00    +0.000 C 
ENDBRANCH  10  22
BRANCH   3  24
ATOM     24  O   UNL     1     111.799 128.616 141.650  0.00  0.00    +0.000 OA
BRANCH  24  31
ATOM     25  O   UNL     1     110.400 128.356 141.779  0.00  0.00    +0.000 OA
ATOM     26  O   UNL     1     110.806 125.953 141.346  0.00  0.00    +0.000 OA
ATOM     27  O   UNL     1     109.272 126.494 141.619  0.00  0.00    +0.000 OA
ATOM     28  C   UNL     1     111.303 127.285 141.498  0.00  0.00    +0.000 C 
ATOM     29  C   UNL     1     110.671 126.754 141.490  0.00  0.00    +0.000 C 
ATOM     30  C   UNL     1     109.904 127.025 141.627  0.00  0.00    +0.000 C 
ATOM     31  C   UNL     1     111.168 128.086 141.642  0.00  0.00    +0.000 C 
ATOM     32  C   UNL     1     109.769 127.826 141.771  0.00  0.00    +0.000 C 
ATOM     33  C   UNL     1     109.001 128.096 141.908  0.00  0.00    +0.000 C 
BRANCH  28  34
ATOM     34  O   UNL     1     112.070 127.014 141.361  0.00  0.00    +0.000 OA
BRANCH  34  39
ATOM     35  O   UNL     1     111.793 126.902 139.964  0.00  0.00    +0.000 OA
ATOM     36  O   UNL     1     113.667 126.716 141.069  0.00  0.00    +0.000 OA
ATOM     37  O   UNL     1     114.188 126.455 139.525  0.00  0.00    +0.000 OA
ATOM     38  O   UNL     1     113.112 126.492 138.274  0.00  0.00    +0.000 OA
ATOM     39  C   UNL     1     112.331 126.883 140.589  0.00  0.00    +0.000 C 
ATOM     40  C   UNL     1     113.129 126.735 140.444  0.00  0.00    +0.000 C 
ATOM     41  C   UNL     1     113.390 126.604 139.672  0.00  0.00    +0.000 C 
ATOM     42  C   UNL     1     112.852 126.622 139.046  0.00  0.00    +0.000 C 
ATOM     43  C   UNL     1     112.054 126.771 139.193  0.00  0.00    +0.000 C 
BRANCH  43  45
ATOM     44  O   UNL     1     111.183 127.507 138.331  0.00  0.00    +0.000 OA
ATOM     45  C   UNL     1     111.516 126.790 138.566  0.00  0.00    +0.000 C 
ENDBRANCH  43  45
ENDBRANCH  34  39
ENDBRANCH  28  34
ENDBRANCH  24  31
ENDBRANCH   3  24
BRANCH   8  46
ATOM     46  O   UNL     1     111.803 131.574 145.240  0.00  0.00    +0.000 OA
BRANCH  46  55
ATOM     47  O   UNL     1     110.389 131.754 145.338  0.00  0.00    +0.000 OA
ATOM     48  O   UNL     1     110.711 134.202 145.500  0.00  0.00    +0.000 OA
ATOM     49  O   UNL     1     109.189 133.566 145.544  0.00  0.00    +0.000 OA
ATOM     50  O   UNL     1     112.017 133.206 145.348  0.00  0.00    +0.000 OA
ATOM     51  C   UNL     1     110.603 133.386 145.446  0.00  0.00    +0.000 C 
ATOM     52  C   UNL     1     109.842 133.068 145.468  0.00  0.00    +0.000 C 
ATOM     53  C   UNL     1     111.256 132.888 145.370  0.00  0.00    +0.000 C 
ATOM     54  C   UNL     1     109.735 132.252 145.414  0.00  0.00    +0.000 C 
ATOM     55  C   UNL     1     111.150 132.072 145.316  0.00  0.00    +0.000 C 
ATOM     56  C   UNL     1     108.974 131.934 145.436  0.00  0.00    +0.000 C 
ENDBRANCH  46  55
ENDBRANCH   8  46
TORSDOF 11
ENDMDL
MODEL 4
REMARK VINA RESULT:      -9.5      2.974      4.458
REMARK  Name = 44259533
REMARK  11 active torsions:
REMARK  status: ('A' for Active; 'I' for Inactive)
REMARK    1  A    between atoms: O_1  and  C_21
REMARK    2  A    between atoms: O_1  and  C_23
REMARK    3  A    between atoms: O_4  and  C_26
REMARK    4  A    between atoms: O_4  and  C_38
REMARK    5  A    between atoms: O_12  and  C_37
REMARK    6  A    between atoms: O_12  and  C_44
REMARK    7  A    between atoms: O_18  and  C_46
REMARK    8  A    between atoms: O_19  and  C_51
REMARK    9  A    between atoms: O_20  and  C_53
REMARK   10  A    between atoms: C_30  and  C_32
REMARK   11  A    between atoms: C_40  and  C_47
REMARK                            x       y       z     vdW  Elec       q    Type
REMARK                         _______ _______ _______ _____ _____    ______ ____
ROOT
ATOM      1  O   UNL     1     111.341 129.570 139.287  0.00  0.00    +0.000 OA
ATOM      2  O   UNL     1     113.398 128.234 138.953  0.00  0.00    +0.000 OA
ATOM      3  C   UNL     1     112.066 128.574 138.562  0.00  0.00    +0.000 A 
ATOM      4  C   UNL     1     111.380 129.019 138.674  0.00  0.00    +0.000 A 
ATOM      5  C   UNL     1     112.712 128.680 139.064  0.00  0.00    +0.000 A 
ATOM      6  C   UNL     1     112.673 129.230 139.677  0.00  0.00    +0.000 A 
ATOM      7  C   UNL     1     111.988 129.675 139.788  0.00  0.00    +0.000 A 
ATOM      8  C   UNL     1     112.604 130.367 140.949  0.00  0.00    +0.000 A 
ATOM      9  C   UNL     1     111.934 130.252 140.424  0.00  0.00    +0.000 A 
ATOM     10  C   UNL     1     113.353 129.331 140.193  0.00  0.00    +0.000 A 
ATOM     11  C   UNL     1     113.318 129.902 140.834  0.00  0.00    +0.000 A 
ENDROOT
BRANCH   4  12
ATOM     12  C   UNL     1     110.734 128.913 138.172  0.00  0.00    +0.000 A 
ATOM     13  C   UNL     1     110.220 128.278 138.290  0.00  0.00    +0.000 A 
ATOM     14  C   UNL     1     110.602 129.441 137.552  0.00  0.00    +0.000 A 
ATOM     15  C   UNL     1     109.574 128.172 137.788  0.00  0.00    +0.000 A 
ATOM     16  C   UNL     1     109.956 129.334 137.050  0.00  0.00    +0.000 A 
ATOM     17  C   UNL     1     109.442 128.700 137.168  0.00  0.00    +0.000 A 
BRANCH  15  18
ATOM     18  O   UNL     1     109.060 127.537 137.907  0.00  0.00    +0.000 OA
ATOM     19  C   UNL     1     109.190 127.012 138.529  0.00  0.00    +0.000 C 
ENDBRANCH  15  18
BRANCH  17  20
ATOM     20  O   UNL     1     108.796 128.593 136.667  0.00  0.00    +0.000 OA
ATOM     21  C   UNL     1     108.671 129.111 136.037  0.00  0.00    +0.000 C 
ENDBRANCH  17  20
ENDBRANCH   4  12
BRANCH  10  22
ATOM     22  O   UNL     1     114.035 128.881 140.075  0.00  0.00    +0.000 OA
ATOM     23  C   UNL     1     114.609 128.839 140.666  0.00  0.00    +0.000 C 
ENDBRANCH  10  22
BRANCH   3  24
ATOM     24  O   UNL     1     112.106 128.023 137.949  0.00  0.00    +0.000 OA
BRANCH  24  31
ATOM     25  O   UNL     1     112.904 128.825 137.077  0.00  0.00    +0.000 OA
ATOM     26  O   UNL     1     114.051 126.792 136.256  0.00  0.00    +0.000 OA
ATOM     27  O   UNL     1     114.467 128.272 135.657  0.00  0.00    +0.000 OA
ATOM     28  C   UNL     1     113.078 127.407 137.103  0.00  0.00    +0.000 C 
ATOM     29  C   UNL     1     113.669 127.470 136.530  0.00  0.00    +0.000 C 
ATOM     30  C   UNL     1     113.876 128.210 136.230  0.00  0.00    +0.000 C 
ATOM     31  C   UNL     1     112.695 128.085 137.377  0.00  0.00    +0.000 C 
ATOM     32  C   UNL     1     113.493 128.888 136.504  0.00  0.00    +0.000 C 
ATOM     33  C   UNL     1     113.702 129.628 136.204  0.00  0.00    +0.000 C 
BRANCH  28  34
ATOM     34  O   UNL     1     112.871 126.667 137.402  0.00  0.00    +0.000 OA
BRANCH  34  39
ATOM     35  O   UNL     1     112.096 126.409 136.230  0.00  0.00    +0.000 OA
ATOM     36  O   UNL     1     112.470 125.180 137.994  0.00  0.00    +0.000 OA
ATOM     37  O   UNL     1     111.495 124.178 137.118  0.00  0.00    +0.000 OA
ATOM     38  O   UNL     1     110.921 124.663 135.649  0.00  0.00    +0.000 OA
ATOM     39  C   UNL     1     112.383 126.166 136.964  0.00  0.00    +0.000 C 
ATOM     40  C   UNL     1     112.183 125.423 137.260  0.00  0.00    +0.000 C 
ATOM     41  C   UNL     1     111.696 124.922 136.822  0.00  0.00    +0.000 C 
ATOM     42  C   UNL     1     111.409 125.164 136.087  0.00  0.00    +0.000 C 
ATOM     43  C   UNL     1     111.609 125.908 135.792  0.00  0.00    +0.000 C 
BRANCH  43  45
ATOM     44  O   UNL     1     110.678 126.664 135.016  0.00  0.00    +0.000 OA
ATOM     45  C   UNL     1     111.322 126.151 135.057  0.00  0.00    +0.000 C 
ENDBRANCH  43  45
ENDBRANCH  34  39
ENDBRANCH  28  34
ENDBRANCH  24  31
ENDBRANCH   3  24
BRANCH   8  46
ATOM     46  O   UNL     1     112.561 130.918 141.562  0.00  0.00    +0.000 OA
BRANCH  46  55
ATOM     47  O   UNL     1     112.145 130.022 142.594  0.00  0.00    +0.000 OA
ATOM     48  O   UNL     1     110.632 131.762 143.494  0.00  0.00    +0.000 OA
ATOM     49  O   UNL     1     110.720 130.286 144.227  0.00  0.00    +0.000 OA
ATOM     50  O   UNL     1     111.553 132.078 142.162  0.00  0.00    +0.000 OA
ATOM     51  C   UNL     1     111.136 131.182 143.194  0.00  0.00    +0.000 C 
ATOM     52  C   UNL     1     111.180 130.444 143.560  0.00  0.00    +0.000 C 
ATOM     53  C   UNL     1     111.597 131.340 142.528  0.00  0.00    +0.000 C 
ATOM     54  C   UNL     1     111.684 129.864 143.261  0.00  0.00    +0.000 C 
ATOM     55  C   UNL     1     112.101 130.760 142.228  0.00  0.00    +0.000 C 
ATOM     56  C   UNL     1     111.728 129.126 143.627  0.00  0.00    +0.000 C 
ENDBRANCH  46  55
ENDBRANCH   8  46
TORSDOF 11
ENDMDL
MODEL 5
REMARK VINA RESULT:      -9.5      2.721      4.962
REMARK  Name = 44259533
REMARK  11 active torsions:
REMARK  status: ('A' for Active; 'I' for Inactive)
REMARK    1  A    between atoms: O_1  and  C_21
REMARK    2  A    between atoms: O_1  and  C_23
REMARK    3  A    between atoms: O_4  and  C_26
REMARK    4  A    between atoms: O_4  and  C_38
REMARK    5  A    between atoms: O_12  and  C_37
REMARK    6  A    between atoms: O_12  and  C_44
REMARK    7  A    between atoms: O_18  and  C_46
REMARK    8  A    between atoms: O_19  and  C_51
REMARK    9  A    between atoms: O_20  and  C_53
REMARK   10  A    between atoms: C_30  and  C_32
REMARK   11  A    between atoms: C_40  and  C_47
REMARK                            x       y       z     vdW  Elec       q    Type
REMARK                         _______ _______ _______ _____ _____    ______ ____
ROOT
ATOM      1  O   UNL     1     111.475 130.215 139.213  0.00  0.00    +0.000 OA
ATOM      2  O   UNL     1     109.146 129.537 138.716  0.00  0.00    +0.000 OA
ATOM      3  C   UNL     1     110.534 129.541 138.374  0.00  0.00    +0.000 A 
ATOM      4  C   UNL     1     111.310 129.767 138.540  0.00  0.00    +0.000 A 
ATOM      5  C   UNL     1     109.923 129.763 138.882  0.00  0.00    +0.000 A 
ATOM      6  C   UNL     1     110.088 130.211 139.555  0.00  0.00    +0.000 A 
ATOM      7  C   UNL     1     110.863 130.437 139.720  0.00  0.00    +0.000 A 
ATOM      8  C   UNL     1     110.416 131.138 140.950  0.00  0.00    +0.000 A 
ATOM      9  C   UNL     1     111.049 130.904 140.418  0.00  0.00    +0.000 A 
ATOM     10  C   UNL     1     109.442 130.436 140.076  0.00  0.00    +0.000 A 
ATOM     11  C   UNL     1     109.607 130.903 140.778  0.00  0.00    +0.000 A 
ENDROOT
BRANCH   4  12
ATOM     12  C   UNL     1     111.921 129.545 138.032  0.00  0.00    +0.000 A 
ATOM     13  C   UNL     1     112.264 128.797 138.103  0.00  0.00    +0.000 A 
ATOM     14  C   UNL     1     112.189 130.069 137.454  0.00  0.00    +0.000 A 
ATOM     15  C   UNL     1     112.875 128.574 137.595  0.00  0.00    +0.000 A 
ATOM     16  C   UNL     1     112.800 129.845 136.947  0.00  0.00    +0.000 A 
ATOM     17  C   UNL     1     113.143 129.098 137.017  0.00  0.00    +0.000 A 
BRANCH  15  18
ATOM     18  O   UNL     1     113.218 127.827 137.665  0.00  0.00    +0.000 OA
ATOM     19  C   UNL     1     113.135 127.399 138.366  0.00  0.00    +0.000 C 
ENDBRANCH  15  18
BRANCH  17  20
ATOM     20  O   UNL     1     113.754 128.875 136.509  0.00  0.00    +0.000 OA
ATOM     21  C   UNL     1     114.126 129.439 136.037  0.00  0.00    +0.000 C 
ENDBRANCH  17  20
ENDBRANCH   4  12
BRANCH  10  22
ATOM     22  O   UNL     1     108.669 130.206 139.902  0.00  0.00    +0.000 OA
ATOM     23  C   UNL     1     108.038 130.530 140.324  0.00  0.00    +0.000 C 
ENDBRANCH  10  22
BRANCH   3  24
ATOM     24  O   UNL     1     110.369 129.093 137.701  0.00  0.00    +0.000 OA
BRANCH  24  31
ATOM     25  O   UNL     1     109.788 130.159 136.947  0.00  0.00    +0.000 OA
ATOM     26  O   UNL     1     108.192 128.566 135.926  0.00  0.00    +0.000 OA
ATOM     27  O   UNL     1     108.143 130.162 135.512  0.00  0.00    +0.000 OA
ATOM     28  C   UNL     1     109.281 128.830 136.814  0.00  0.00    +0.000 C 
ATOM     29  C   UNL     1     108.724 129.097 136.266  0.00  0.00    +0.000 C 
ATOM     30  C   UNL     1     108.700 129.895 136.060  0.00  0.00    +0.000 C 
ATOM     31  C   UNL     1     109.813 129.360 137.154  0.00  0.00    +0.000 C 
ATOM     32  C   UNL     1     109.233 130.426 136.400  0.00  0.00    +0.000 C 
ATOM     33  C   UNL     1     109.208 131.224 136.192  0.00  0.00    +0.000 C 
BRANCH  28  34
ATOM     34  O   UNL     1     109.305 128.031 137.021  0.00  0.00    +0.000 OA
BRANCH  34  39
ATOM     35  O   UNL     1     110.029 127.738 135.826  0.00  0.00    +0.000 OA
ATOM     36  O   UNL     1     109.478 126.465 137.510  0.00  0.00    +0.000 OA
ATOM     37  O   UNL     1     110.290 125.389 136.559  0.00  0.00    +0.000 OA
ATOM     38  O   UNL     1     110.928 125.879 135.118  0.00  0.00    +0.000 OA
ATOM     39  C   UNL     1     109.710 127.493 136.545  0.00  0.00    +0.000 C 
ATOM     40  C   UNL     1     109.797 126.710 136.791  0.00  0.00    +0.000 C 
ATOM     41  C   UNL     1     110.203 126.172 136.315  0.00  0.00    +0.000 C 
ATOM     42  C   UNL     1     110.522 126.417 135.594  0.00  0.00    +0.000 C 
ATOM     43  C   UNL     1     110.435 127.200 135.350  0.00  0.00    +0.000 C 
BRANCH  43  45
ATOM     44  O   UNL     1     111.323 128.042 134.612  0.00  0.00    +0.000 OA
ATOM     45  C   UNL     1     110.754 127.445 134.629  0.00  0.00    +0.000 C 
ENDBRANCH  43  45
ENDBRANCH  34  39
ENDBRANCH  28  34
ENDBRANCH  24  31
ENDBRANCH   3  24
BRANCH   8  46
ATOM     46  O   UNL     1     110.584 131.586 141.623  0.00  0.00    +0.000 OA
BRANCH  46  55
ATOM     47  O   UNL     1     110.743 130.450 142.475  0.00  0.00    +0.000 OA
ATOM     48  O   UNL     1     112.354 131.715 143.863  0.00  0.00    +0.000 OA
ATOM     49  O   UNL     1     111.976 130.157 144.252  0.00  0.00    +0.000 OA
ATOM     50  O   UNL     1     111.658 132.429 142.548  0.00  0.00    +0.000 OA
ATOM     51  C   UNL     1     111.817 131.293 143.400  0.00  0.00    +0.000 C 
ATOM     52  C   UNL     1     111.628 130.514 143.595  0.00  0.00    +0.000 C 
ATOM     53  C   UNL     1     111.469 131.650 142.743  0.00  0.00    +0.000 C 
ATOM     54  C   UNL     1     111.090 130.092 143.132  0.00  0.00    +0.000 C 
ATOM     55  C   UNL     1     110.932 131.229 142.280  0.00  0.00    +0.000 C 
ATOM     56  C   UNL     1     110.901 129.313 143.327  0.00  0.00    +0.000 C 
ENDBRANCH  46  55
ENDBRANCH   8  46
TORSDOF 11
ENDMDL
MODEL 6
REMARK VINA RESULT:      -9.5      1.990      6.880
REMARK  Name = 44259533
REMARK  11 active torsions:
REMARK  status: ('A' for Active; 'I' for Inactive)
REMARK    1  A    between atoms: O_1  and  C_21
REMARK    2  A    between atoms: O_1  and  C_23
REMARK    3  A    between atoms: O_4  and  C_26
REMARK    4  A    between atoms: O_4  and  C_38
REMARK    5  A    between atoms: O_12  and  C_37
REMARK    6  A    between atoms: O_12  and  C_44
REMARK    7  A    between atoms: O_18  and  C_46
REMARK    8  A    between atoms: O_19  and  C_51
REMARK    9  A    between atoms: O_20  and  C_53
REMARK   10  A    between atoms: C_30  and  C_32
REMARK   11  A    between atoms: C_40  and  C_47
REMARK                            x       y       z     vdW  Elec       q    Type
REMARK                         _______ _______ _______ _____ _____    ______ ____
ROOT
ATOM      1  O   UNL     1     112.239 127.879 139.779  0.00  0.00    +0.000 OA
ATOM      2  O   UNL     1     110.257 128.132 141.241  0.00  0.00    +0.000 OA
ATOM      3  C   UNL     1     111.508 128.623 140.757  0.00  0.00    +0.000 A 
ATOM      4  C   UNL     1     112.169 128.539 140.270  0.00  0.00    +0.000 A 
ATOM      5  C   UNL     1     110.918 128.047 140.754  0.00  0.00    +0.000 A 
ATOM      6  C   UNL     1     110.987 127.388 140.263  0.00  0.00    +0.000 A 
ATOM      7  C   UNL     1     111.647 127.304 139.776  0.00  0.00    +0.000 A 
ATOM      8  C   UNL     1     111.119 126.018 139.252  0.00  0.00    +0.000 A 
ATOM      9  C   UNL     1     111.732 126.621 139.260  0.00  0.00    +0.000 A 
ATOM     10  C   UNL     1     110.364 126.795 140.269  0.00  0.00    +0.000 A 
ATOM     11  C   UNL     1     110.431 126.106 139.760  0.00  0.00    +0.000 A 
ENDROOT
BRANCH   4  12
ATOM     12  C   UNL     1     112.760 129.115 140.274  0.00  0.00    +0.000 A 
ATOM     13  C   UNL     1     112.792 129.677 139.669  0.00  0.00    +0.000 A 
ATOM     14  C   UNL     1     113.318 129.129 140.880  0.00  0.00    +0.000 A 
ATOM     15  C   UNL     1     113.382 130.252 139.673  0.00  0.00    +0.000 A 
ATOM     16  C   UNL     1     113.909 129.706 140.883  0.00  0.00    +0.000 A 
ATOM     17  C   UNL     1     113.941 130.267 140.280  0.00  0.00    +0.000 A 
BRANCH  15  18
ATOM     18  O   UNL     1     113.414 130.814 139.069  0.00  0.00    +0.000 OA
ATOM     19  C   UNL     1     113.167 130.615 138.307  0.00  0.00    +0.000 C 
ENDBRANCH  15  18
BRANCH  17  20
ATOM     20  O   UNL     1     114.531 130.844 140.283  0.00  0.00    +0.000 OA
ATOM     21  C   UNL     1     114.992 130.959 140.956  0.00  0.00    +0.000 C 
ENDBRANCH  17  20
ENDBRANCH   4  12
BRANCH  10  22
ATOM     22  O   UNL     1     109.707 126.888 140.759  0.00  0.00    +0.000 OA
ATOM     23  C   UNL     1     109.217 126.243 140.917  0.00  0.00    +0.000 C 
ENDBRANCH  10  22
BRANCH   3  24
ATOM     24  O   UNL     1     111.439 129.283 141.248  0.00  0.00    +0.000 OA
BRANCH  24  31
ATOM     25  O   UNL     1     110.490 129.994 140.451  0.00  0.00    +0.000 OA
ATOM     26  O   UNL     1     109.360 130.788 142.505  0.00  0.00    +0.000 OA
ATOM     27  O   UNL     1     108.787 131.235 141.023  0.00  0.00    +0.000 OA
ATOM     28  C   UNL     1     110.400 130.035 141.876  0.00  0.00    +0.000 C 
ATOM     29  C   UNL     1     109.736 130.523 141.820  0.00  0.00    +0.000 C 
ATOM     30  C   UNL     1     109.451 130.746 141.079  0.00  0.00    +0.000 C 
ATOM     31  C   UNL     1     110.777 129.770 141.192  0.00  0.00    +0.000 C 
ATOM     32  C   UNL     1     109.828 130.482 140.395  0.00  0.00    +0.000 C 
ATOM     33  C   UNL     1     109.541 130.706 139.654  0.00  0.00    +0.000 C 
BRANCH  28  34
ATOM     34  O   UNL     1     110.685 129.812 142.617  0.00  0.00    +0.000 OA
BRANCH  34  39
ATOM     35  O   UNL     1     111.415 131.034 142.731  0.00  0.00    +0.000 OA
ATOM     36  O   UNL     1     110.922 129.521 144.224  0.00  0.00    +0.000 OA
ATOM     37  O   UNL     1     111.770 130.599 145.141  0.00  0.00    +0.000 OA
ATOM     38  O   UNL     1     112.383 131.967 144.451  0.00  0.00    +0.000 OA
ATOM     39  C   UNL     1     111.110 130.351 143.076  0.00  0.00    +0.000 C 
ATOM     40  C   UNL     1     111.228 130.205 143.879  0.00  0.00    +0.000 C 
ATOM     41  C   UNL     1     111.652 130.744 144.338  0.00  0.00    +0.000 C 
ATOM     42  C   UNL     1     111.958 131.428 143.993  0.00  0.00    +0.000 C 
ATOM     43  C   UNL     1     111.840 131.573 143.189  0.00  0.00    +0.000 C 
BRANCH  43  45
ATOM     44  O   UNL     1     111.646 132.890 142.670  0.00  0.00    +0.000 OA
ATOM     45  C   UNL     1     112.146 132.257 142.844  0.00  0.00    +0.000 C 
ENDBRANCH  43  45
ENDBRANCH  34  39
ENDBRANCH  28  34
ENDBRANCH  24  31
ENDBRANCH   3  24
BRANCH   8  46
ATOM     46  O   UNL     1     111.191 125.360 138.761  0.00  0.00    +0.000 OA
BRANCH  46  55
ATOM     47  O   UNL     1     110.430 125.929 137.694  0.00  0.00    +0.000 OA
ATOM     48  O   UNL     1     111.753 124.630 136.055  0.00  0.00    +0.000 OA
ATOM     49  O   UNL     1     110.550 125.632 135.534  0.00  0.00    +0.000 OA
ATOM     50  O   UNL     1     112.073 124.494 137.668  0.00  0.00    +0.000 OA
ATOM     51  C   UNL     1     111.312 125.063 136.601  0.00  0.00    +0.000 C 
ATOM     52  C   UNL     1     110.710 125.564 136.341  0.00  0.00    +0.000 C 
ATOM     53  C   UNL     1     111.472 124.995 137.408  0.00  0.00    +0.000 C 
ATOM     54  C   UNL     1     110.269 125.997 136.887  0.00  0.00    +0.000 C 
ATOM     55  C   UNL     1     111.031 125.428 137.954  0.00  0.00    +0.000 C 
ATOM     56  C   UNL     1     109.668 126.498 136.627  0.00  0.00    +0.000 C 
ENDBRANCH  46  55
ENDBRANCH   8  46
TORSDOF 11
ENDMDL
MODEL 7
REMARK VINA RESULT:      -9.4      4.836      7.681
REMARK  Name = 44259533
REMARK  11 active torsions:
REMARK  status: ('A' for Active; 'I' for Inactive)
REMARK    1  A    between atoms: O_1  and  C_21
REMARK    2  A    between atoms: O_1  and  C_23
REMARK    3  A    between atoms: O_4  and  C_26
REMARK    4  A    between atoms: O_4  and  C_38
REMARK    5  A    between atoms: O_12  and  C_37
REMARK    6  A    between atoms: O_12  and  C_44
REMARK    7  A    between atoms: O_18  and  C_46
REMARK    8  A    between atoms: O_19  and  C_51
REMARK    9  A    between atoms: O_20  and  C_53
REMARK   10  A    between atoms: C_30  and  C_32
REMARK   11  A    between atoms: C_40  and  C_47
REMARK                            x       y       z     vdW  Elec       q    Type
REMARK                         _______ _______ _______ _____ _____    ______ ____
ROOT
ATOM      1  O   UNL     1     105.540 126.227 144.326  0.00  0.00    +0.000 OA
ATOM      2  O   UNL     1     107.250 127.178 145.844  0.00  0.00    +0.000 OA
ATOM      3  C   UNL     1     106.473 127.262 144.648  0.00  0.00    +0.000 A 
ATOM      4  C   UNL     1     105.903 126.945 144.142  0.00  0.00    +0.000 A 
ATOM      5  C   UNL     1     106.680 126.861 145.338  0.00  0.00    +0.000 A 
ATOM      6  C   UNL     1     106.317 126.143 145.523  0.00  0.00    +0.000 A 
ATOM      7  C   UNL     1     105.748 125.827 145.017  0.00  0.00    +0.000 A 
ATOM      8  C   UNL     1     105.574 124.657 145.916  0.00  0.00    +0.000 A 
ATOM      9  C   UNL     1     105.363 125.079 145.198  0.00  0.00    +0.000 A 
ATOM     10  C   UNL     1     106.542 125.735 146.245  0.00  0.00    +0.000 A 
ATOM     11  C   UNL     1     106.168 124.988 146.444  0.00  0.00    +0.000 A 
ENDROOT
BRANCH   4  12
ATOM     12  C   UNL     1     105.696 127.346 143.451  0.00  0.00    +0.000 A 
ATOM     13  C   UNL     1     106.140 127.239 142.763  0.00  0.00    +0.000 A 
ATOM     14  C   UNL     1     105.046 127.855 143.448  0.00  0.00    +0.000 A 
ATOM     15  C   UNL     1     105.934 127.640 142.073  0.00  0.00    +0.000 A 
ATOM     16  C   UNL     1     104.841 128.256 142.757  0.00  0.00    +0.000 A 
ATOM     17  C   UNL     1     105.284 128.149 142.070  0.00  0.00    +0.000 A 
BRANCH  15  18
ATOM     18  O   UNL     1     106.377 127.533 141.385  0.00  0.00    +0.000 OA
ATOM     19  C   UNL     1     106.991 126.981 141.372  0.00  0.00    +0.000 C 
ENDBRANCH  15  18
BRANCH  17  20
ATOM     20  O   UNL     1     105.078 128.550 141.378  0.00  0.00    +0.000 OA
ATOM     21  C   UNL     1     104.406 129.027 141.362  0.00  0.00    +0.000 C 
ENDBRANCH  17  20
ENDBRANCH   4  12
BRANCH  10  22
ATOM     22  O   UNL     1     107.113 126.060 146.746  0.00  0.00    +0.000 OA
ATOM     23  C   UNL     1     107.423 125.609 147.363  0.00  0.00    +0.000 C 
ENDBRANCH  10  22
BRANCH   3  24
ATOM     24  O   UNL     1     106.835 127.980 144.463  0.00  0.00    +0.000 OA
BRANCH  24  31
ATOM     25  O   UNL     1     106.121 128.744 145.437  0.00  0.00    +0.000 OA
ATOM     26  O   UNL     1     108.092 130.211 145.731  0.00  0.00    +0.000 OA
ATOM     27  O   UNL     1     106.721 130.486 146.607  0.00  0.00    +0.000 OA
ATOM     28  C   UNL     1     107.464 129.095 145.097  0.00  0.00    +0.000 C 
ATOM     29  C   UNL     1     107.435 129.722 145.633  0.00  0.00    +0.000 C 
ATOM     30  C   UNL     1     106.750 129.859 146.071  0.00  0.00    +0.000 C 
ATOM     31  C   UNL     1     106.807 128.606 144.999  0.00  0.00    +0.000 C 
ATOM     32  C   UNL     1     106.093 129.370 145.972  0.00  0.00    +0.000 C 
ATOM     33  C   UNL     1     105.407 129.508 146.411  0.00  0.00    +0.000 C 
BRANCH  28  34
ATOM     34  O   UNL     1     108.149 128.958 144.659  0.00  0.00    +0.000 OA
BRANCH  34  39
ATOM     35  O   UNL     1     107.765 129.977 143.734  0.00  0.00    +0.000 OA
ATOM     36  O   UNL     1     109.560 128.739 143.831  0.00  0.00    +0.000 OA
ATOM     37  O   UNL     1     109.881 129.648 142.492  0.00  0.00    +0.000 OA
ATOM     38  O   UNL     1     108.791 130.776 141.981  0.00  0.00    +0.000 OA
ATOM     39  C   UNL     1     108.310 129.413 143.990  0.00  0.00    +0.000 C 
ATOM     40  C   UNL     1     109.015 129.303 143.576  0.00  0.00    +0.000 C 
ATOM     41  C   UNL     1     109.176 129.757 142.906  0.00  0.00    +0.000 C 
ATOM     42  C   UNL     1     108.630 130.322 142.650  0.00  0.00    +0.000 C 
ATOM     43  C   UNL     1     107.925 130.431 143.065  0.00  0.00    +0.000 C 
BRANCH  43  45
ATOM     44  O   UNL     1     107.388 131.753 143.135  0.00  0.00    +0.000 OA
ATOM     45  C   UNL     1     107.380 130.996 142.808  0.00  0.00    +0.000 C 
ENDBRANCH  43  45
ENDBRANCH  34  39
ENDBRANCH  28  34
ENDBRANCH  24  31
ENDBRANCH   3  24
BRANCH   8  46
ATOM     46  O   UNL     1     105.210 123.940 146.099  0.00  0.00    +0.000 OA
BRANCH  46  55
ATOM     47  O   UNL     1     104.134 124.478 146.869  0.00  0.00    +0.000 OA
ATOM     48  O   UNL     1     102.605 122.779 145.921  0.00  0.00    +0.000 OA
ATOM     49  O   UNL     1     102.038 123.884 147.007  0.00  0.00    +0.000 OA
ATOM     50  O   UNL     1     104.191 122.807 145.467  0.00  0.00    +0.000 OA
ATOM     51  C   UNL     1     103.114 123.346 146.237  0.00  0.00    +0.000 C 
ATOM     52  C   UNL     1     102.831 123.898 146.780  0.00  0.00    +0.000 C 
ATOM     53  C   UNL     1     103.907 123.360 146.010  0.00  0.00    +0.000 C 
ATOM     54  C   UNL     1     103.341 124.465 147.096  0.00  0.00    +0.000 C 
ATOM     55  C   UNL     1     104.417 123.926 146.326  0.00  0.00    +0.000 C 
ATOM     56  C   UNL     1     103.057 125.017 147.640  0.00  0.00    +0.000 C 
ENDBRANCH  46  55
ENDBRANCH   8  46
TORSDOF 11
ENDMDL
MODEL 8
REMARK VINA RESULT:      -9.3      2.863      4.458
REMARK  Name = 44259533
REMARK  11 active torsions:
REMARK  status: ('A' for Active; 'I' for Inactive)
REMARK    1  A    between atoms: O_1  and  C_21
REMARK    2  A    between atoms: O_1  and  C_23
REMARK    3  A    between atoms: O_4  and  C_26
REMARK    4  A    between atoms: O_4  and  C_38
REMARK    5  A    between atoms: O_12  and  C_37
REMARK    6  A    between atoms: O_12  and  C_44
REMARK    7  A    between atoms: O_18  and  C_46
REMARK    8  A    between atoms: O_19  and  C_51
REMARK    9  A    between atoms: O_20  and  C_53
REMARK   10  A    between atoms: C_30  and  C_32
REMARK   11  A    between atoms: C_40  and  C_47
REMARK                            x       y       z     vdW  Elec       q    Type
REMARK                         _______ _______ _______ _____ _____    ______ ____
ROOT
ATOM      1  O   UNL     1     112.285 129.356 139.047  0.00  0.00    +0.000 OA
ATOM      2  O   UNL     1     111.657 127.042 139.662  0.00  0.00    +0.000 OA
ATOM      3  C   UNL     1     111.775 128.072 138.679  0.00  0.00    +0.000 A 
ATOM      4  C   UNL     1     111.984 128.844 138.474  0.00  0.00    +0.000 A 
ATOM      5  C   UNL     1     111.866 127.814 139.457  0.00  0.00    +0.000 A 
ATOM      6  C   UNL     1     112.167 128.326 140.030  0.00  0.00    +0.000 A 
ATOM      7  C   UNL     1     112.376 129.096 139.825  0.00  0.00    +0.000 A 
ATOM      8  C   UNL     1     112.788 129.376 141.224  0.00  0.00    +0.000 A 
ATOM      9  C   UNL     1     112.691 129.640 140.412  0.00  0.00    +0.000 A 
ATOM     10  C   UNL     1     112.257 128.044 140.837  0.00  0.00    +0.000 A 
ATOM     11  C   UNL     1     112.570 128.572 141.438  0.00  0.00    +0.000 A 
ENDROOT
BRANCH   4  12
ATOM     12  C   UNL     1     111.893 129.103 137.696  0.00  0.00    +0.000 A 
ATOM     13  C   UNL     1     112.532 129.075 137.175  0.00  0.00    +0.000 A 
ATOM     14  C   UNL     1     111.163 129.388 137.439  0.00  0.00    +0.000 A 
ATOM     15  C   UNL     1     112.441 129.334 136.397  0.00  0.00    +0.000 A 
ATOM     16  C   UNL     1     111.072 129.647 136.661  0.00  0.00    +0.000 A 
ATOM     17  C   UNL     1     111.711 129.619 136.140  0.00  0.00    +0.000 A 
BRANCH  15  18
ATOM     18  O   UNL     1     113.081 129.306 135.875  0.00  0.00    +0.000 OA
ATOM     19  C   UNL     1     113.850 129.393 136.161  0.00  0.00    +0.000 C 
ENDBRANCH  15  18
BRANCH  17  20
ATOM     20  O   UNL     1     111.621 129.878 135.361  0.00  0.00    +0.000 OA
ATOM     21  C   UNL     1     110.866 129.977 135.044  0.00  0.00    +0.000 C 
ENDBRANCH  17  20
ENDBRANCH   4  12
BRANCH  10  22
ATOM     22  O   UNL     1     112.045 127.271 141.033  0.00  0.00    +0.000 OA
ATOM     23  C   UNL     1     112.490 126.849 141.586  0.00  0.00    +0.000 C 
ENDBRANCH  10  22
BRANCH   3  24
ATOM     24  O   UNL     1     111.474 127.560 138.107  0.00  0.00    +0.000 OA
BRANCH  24  31
ATOM     25  O   UNL     1     112.652 126.756 138.017  0.00  0.00    +0.000 OA
ATOM     26  O   UNL     1     111.258 124.769 137.533  0.00  0.00    +0.000 OA
ATOM     27  O   UNL     1     112.900 124.627 137.605  0.00  0.00    +0.000 OA
ATOM     28  C   UNL     1     111.366 126.165 137.820  0.00  0.00    +0.000 C 
ATOM     29  C   UNL     1     111.722 125.431 137.694  0.00  0.00    +0.000 C 
ATOM     30  C   UNL     1     112.543 125.361 137.730  0.00  0.00    +0.000 C 
ATOM     31  C   UNL     1     111.830 126.827 137.981  0.00  0.00    +0.000 C 
ATOM     32  C   UNL     1     113.008 126.023 137.891  0.00  0.00    +0.000 C 
ATOM     33  C   UNL     1     113.829 125.951 137.927  0.00  0.00    +0.000 C 
BRANCH  28  34
ATOM     34  O   UNL     1     110.545 126.236 137.784  0.00  0.00    +0.000 OA
BRANCH  34  39
ATOM     35  O   UNL     1     110.584 126.170 136.358  0.00  0.00    +0.000 OA
ATOM     36  O   UNL     1     108.962 126.698 137.719  0.00  0.00    +0.000 OA
ATOM     37  O   UNL     1     108.210 126.864 136.260  0.00  0.00    +0.000 OA
ATOM     38  O   UNL     1     109.041 126.567 134.865  0.00  0.00    +0.000 OA
ATOM     39  C   UNL     1     110.169 126.318 137.054  0.00  0.00    +0.000 C 
ATOM     40  C   UNL     1     109.377 126.550 137.023  0.00  0.00    +0.000 C 
ATOM     41  C   UNL     1     109.001 126.633 136.293  0.00  0.00    +0.000 C 
ATOM     42  C   UNL     1     109.417 126.484 135.595  0.00  0.00    +0.000 C 
ATOM     43  C   UNL     1     110.208 126.253 135.628  0.00  0.00    +0.000 C 
BRANCH  43  45
ATOM     44  O   UNL     1     111.195 126.640 134.670  0.00  0.00    +0.000 OA
ATOM     45  C   UNL     1     110.623 126.105 134.930  0.00  0.00    +0.000 C 
ENDBRANCH  43  45
ENDBRANCH  34  39
ENDBRANCH  28  34
ENDBRANCH  24  31
ENDBRANCH   3  24
BRANCH   8  46
ATOM     46  O   UNL     1     113.089 129.890 141.795  0.00  0.00    +0.000 OA
BRANCH  46  55
ATOM     47  O   UNL     1     111.832 130.182 142.408  0.00  0.00    +0.000 OA
ATOM     48  O   UNL     1     112.589 132.494 142.863  0.00  0.00    +0.000 OA
ATOM     49  O   UNL     1     111.079 132.014 143.325  0.00  0.00    +0.000 OA
ATOM     50  O   UNL     1     113.593 131.431 142.098  0.00  0.00    +0.000 OA
ATOM     51  C   UNL     1     112.336 131.723 142.711  0.00  0.00    +0.000 C 
ATOM     52  C   UNL     1     111.581 131.483 142.942  0.00  0.00    +0.000 C 
ATOM     53  C   UNL     1     112.838 131.192 142.329  0.00  0.00    +0.000 C 
ATOM     54  C   UNL     1     111.328 130.713 142.791  0.00  0.00    +0.000 C 
ATOM     55  C   UNL     1     112.587 130.421 142.177  0.00  0.00    +0.000 C 
ATOM     56  C   UNL     1     110.574 130.473 143.022  0.00  0.00    +0.000 C 
ENDBRANCH  46  55
ENDBRANCH   8  46
TORSDOF 11
ENDMDL
MODEL 9
REMARK VINA RESULT:      -9.3      3.119      5.337
REMARK  Name = 44259533
REMARK  11 active torsions:
REMARK  status: ('A' for Active; 'I' for Inactive)
REMARK    1  A    between atoms: O_1  and  C_21
REMARK    2  A    between atoms: O_1  and  C_23
REMARK    3  A    between atoms: O_4  and  C_26
REMARK    4  A    between atoms: O_4  and  C_38
REMARK    5  A    between atoms: O_12  and  C_37
REMARK    6  A    between atoms: O_12  and  C_44
REMARK    7  A    between atoms: O_18  and  C_46
REMARK    8  A    between atoms: O_19  and  C_51
REMARK    9  A    between atoms: O_20  and  C_53
REMARK   10  A    between atoms: C_30  and  C_32
REMARK   11  A    between atoms: C_40  and  C_47
REMARK                            x       y       z     vdW  Elec       q    Type
REMARK                         _______ _______ _______ _____ _____    ______ ____
ROOT
ATOM      1  O   UNL     1     112.708 128.032 139.335  0.00  0.00    +0.000 OA
ATOM      2  O   UNL     1     111.502 129.659 137.911  0.00  0.00    +0.000 OA
ATOM      3  C   UNL     1     111.968 128.329 138.149  0.00  0.00    +0.000 A 
ATOM      4  C   UNL     1     112.370 127.786 138.624  0.00  0.00    +0.000 A 
ATOM      5  C   UNL     1     111.904 129.116 138.386  0.00  0.00    +0.000 A 
ATOM      6  C   UNL     1     112.242 129.361 139.098  0.00  0.00    +0.000 A 
ATOM      7  C   UNL     1     112.643 128.819 139.572  0.00  0.00    +0.000 A 
ATOM      8  C   UNL     1     112.936 129.881 140.568  0.00  0.00    +0.000 A 
ATOM      9  C   UNL     1     113.000 129.062 140.316  0.00  0.00    +0.000 A 
ATOM     10  C   UNL     1     112.168 130.185 139.333  0.00  0.00    +0.000 A 
ATOM     11  C   UNL     1     112.517 130.447 140.073  0.00  0.00    +0.000 A 
ENDROOT
BRANCH   4  12
ATOM     12  C   UNL     1     112.434 126.999 138.386  0.00  0.00    +0.000 A 
ATOM     13  C   UNL     1     111.807 126.477 138.515  0.00  0.00    +0.000 A 
ATOM     14  C   UNL     1     113.123 126.732 138.020  0.00  0.00    +0.000 A 
ATOM     15  C   UNL     1     111.870 125.690 138.278  0.00  0.00    +0.000 A 
ATOM     16  C   UNL     1     113.186 125.944 137.783  0.00  0.00    +0.000 A 
ATOM     17  C   UNL     1     112.560 125.424 137.912  0.00  0.00    +0.000 A 
BRANCH  15  18
ATOM     18  O   UNL     1     111.243 125.169 138.407  0.00  0.00    +0.000 OA
ATOM     19  C   UNL     1     110.599 125.403 138.866  0.00  0.00    +0.000 C 
ENDBRANCH  15  18
BRANCH  17  20
ATOM     20  O   UNL     1     112.623 124.636 137.674  0.00  0.00    +0.000 OA
ATOM     21  C   UNL     1     113.223 124.406 137.158  0.00  0.00    +0.000 C 
ENDBRANCH  17  20
ENDBRANCH   4  12
BRANCH  10  22
ATOM     22  O   UNL     1     111.765 130.720 138.852  0.00  0.00    +0.000 OA
ATOM     23  C   UNL     1     111.125 131.145 139.155  0.00  0.00    +0.000 C 
ENDBRANCH  10  22
BRANCH   3  24
ATOM     24  O   UNL     1     111.630 128.083 137.437  0.00  0.00    +0.000 OA
BRANCH  24  31
ATOM     25  O   UNL     1     112.634 128.616 136.570  0.00  0.00    +0.000 OA
ATOM     26  O   UNL     1     110.886 129.246 134.935  0.00  0.00    +0.000 OA
ATOM     27  O   UNL     1     112.472 129.569 134.613  0.00  0.00    +0.000 OA
ATOM     28  C   UNL     1     111.258 128.664 136.186  0.00  0.00    +0.000 C 
ATOM     29  C   UNL     1     111.469 129.036 135.480  0.00  0.00    +0.000 C 
ATOM     30  C   UNL     1     112.262 129.197 135.320  0.00  0.00    +0.000 C 
ATOM     31  C   UNL     1     111.841 128.454 136.732  0.00  0.00    +0.000 C 
ATOM     32  C   UNL     1     112.844 128.987 135.865  0.00  0.00    +0.000 C 
ATOM     33  C   UNL     1     113.637 129.149 135.703  0.00  0.00    +0.000 C 
BRANCH  28  34
ATOM     34  O   UNL     1     110.465 128.503 136.347  0.00  0.00    +0.000 OA
BRANCH  34  39
ATOM     35  O   UNL     1     110.528 127.352 135.504  0.00  0.00    +0.000 OA
ATOM     36  O   UNL     1     108.875 128.191 136.655  0.00  0.00    +0.000 OA
ATOM     37  O   UNL     1     108.142 126.883 135.966  0.00  0.00    +0.000 OA
ATOM     38  O   UNL     1     109.000 125.888 134.968  0.00  0.00    +0.000 OA
ATOM     39  C   UNL     1     110.099 127.849 136.002  0.00  0.00    +0.000 C 
ATOM     40  C   UNL     1     109.303 127.694 136.157  0.00  0.00    +0.000 C 
ATOM     41  C   UNL     1     108.937 127.040 135.812  0.00  0.00    +0.000 C 
ATOM     42  C   UNL     1     109.366 126.541 135.313  0.00  0.00    +0.000 C 
ATOM     43  C   UNL     1     110.161 126.698 135.159  0.00  0.00    +0.000 C 
BRANCH  43  45
ATOM     44  O   UNL     1     111.061 125.602 134.979  0.00  0.00    +0.000 OA
ATOM     45  C   UNL     1     110.590 126.200 134.660  0.00  0.00    +0.000 C 
ENDBRANCH  43  45
ENDBRANCH  34  39
ENDBRANCH  28  34
ENDBRANCH  24  31
ENDBRANCH   3  24
BRANCH   8  46
ATOM     46  O   UNL     1     113.275 130.124 141.280  0.00  0.00    +0.000 OA
BRANCH  46  55
ATOM     47  O   UNL     1     112.335 129.576 142.206  0.00  0.00    +0.000 OA
ATOM     48  O   UNL     1     112.337 131.704 143.469  0.00  0.00    +0.000 OA
ATOM     49  O   UNL     1     111.396 130.447 143.974  0.00  0.00    +0.000 OA
ATOM     50  O   UNL     1     113.276 131.542 142.122  0.00  0.00    +0.000 OA
ATOM     51  C   UNL     1     112.336 130.994 143.048  0.00  0.00    +0.000 C 
ATOM     52  C   UNL     1     111.866 130.366 143.301  0.00  0.00    +0.000 C 
ATOM     53  C   UNL     1     112.806 130.914 142.375  0.00  0.00    +0.000 C 
ATOM     54  C   UNL     1     111.865 129.656 142.880  0.00  0.00    +0.000 C 
ATOM     55  C   UNL     1     112.805 130.205 141.954  0.00  0.00    +0.000 C 
ATOM     56  C   UNL     1     111.394 129.027 143.133  0.00  0.00    +0.000 C 
ENDBRANCH  46  55
ENDBRANCH   8  46
TORSDOF 11
ENDMDL
MODEL 10
REMARK VINA RESULT:      -9.3      3.671      6.513
REMARK  Name = 44259533
REMARK  11 active torsions:
REMARK  status: ('A' for Active; 'I' for Inactive)
REMARK    1  A    between atoms: O_1  and  C_21
REMARK    2  A    between atoms: O_1  and  C_23
REMARK    3  A    between atoms: O_4  and  C_26
REMARK    4  A    between atoms: O_4  and  C_38
REMARK    5  A    between atoms: O_12  and  C_37
REMARK    6  A    between atoms: O_12  and  C_44
REMARK    7  A    between atoms: O_18  and  C_46
REMARK    8  A    between atoms: O_19  and  C_51
REMARK    9  A    between atoms: O_20  and  C_53
REMARK   10  A    between atoms: C_30  and  C_32
REMARK   11  A    between atoms: C_40  and  C_47
REMARK                            x       y       z     vdW  Elec       q    Type
REMARK                         _______ _______ _______ _____ _____    ______ ____
ROOT
ATOM      1  O   UNL     1     110.605 126.769 140.314  0.00  0.00    +0.000 OA
ATOM      2  O   UNL     1     109.811 129.021 139.659  0.00  0.00    +0.000 OA
ATOM      3  C   UNL     1     110.760 127.960 139.538  0.00  0.00    +0.000 A 
ATOM      4  C   UNL     1     111.025 127.208 139.756  0.00  0.00    +0.000 A 
ATOM      5  C   UNL     1     110.076 128.270 139.878  0.00  0.00    +0.000 A 
ATOM      6  C   UNL     1     109.656 127.830 140.435  0.00  0.00    +0.000 A 
ATOM      7  C   UNL     1     109.920 127.081 140.653  0.00  0.00    +0.000 A 
ATOM      8  C   UNL     1     108.778 126.931 141.590  0.00  0.00    +0.000 A 
ATOM      9  C   UNL     1     109.491 126.612 141.233  0.00  0.00    +0.000 A 
ATOM     10  C   UNL     1     108.944 128.166 140.782  0.00  0.00    +0.000 A 
ATOM     11  C   UNL     1     108.502 127.713 141.363  0.00  0.00    +0.000 A 
ENDROOT
BRANCH   4  12
ATOM     12  C   UNL     1     111.709 126.898 139.416  0.00  0.00    +0.000 A 
ATOM     13  C   UNL     1     112.449 127.095 139.726  0.00  0.00    +0.000 A 
ATOM     14  C   UNL     1     111.655 126.392 138.767  0.00  0.00    +0.000 A 
ATOM     15  C   UNL     1     113.133 126.784 139.387  0.00  0.00    +0.000 A 
ATOM     16  C   UNL     1     112.341 126.082 138.428  0.00  0.00    +0.000 A 
ATOM     17  C   UNL     1     113.079 126.278 138.737  0.00  0.00    +0.000 A 
BRANCH  15  18
ATOM     18  O   UNL     1     113.873 126.981 139.697  0.00  0.00    +0.000 OA
ATOM     19  C   UNL     1     113.929 127.325 140.444  0.00  0.00    +0.000 C 
ENDBRANCH  15  18
BRANCH  17  20
ATOM     20  O   UNL     1     113.765 125.968 138.398  0.00  0.00    +0.000 OA
ATOM     21  C   UNL     1     113.711 125.419 137.786  0.00  0.00    +0.000 C 
ENDBRANCH  17  20
ENDBRANCH   4  12
BRANCH  10  22
ATOM     22  O   UNL     1     108.687 128.917 140.557  0.00  0.00    +0.000 OA
ATOM     23  C   UNL     1     108.245 129.375 141.083  0.00  0.00    +0.000 C 
ENDBRANCH  10  22
BRANCH   3  24
ATOM     24  O   UNL     1     111.180 128.399 138.980  0.00  0.00    +0.000 OA
BRANCH  24  31
ATOM     25  O   UNL     1     110.258 128.209 137.906  0.00  0.00    +0.000 OA
ATOM     26  O   UNL     1     110.731 130.498 137.094  0.00  0.00    +0.000 OA
ATOM     27  O   UNL     1     109.651 129.545 136.290  0.00  0.00    +0.000 OA
ATOM     28  C   UNL     1     110.956 129.448 138.038  0.00  0.00    +0.000 C 
ATOM     29  C   UNL     1     110.573 129.735 137.364  0.00  0.00    +0.000 C 
ATOM     30  C   UNL     1     110.033 129.258 136.963  0.00  0.00    +0.000 C 
ATOM     31  C   UNL     1     110.798 128.685 138.308  0.00  0.00    +0.000 C 
ATOM     32  C   UNL     1     109.875 128.495 137.234  0.00  0.00    +0.000 C 
ATOM     33  C   UNL     1     109.335 128.019 136.831  0.00  0.00    +0.000 C 
BRANCH  28  34
ATOM     34  O   UNL     1     111.496 129.925 138.439  0.00  0.00    +0.000 OA
BRANCH  34  39
ATOM     35  O   UNL     1     112.481 129.655 137.440  0.00  0.00    +0.000 OA
ATOM     36  O   UNL     1     112.599 130.815 139.285  0.00  0.00    +0.000 OA
ATOM     37  O   UNL     1     114.135 130.989 138.709  0.00  0.00    +0.000 OA
ATOM     38  O   UNL     1     114.568 130.274 137.286  0.00  0.00    +0.000 OA
ATOM     39  C   UNL     1     112.264 130.013 138.151  0.00  0.00    +0.000 C 
ATOM     40  C   UNL     1     112.815 130.457 138.574  0.00  0.00    +0.000 C 
ATOM     41  C   UNL     1     113.583 130.545 138.286  0.00  0.00    +0.000 C 
ATOM     42  C   UNL     1     113.800 130.187 137.574  0.00  0.00    +0.000 C 
ATOM     43  C   UNL     1     113.249 129.743 137.152  0.00  0.00    +0.000 C 
BRANCH  43  45
ATOM     44  O   UNL     1     113.564 128.567 136.403  0.00  0.00    +0.000 OA
ATOM     45  C   UNL     1     113.466 129.385 136.440  0.00  0.00    +0.000 C 
ENDBRANCH  43  45
ENDBRANCH  34  39
ENDBRANCH  28  34
ENDBRANCH  24  31
ENDBRANCH   3  24
BRANCH   8  46
ATOM     46  O   UNL     1     108.359 126.489 142.148  0.00  0.00    +0.000 OA
BRANCH  46  55
ATOM     47  O   UNL     1     107.595 125.739 141.201  0.00  0.00    +0.000 OA
ATOM     48  O   UNL     1     105.669 125.739 142.755  0.00  0.00    +0.000 OA
ATOM     49  O   UNL     1     105.547 124.989 141.290  0.00  0.00    +0.000 OA
ATOM     50  O   UNL     1     107.075 126.489 143.183  0.00  0.00    +0.000 OA
ATOM     51  C   UNL     1     106.311 125.739 142.237  0.00  0.00    +0.000 C 
ATOM     52  C   UNL     1     106.250 125.364 141.505  0.00  0.00    +0.000 C 
ATOM     53  C   UNL     1     107.014 126.114 142.451  0.00  0.00    +0.000 C 
ATOM     54  C   UNL     1     106.892 125.364 140.986  0.00  0.00    +0.000 C 
ATOM     55  C   UNL     1     107.656 126.114 141.934  0.00  0.00    +0.000 C 
ATOM     56  C   UNL     1     106.831 124.989 140.254  0.00  0.00    +0.000 C 
ENDBRANCH  46  55
ENDBRANCH   8  46
TORSDOF 11
ENDMDL
