MODEL 1
REMARK VINA RESULT:      -9.6      0.000      0.000
REMARK  Name = 42607942
REMARK  5 active torsions:
REMARK  status: ('A' for Active; 'I' for Inactive)
REMARK    1  A    between atoms: O_2  and  C_15
REMARK    2  A    between atoms: O_2  and  C_17
REMARK    3  A    between atoms: O_10  and  C_33
REMARK    4  A    between atoms: C_14  and  C_16
REMARK    5  A    between atoms: C_21  and  C_26
REMARK                            x       y       z     vdW  Elec       q    Type
REMARK                         _______ _______ _______ _____ _____    ______ ____
ROOT
ATOM      1  O   UNL     1     103.014 130.390 142.084  0.00  0.00    +0.000 OA
ATOM      2  O   UNL     1     103.663 128.196 140.311  0.00  0.00    +0.000 OA
ATOM      3  O   UNL     1     102.702 129.183 139.880  0.00  0.00    +0.000 OA
ATOM      4  C   UNL     1     104.396 128.678 142.310  0.00  0.00    +0.000 A 
ATOM      5  C   UNL     1     103.973 129.370 142.468  0.00  0.00    +0.000 A 
ATOM      6  C   UNL     1     103.447 129.669 141.907  0.00  0.00    +0.000 A 
ATOM      7  C   UNL     1     103.344 129.278 141.188  0.00  0.00    +0.000 A 
ATOM      8  C   UNL     1     102.465 130.707 141.504  0.00  0.00    +0.000 C 
ATOM      9  C   UNL     1     104.292 128.288 141.591  0.00  0.00    +0.000 A 
ATOM     10  C   UNL     1     102.357 130.299 140.755  0.00  0.00    +0.000 C 
ATOM     11  C   UNL     1     103.766 128.588 141.030  0.00  0.00    +0.000 A 
ATOM     12  C   UNL     1     102.799 129.580 140.596  0.00  0.00    +0.000 C 
ATOM     13  C   UNL     1     104.077 129.760 143.187  0.00  0.00    +0.000 C 
ATOM     14  C   UNL     1     104.715 127.596 141.432  0.00  0.00    +0.000 C 
ENDROOT
BRANCH   8  15
ATOM     15  C   UNL     1     102.044 131.398 141.665  0.00  0.00    +0.000 A 
ATOM     16  C   UNL     1     102.386 132.133 141.517  0.00  0.00    +0.000 A 
ATOM     17  C   UNL     1     101.280 131.353 141.975  0.00  0.00    +0.000 A 
ATOM     18  C   UNL     1     101.965 132.824 141.678  0.00  0.00    +0.000 A 
ATOM     19  C   UNL     1     100.859 132.044 142.136  0.00  0.00    +0.000 A 
ATOM     20  C   UNL     1     101.202 132.780 141.987  0.00  0.00    +0.000 A 
BRANCH  20  21
ATOM     21  O   UNL     1     100.780 133.470 142.149  0.00  0.00    +0.000 OA
ATOM     22  C   UNL     1     100.795 134.097 141.613  0.00  0.00    +0.000 C 
ENDBRANCH  20  21
ENDBRANCH   8  15
BRANCH   4  23
ATOM     23  O   UNL     1     104.922 128.379 142.870  0.00  0.00    +0.000 OA
BRANCH  23  32
ATOM     24  O   UNL     1     105.970 129.184 142.329  0.00  0.00    +0.000 OA
ATOM     25  O   UNL     1     107.606 128.038 143.790  0.00  0.00    +0.000 OA
ATOM     26  O   UNL     1     108.109 129.225 142.762  0.00  0.00    +0.000 OA
ATOM     27  O   UNL     1     106.012 127.614 143.845  0.00  0.00    +0.000 OA
ATOM     28  C   UNL     1     107.061 128.420 143.303  0.00  0.00    +0.000 C 
ATOM     29  C   UNL     1     107.312 129.014 142.788  0.00  0.00    +0.000 C 
ATOM     30  C   UNL     1     106.263 128.208 143.330  0.00  0.00    +0.000 C 
ATOM     31  C   UNL     1     106.767 129.396 142.301  0.00  0.00    +0.000 C 
ATOM     32  C   UNL     1     105.718 128.590 142.843  0.00  0.00    +0.000 C 
BRANCH  31  34
ATOM     33  O   UNL     1     107.095 129.833 140.981  0.00  0.00    +0.000 OA
ATOM     34  C   UNL     1     107.018 129.990 141.787  0.00  0.00    +0.000 C 
ENDBRANCH  31  34
ENDBRANCH  23  32
ENDBRANCH   4  23
TORSDOF 5
ENDMDL
MODEL 2
REMARK VINA RESULT:      -9.3      1.238      5.098
REMARK  Name = 42607942
REMARK  5 active torsions:
REMARK  status: ('A' for Active; 'I' for Inactive)
REMARK    1  A    between atoms: O_2  and  C_15
REMARK    2  A    between atoms: O_2  and  C_17
REMARK    3  A    between atoms: O_10  and  C_33
REMARK    4  A    between atoms: C_14  and  C_16
REMARK    5  A    between atoms: C_21  and  C_26
REMARK                            x       y       z     vdW  Elec       q    Type
REMARK                         _______ _______ _______ _____ _____    ______ ____
ROOT
ATOM      1  O   UNL     1     104.407 129.144 142.861  0.00  0.00    +0.000 OA
ATOM      2  O   UNL     1     103.287 128.632 140.240  0.00  0.00    +0.000 OA
ATOM      3  O   UNL     1     104.368 127.801 140.714  0.00  0.00    +0.000 OA
ATOM      4  C   UNL     1     102.778 130.135 141.739  0.00  0.00    +0.000 A 
ATOM      5  C   UNL     1     103.319 129.950 142.335  0.00  0.00    +0.000 A 
ATOM      6  C   UNL     1     103.849 129.326 142.233  0.00  0.00    +0.000 A 
ATOM      7  C   UNL     1     103.838 128.887 141.534  0.00  0.00    +0.000 A 
ATOM      8  C   UNL     1     104.961 128.496 142.759  0.00  0.00    +0.000 C 
ATOM      9  C   UNL     1     102.768 129.695 141.042  0.00  0.00    +0.000 A 
ATOM     10  C   UNL     1     104.950 128.038 142.032  0.00  0.00    +0.000 C 
ATOM     11  C   UNL     1     103.298 129.071 140.939  0.00  0.00    +0.000 A 
ATOM     12  C   UNL     1     104.385 128.235 141.415  0.00  0.00    +0.000 C 
ATOM     13  C   UNL     1     103.329 130.390 143.033  0.00  0.00    +0.000 C 
ATOM     14  C   UNL     1     102.227 129.880 140.446  0.00  0.00    +0.000 C 
ENDROOT
BRANCH   8  15
ATOM     15  C   UNL     1     105.500 128.313 143.356  0.00  0.00    +0.000 A 
ATOM     16  C   UNL     1     105.292 127.781 143.952  0.00  0.00    +0.000 A 
ATOM     17  C   UNL     1     106.247 128.663 143.358  0.00  0.00    +0.000 A 
ATOM     18  C   UNL     1     105.832 127.599 144.549  0.00  0.00    +0.000 A 
ATOM     19  C   UNL     1     106.787 128.481 143.955  0.00  0.00    +0.000 A 
ATOM     20  C   UNL     1     106.579 127.949 144.551  0.00  0.00    +0.000 A 
BRANCH  20  21
ATOM     21  O   UNL     1     107.118 127.767 145.147  0.00  0.00    +0.000 OA
ATOM     22  C   UNL     1     107.096 128.177 145.863  0.00  0.00    +0.000 C 
ENDBRANCH  20  21
ENDBRANCH   8  15
BRANCH   4  23
ATOM     23  O   UNL     1     102.248 130.759 141.842  0.00  0.00    +0.000 OA
BRANCH  23  32
ATOM     24  O   UNL     1     103.208 131.664 141.292  0.00  0.00    +0.000 OA
ATOM     25  O   UNL     1     101.618 133.536 141.599  0.00  0.00    +0.000 OA
ATOM     26  O   UNL     1     103.106 133.817 140.947  0.00  0.00    +0.000 OA
ATOM     27  O   UNL     1     101.188 132.007 142.047  0.00  0.00    +0.000 OA
ATOM     28  C   UNL     1     102.148 132.912 141.497  0.00  0.00    +0.000 C 
ATOM     29  C   UNL     1     102.892 133.052 141.171  0.00  0.00    +0.000 C 
ATOM     30  C   UNL     1     101.933 132.147 141.721  0.00  0.00    +0.000 C 
ATOM     31  C   UNL     1     103.422 132.428 141.068  0.00  0.00    +0.000 C 
ATOM     32  C   UNL     1     102.463 131.523 141.618  0.00  0.00    +0.000 C 
BRANCH  31  34
ATOM     33  O   UNL     1     104.326 132.343 139.965  0.00  0.00    +0.000 OA
ATOM     34  C   UNL     1     104.166 132.569 140.742  0.00  0.00    +0.000 C 
ENDBRANCH  31  34
ENDBRANCH  23  32
ENDBRANCH   4  23
TORSDOF 5
ENDMDL
MODEL 3
REMARK VINA RESULT:      -9.2      6.348      9.279
REMARK  Name = 42607942
REMARK  5 active torsions:
REMARK  status: ('A' for Active; 'I' for Inactive)
REMARK    1  A    between atoms: O_2  and  C_15
REMARK    2  A    between atoms: O_2  and  C_17
REMARK    3  A    between atoms: O_10  and  C_33
REMARK    4  A    between atoms: C_14  and  C_16
REMARK    5  A    between atoms: C_21  and  C_26
REMARK                            x       y       z     vdW  Elec       q    Type
REMARK                         _______ _______ _______ _____ _____    ______ ____
ROOT
ATOM      1  O   UNL     1     110.493 127.472 136.646  0.00  0.00    +0.000 OA
ATOM      2  O   UNL     1     108.025 128.716 135.783  0.00  0.00    +0.000 OA
ATOM      3  O   UNL     1     108.130 127.277 135.757  0.00  0.00    +0.000 OA
ATOM      4  C   UNL     1     109.884 129.595 136.516  0.00  0.00    +0.000 A 
ATOM      5  C   UNL     1     110.334 128.916 136.653  0.00  0.00    +0.000 A 
ATOM      6  C   UNL     1     110.014 128.171 136.499  0.00  0.00    +0.000 A 
ATOM      7  C   UNL     1     109.244 128.105 136.210  0.00  0.00    +0.000 A 
ATOM      8  C   UNL     1     110.165 126.694 136.489  0.00  0.00    +0.000 C 
ATOM      9  C   UNL     1     109.115 129.527 136.226  0.00  0.00    +0.000 A 
ATOM     10  C   UNL     1     109.363 126.624 136.187  0.00  0.00    +0.000 C 
ATOM     11  C   UNL     1     108.795 128.782 136.073  0.00  0.00    +0.000 A 
ATOM     12  C   UNL     1     108.900 127.334 136.046  0.00  0.00    +0.000 C 
ATOM     13  C   UNL     1     111.104 128.983 136.942  0.00  0.00    +0.000 C 
ATOM     14  C   UNL     1     108.665 130.206 136.089  0.00  0.00    +0.000 C 
ENDROOT
BRANCH   8  15
ATOM     15  C   UNL     1     110.617 126.018 136.626  0.00  0.00    +0.000 A 
ATOM     16  C   UNL     1     110.959 125.614 135.993  0.00  0.00    +0.000 A 
ATOM     17  C   UNL     1     110.726 125.744 137.397  0.00  0.00    +0.000 A 
ATOM     18  C   UNL     1     111.411 124.938 136.131  0.00  0.00    +0.000 A 
ATOM     19  C   UNL     1     111.178 125.068 137.535  0.00  0.00    +0.000 A 
ATOM     20  C   UNL     1     111.520 124.665 136.902  0.00  0.00    +0.000 A 
BRANCH  20  21
ATOM     21  O   UNL     1     111.972 123.988 137.040  0.00  0.00    +0.000 OA
ATOM     22  C   UNL     1     112.769 123.974 136.828  0.00  0.00    +0.000 C 
ENDBRANCH  20  21
ENDBRANCH   8  15
BRANCH   4  23
ATOM     23  O   UNL     1     110.204 130.339 136.669  0.00  0.00    +0.000 OA
BRANCH  23  32
ATOM     24  O   UNL     1     109.753 130.260 138.022  0.00  0.00    +0.000 OA
ATOM     25  O   UNL     1     110.494 132.590 138.406  0.00  0.00    +0.000 OA
ATOM     26  O   UNL     1     109.796 131.734 139.631  0.00  0.00    +0.000 OA
ATOM     27  O   UNL     1     110.699 131.893 136.925  0.00  0.00    +0.000 OA
ATOM     28  C   UNL     1     110.247 131.813 138.278  0.00  0.00    +0.000 C 
ATOM     29  C   UNL     1     109.898 131.385 138.890  0.00  0.00    +0.000 C 
ATOM     30  C   UNL     1     110.349 131.464 137.537  0.00  0.00    +0.000 C 
ATOM     31  C   UNL     1     109.651 130.608 138.762  0.00  0.00    +0.000 C 
ATOM     32  C   UNL     1     110.102 130.688 137.409  0.00  0.00    +0.000 C 
BRANCH  31  34
ATOM     33  O   UNL     1     108.485 130.062 139.383  0.00  0.00    +0.000 OA
ATOM     34  C   UNL     1     109.302 130.180 139.375  0.00  0.00    +0.000 C 
ENDBRANCH  31  34
ENDBRANCH  23  32
ENDBRANCH   4  23
TORSDOF 5
ENDMDL
MODEL 4
REMARK VINA RESULT:      -9.1      8.849     10.271
REMARK  Name = 42607942
REMARK  5 active torsions:
REMARK  status: ('A' for Active; 'I' for Inactive)
REMARK    1  A    between atoms: O_2  and  C_15
REMARK    2  A    between atoms: O_2  and  C_17
REMARK    3  A    between atoms: O_10  and  C_33
REMARK    4  A    between atoms: C_14  and  C_16
REMARK    5  A    between atoms: C_21  and  C_26
REMARK                            x       y       z     vdW  Elec       q    Type
REMARK                         _______ _______ _______ _____ _____    ______ ____
ROOT
ATOM      1  O   UNL     1     112.200 126.428 138.142  0.00  0.00    +0.000 OA
ATOM      2  O   UNL     1     114.819 126.160 139.345  0.00  0.00    +0.000 OA
ATOM      3  O   UNL     1     114.575 125.554 138.058  0.00  0.00    +0.000 OA
ATOM      4  C   UNL     1     113.020 127.170 140.057  0.00  0.00    +0.000 A 
ATOM      5  C   UNL     1     112.499 127.018 139.435  0.00  0.00    +0.000 A 
ATOM      6  C   UNL     1     112.752 126.580 138.783  0.00  0.00    +0.000 A 
ATOM      7  C   UNL     1     113.525 126.294 138.753  0.00  0.00    +0.000 A 
ATOM      8  C   UNL     1     112.457 125.973 137.461  0.00  0.00    +0.000 C 
ATOM      9  C   UNL     1     113.793 126.884 140.026  0.00  0.00    +0.000 A 
ATOM     10  C   UNL     1     113.263 125.675 137.429  0.00  0.00    +0.000 C 
ATOM     11  C   UNL     1     114.046 126.446 139.374  0.00  0.00    +0.000 A 
ATOM     12  C   UNL     1     113.801 125.836 138.079  0.00  0.00    +0.000 C 
ATOM     13  C   UNL     1     111.726 127.304 139.465  0.00  0.00    +0.000 C 
ATOM     14  C   UNL     1     114.314 127.036 140.648  0.00  0.00    +0.000 C 
ENDROOT
BRANCH   8  15
ATOM     15  C   UNL     1     111.935 125.822 136.840  0.00  0.00    +0.000 A 
ATOM     16  C   UNL     1     111.524 125.107 136.811  0.00  0.00    +0.000 A 
ATOM     17  C   UNL     1     111.822 126.386 136.249  0.00  0.00    +0.000 A 
ATOM     18  C   UNL     1     111.002 124.956 136.191  0.00  0.00    +0.000 A 
ATOM     19  C   UNL     1     111.300 126.236 135.629  0.00  0.00    +0.000 A 
ATOM     20  C   UNL     1     110.889 125.520 135.600  0.00  0.00    +0.000 A 
BRANCH  20  21
ATOM     21  O   UNL     1     110.367 125.371 134.979  0.00  0.00    +0.000 OA
ATOM     22  C   UNL     1     109.763 125.906 134.810  0.00  0.00    +0.000 C 
ENDBRANCH  20  21
ENDBRANCH   8  15
BRANCH   4  23
ATOM     23  O   UNL     1     112.767 127.608 140.709  0.00  0.00    +0.000 OA
BRANCH  23  32
ATOM     24  O   UNL     1     113.223 128.809 140.083  0.00  0.00    +0.000 OA
ATOM     25  O   UNL     1     112.668 130.087 142.129  0.00  0.00    +0.000 OA
ATOM     26  O   UNL     1     113.309 130.861 140.821  0.00  0.00    +0.000 OA
ATOM     27  O   UNL     1     112.397 128.460 142.073  0.00  0.00    +0.000 OA
ATOM     28  C   UNL     1     112.853 129.661 141.447  0.00  0.00    +0.000 C 
ATOM     29  C   UNL     1     113.174 130.048 140.793  0.00  0.00    +0.000 C 
ATOM     30  C   UNL     1     112.717 128.847 141.419  0.00  0.00    +0.000 C 
ATOM     31  C   UNL     1     113.359 129.622 140.111  0.00  0.00    +0.000 C 
ATOM     32  C   UNL     1     112.903 128.421 140.737  0.00  0.00    +0.000 C 
BRANCH  31  34
ATOM     33  O   UNL     1     113.210 130.162 138.796  0.00  0.00    +0.000 OA
ATOM     34  C   UNL     1     113.679 130.009 139.457  0.00  0.00    +0.000 C 
ENDBRANCH  31  34
ENDBRANCH  23  32
ENDBRANCH   4  23
TORSDOF 5
ENDMDL
MODEL 5
REMARK VINA RESULT:      -9.0      8.080      9.387
REMARK  Name = 42607942
REMARK  5 active torsions:
REMARK  status: ('A' for Active; 'I' for Inactive)
REMARK    1  A    between atoms: O_2  and  C_15
REMARK    2  A    between atoms: O_2  and  C_17
REMARK    3  A    between atoms: O_10  and  C_33
REMARK    4  A    between atoms: C_14  and  C_16
REMARK    5  A    between atoms: C_21  and  C_26
REMARK                            x       y       z     vdW  Elec       q    Type
REMARK                         _______ _______ _______ _____ _____    ______ ____
ROOT
ATOM      1  O   UNL     1     110.681 128.100 135.774  0.00  0.00    +0.000 OA
ATOM      2  O   UNL     1     110.393 125.249 135.358  0.00  0.00    +0.000 OA
ATOM      3  O   UNL     1     109.357 126.135 134.880  0.00  0.00    +0.000 OA
ATOM      4  C   UNL     1     111.981 126.396 136.320  0.00  0.00    +0.000 A 
ATOM      5  C   UNL     1     111.692 127.165 136.235  0.00  0.00    +0.000 A 
ATOM      6  C   UNL     1     110.971 127.295 135.857  0.00  0.00    +0.000 A 
ATOM      7  C   UNL     1     110.538 126.656 135.565  0.00  0.00    +0.000 A 
ATOM      8  C   UNL     1     109.930 128.241 135.382  0.00  0.00    +0.000 C 
ATOM      9  C   UNL     1     111.547 125.758 136.028  0.00  0.00    +0.000 A 
ATOM     10  C   UNL     1     109.478 127.576 135.077  0.00  0.00    +0.000 C 
ATOM     11  C   UNL     1     110.826 125.888 135.650  0.00  0.00    +0.000 A 
ATOM     12  C   UNL     1     109.784 126.779 135.169  0.00  0.00    +0.000 C 
ATOM     13  C   UNL     1     112.126 127.802 136.527  0.00  0.00    +0.000 C 
ATOM     14  C   UNL     1     111.836 124.989 136.114  0.00  0.00    +0.000 C 
ENDROOT
BRANCH   8  15
ATOM     15  C   UNL     1     109.644 129.010 135.298  0.00  0.00    +0.000 A 
ATOM     16  C   UNL     1     109.064 129.293 135.812  0.00  0.00    +0.000 A 
ATOM     17  C   UNL     1     109.938 129.497 134.700  0.00  0.00    +0.000 A 
ATOM     18  C   UNL     1     108.778 130.062 135.728  0.00  0.00    +0.000 A 
ATOM     19  C   UNL     1     109.652 130.266 134.616  0.00  0.00    +0.000 A 
ATOM     20  C   UNL     1     109.072 130.549 135.130  0.00  0.00    +0.000 A 
BRANCH  20  21
ATOM     21  O   UNL     1     108.787 131.318 135.045  0.00  0.00    +0.000 OA
ATOM     22  C   UNL     1     109.203 131.951 135.371  0.00  0.00    +0.000 C 
ENDBRANCH  20  21
ENDBRANCH   8  15
BRANCH   4  23
ATOM     23  O   UNL     1     112.703 126.266 136.698  0.00  0.00    +0.000 OA
BRANCH  23  32
ATOM     24  O   UNL     1     112.046 126.249 137.967  0.00  0.00    +0.000 OA
ATOM     25  O   UNL     1     114.243 126.206 139.105  0.00  0.00    +0.000 OA
ATOM     26  O   UNL     1     112.853 126.204 139.993  0.00  0.00    +0.000 OA
ATOM     27  O   UNL     1     114.168 126.237 137.457  0.00  0.00    +0.000 OA
ATOM     28  C   UNL     1     113.510 126.220 138.726  0.00  0.00    +0.000 C 
ATOM     29  C   UNL     1     112.815 126.219 139.170  0.00  0.00    +0.000 C 
ATOM     30  C   UNL     1     113.473 126.236 137.901  0.00  0.00    +0.000 C 
ATOM     31  C   UNL     1     112.083 126.234 138.790  0.00  0.00    +0.000 C 
ATOM     32  C   UNL     1     112.740 126.250 137.522  0.00  0.00    +0.000 C 
BRANCH  31  34
ATOM     33  O   UNL     1     110.950 125.538 139.314  0.00  0.00    +0.000 OA
ATOM     34  C   UNL     1     111.388 126.233 139.235  0.00  0.00    +0.000 C 
ENDBRANCH  31  34
ENDBRANCH  23  32
ENDBRANCH   4  23
TORSDOF 5
ENDMDL
MODEL 6
REMARK VINA RESULT:      -8.9      8.116     10.701
REMARK  Name = 42607942
REMARK  5 active torsions:
REMARK  status: ('A' for Active; 'I' for Inactive)
REMARK    1  A    between atoms: O_2  and  C_15
REMARK    2  A    between atoms: O_2  and  C_17
REMARK    3  A    between atoms: O_10  and  C_33
REMARK    4  A    between atoms: C_14  and  C_16
REMARK    5  A    between atoms: C_21  and  C_26
REMARK                            x       y       z     vdW  Elec       q    Type
REMARK                         _______ _______ _______ _____ _____    ______ ____
ROOT
ATOM      1  O   UNL     1     112.610 128.248 135.518  0.00  0.00    +0.000 OA
ATOM      2  O   UNL     1     109.787 128.288 134.878  0.00  0.00    +0.000 OA
ATOM      3  O   UNL     1     110.581 129.464 134.612  0.00  0.00    +0.000 OA
ATOM      4  C   UNL     1     111.030 126.717 135.744  0.00  0.00    +0.000 A 
ATOM      5  C   UNL     1     111.765 127.093 135.765  0.00  0.00    +0.000 A 
ATOM      6  C   UNL     1     111.840 127.867 135.490  0.00  0.00    +0.000 A 
ATOM      7  C   UNL     1     111.180 128.266 135.195  0.00  0.00    +0.000 A 
ATOM      8  C   UNL     1     112.694 129.054 135.233  0.00  0.00    +0.000 C 
ATOM      9  C   UNL     1     110.372 127.116 135.448  0.00  0.00    +0.000 A 
ATOM     10  C   UNL     1     112.008 129.470 134.926  0.00  0.00    +0.000 C 
ATOM     11  C   UNL     1     110.447 127.890 135.174  0.00  0.00    +0.000 A 
ATOM     12  C   UNL     1     111.246 129.073 134.906  0.00  0.00    +0.000 C 
ATOM     13  C   UNL     1     112.424 126.694 136.060  0.00  0.00    +0.000 C 
ATOM     14  C   UNL     1     109.637 126.739 135.427  0.00  0.00    +0.000 C 
ENDROOT
BRANCH   8  15
ATOM     15  C   UNL     1     113.429 129.428 135.256  0.00  0.00    +0.000 A 
ATOM     16  C   UNL     1     113.644 129.876 135.914  0.00  0.00    +0.000 A 
ATOM     17  C   UNL     1     113.950 129.353 134.620  0.00  0.00    +0.000 A 
ATOM     18  C   UNL     1     114.380 130.250 135.936  0.00  0.00    +0.000 A 
ATOM     19  C   UNL     1     114.685 129.726 134.643  0.00  0.00    +0.000 A 
ATOM     20  C   UNL     1     114.900 130.175 135.301  0.00  0.00    +0.000 A 
BRANCH  20  21
ATOM     21  O   UNL     1     115.635 130.548 135.322  0.00  0.00    +0.000 OA
ATOM     22  C   UNL     1     115.710 131.328 135.063  0.00  0.00    +0.000 C 
ENDBRANCH  20  21
ENDBRANCH   8  15
BRANCH   4  23
ATOM     23  O   UNL     1     110.955 125.942 136.018  0.00  0.00    +0.000 OA
BRANCH  23  32
ATOM     24  O   UNL     1     110.572 126.353 137.332  0.00  0.00    +0.000 OA
ATOM     25  O   UNL     1     111.455 124.232 138.253  0.00  0.00    +0.000 OA
ATOM     26  O   UNL     1     110.777 125.350 139.259  0.00  0.00    +0.000 OA
ATOM     27  O   UNL     1     111.544 124.528 136.632  0.00  0.00    +0.000 OA
ATOM     28  C   UNL     1     111.160 124.939 137.946  0.00  0.00    +0.000 C 
ATOM     29  C   UNL     1     110.822 125.499 138.449  0.00  0.00    +0.000 C 
ATOM     30  C   UNL     1     111.205 125.088 137.135  0.00  0.00    +0.000 C 
ATOM     31  C   UNL     1     110.528 126.206 138.142  0.00  0.00    +0.000 C 
ATOM     32  C   UNL     1     110.911 125.795 136.828  0.00  0.00    +0.000 C 
BRANCH  31  34
ATOM     33  O   UNL     1     109.393 126.964 138.564  0.00  0.00    +0.000 OA
ATOM     34  C   UNL     1     110.189 126.764 138.645  0.00  0.00    +0.000 C 
ENDBRANCH  31  34
ENDBRANCH  23  32
ENDBRANCH   4  23
TORSDOF 5
ENDMDL
MODEL 7
REMARK VINA RESULT:      -8.8      6.987     10.031
REMARK  Name = 42607942
REMARK  5 active torsions:
REMARK  status: ('A' for Active; 'I' for Inactive)
REMARK    1  A    between atoms: O_2  and  C_15
REMARK    2  A    between atoms: O_2  and  C_17
REMARK    3  A    between atoms: O_10  and  C_33
REMARK    4  A    between atoms: C_14  and  C_16
REMARK    5  A    between atoms: C_21  and  C_26
REMARK                            x       y       z     vdW  Elec       q    Type
REMARK                         _______ _______ _______ _____ _____    ______ ____
ROOT
ATOM      1  O   UNL     1     110.416 127.309 135.981  0.00  0.00    +0.000 OA
ATOM      2  O   UNL     1     111.502 129.649 134.668  0.00  0.00    +0.000 OA
ATOM      3  O   UNL     1     112.368 128.522 134.918  0.00  0.00    +0.000 OA
ATOM      4  C   UNL     1     109.490 129.232 135.403  0.00  0.00    +0.000 A 
ATOM      5  C   UNL     1     109.589 128.471 135.706  0.00  0.00    +0.000 A 
ATOM      6  C   UNL     1     110.326 128.102 135.662  0.00  0.00    +0.000 A 
ATOM      7  C   UNL     1     110.963 128.495 135.316  0.00  0.00    +0.000 A 
ATOM      8  C   UNL     1     111.181 126.921 135.939  0.00  0.00    +0.000 C 
ATOM      9  C   UNL     1     110.128 129.624 135.057  0.00  0.00    +0.000 A 
ATOM     10  C   UNL     1     111.845 127.329 135.579  0.00  0.00    +0.000 C 
ATOM     11  C   UNL     1     110.865 129.256 135.014  0.00  0.00    +0.000 A 
ATOM     12  C   UNL     1     111.736 128.122 135.266  0.00  0.00    +0.000 C 
ATOM     13  C   UNL     1     108.951 128.079 136.051  0.00  0.00    +0.000 C 
ATOM     14  C   UNL     1     110.029 130.386 134.755  0.00  0.00    +0.000 C 
ENDROOT
BRANCH   8  15
ATOM     15  C   UNL     1     111.277 126.159 136.242  0.00  0.00    +0.000 A 
ATOM     16  C   UNL     1     111.080 125.504 135.782  0.00  0.00    +0.000 A 
ATOM     17  C   UNL     1     111.570 126.054 137.006  0.00  0.00    +0.000 A 
ATOM     18  C   UNL     1     111.176 124.742 136.085  0.00  0.00    +0.000 A 
ATOM     19  C   UNL     1     111.666 125.292 137.309  0.00  0.00    +0.000 A 
ATOM     20  C   UNL     1     111.469 124.637 136.849  0.00  0.00    +0.000 A 
BRANCH  20  21
ATOM     21  O   UNL     1     111.566 123.876 137.153  0.00  0.00    +0.000 OA
ATOM     22  C   UNL     1     112.221 123.425 136.935  0.00  0.00    +0.000 C 
ENDBRANCH  20  21
ENDBRANCH   8  15
BRANCH   4  23
ATOM     23  O   UNL     1     108.753 129.601 135.446  0.00  0.00    +0.000 OA
BRANCH  23  32
ATOM     24  O   UNL     1     108.953 130.059 136.785  0.00  0.00    +0.000 OA
ATOM     25  O   UNL     1     107.432 131.964 136.361  0.00  0.00    +0.000 OA
ATOM     26  O   UNL     1     108.139 131.787 137.840  0.00  0.00    +0.000 OA
ATOM     27  O   UNL     1     107.738 130.871 135.163  0.00  0.00    +0.000 OA
ATOM     28  C   UNL     1     107.939 131.329 136.502  0.00  0.00    +0.000 C 
ATOM     29  C   UNL     1     108.293 131.240 137.242  0.00  0.00    +0.000 C 
ATOM     30  C   UNL     1     108.092 130.782 135.903  0.00  0.00    +0.000 C 
ATOM     31  C   UNL     1     108.800 130.605 137.383  0.00  0.00    +0.000 C 
ATOM     32  C   UNL     1     108.599 130.147 136.044  0.00  0.00    +0.000 C 
BRANCH  31  34
ATOM     33  O   UNL     1     108.843 129.979 138.667  0.00  0.00    +0.000 OA
ATOM     34  C   UNL     1     109.153 130.516 138.123  0.00  0.00    +0.000 C 
ENDBRANCH  31  34
ENDBRANCH  23  32
ENDBRANCH   4  23
TORSDOF 5
ENDMDL
MODEL 8
REMARK VINA RESULT:      -8.8      7.994      9.626
REMARK  Name = 42607942
REMARK  5 active torsions:
REMARK  status: ('A' for Active; 'I' for Inactive)
REMARK    1  A    between atoms: O_2  and  C_15
REMARK    2  A    between atoms: O_2  and  C_17
REMARK    3  A    between atoms: O_10  and  C_33
REMARK    4  A    between atoms: C_14  and  C_16
REMARK    5  A    between atoms: C_21  and  C_26
REMARK                            x       y       z     vdW  Elec       q    Type
REMARK                         _______ _______ _______ _____ _____    ______ ____
ROOT
ATOM      1  O   UNL     1     110.786 128.821 135.742  0.00  0.00    +0.000 OA
ATOM      2  O   UNL     1     113.539 128.787 136.637  0.00  0.00    +0.000 OA
ATOM      3  O   UNL     1     112.865 130.056 136.492  0.00  0.00    +0.000 OA
ATOM      4  C   UNL     1     112.193 127.153 136.102  0.00  0.00    +0.000 A 
ATOM      5  C   UNL     1     111.510 127.573 135.904  0.00  0.00    +0.000 A 
ATOM      6  C   UNL     1     111.503 128.396 135.950  0.00  0.00    +0.000 A 
ATOM      7  C   UNL     1     112.180 128.801 136.195  0.00  0.00    +0.000 A 
ATOM      8  C   UNL     1     110.773 129.679 135.788  0.00  0.00    +0.000 C 
ATOM      9  C   UNL     1     112.869 127.559 136.346  0.00  0.00    +0.000 A 
ATOM     10  C   UNL     1     111.477 130.101 136.043  0.00  0.00    +0.000 C 
ATOM     11  C   UNL     1     112.862 128.383 136.392  0.00  0.00    +0.000 A 
ATOM     12  C   UNL     1     112.185 129.659 136.247  0.00  0.00    +0.000 C 
ATOM     13  C   UNL     1     110.834 127.167 135.660  0.00  0.00    +0.000 C 
ATOM     14  C   UNL     1     113.552 127.140 136.544  0.00  0.00    +0.000 C 
ENDROOT
BRANCH   8  15
ATOM     15  C   UNL     1     110.089 130.095 135.590  0.00  0.00    +0.000 A 
ATOM     16  C   UNL     1     109.529 130.270 136.170  0.00  0.00    +0.000 A 
ATOM     17  C   UNL     1     109.964 130.337 134.811  0.00  0.00    +0.000 A 
ATOM     18  C   UNL     1     108.845 130.686 135.972  0.00  0.00    +0.000 A 
ATOM     19  C   UNL     1     109.280 130.753 134.613  0.00  0.00    +0.000 A 
ATOM     20  C   UNL     1     108.720 130.928 135.193  0.00  0.00    +0.000 A 
BRANCH  20  21
ATOM     21  O   UNL     1     108.037 131.344 134.994  0.00  0.00    +0.000 OA
ATOM     22  C   UNL     1     108.080 132.148 134.817  0.00  0.00    +0.000 C 
ENDBRANCH  20  21
ENDBRANCH   8  15
BRANCH   4  23
ATOM     23  O   UNL     1     112.200 126.330 136.055  0.00  0.00    +0.000 OA
BRANCH  23  32
ATOM     24  O   UNL     1     111.690 126.250 137.388  0.00  0.00    +0.000 OA
ATOM     25  O   UNL     1     111.619 123.782 137.212  0.00  0.00    +0.000 OA
ATOM     26  O   UNL     1     111.134 124.525 138.603  0.00  0.00    +0.000 OA
ATOM     27  O   UNL     1     112.152 124.685 135.938  0.00  0.00    +0.000 OA
ATOM     28  C   UNL     1     111.643 124.605 137.271  0.00  0.00    +0.000 C 
ATOM     29  C   UNL     1     111.400 124.976 137.966  0.00  0.00    +0.000 C 
ATOM     30  C   UNL     1     111.909 125.056 136.633  0.00  0.00    +0.000 C 
ATOM     31  C   UNL     1     111.424 125.799 138.025  0.00  0.00    +0.000 C 
ATOM     32  C   UNL     1     111.933 125.879 136.692  0.00  0.00    +0.000 C 
BRANCH  31  34
ATOM     33  O   UNL     1     111.742 126.475 139.243  0.00  0.00    +0.000 OA
ATOM     34  C   UNL     1     111.181 126.170 138.720  0.00  0.00    +0.000 C 
ENDBRANCH  31  34
ENDBRANCH  23  32
ENDBRANCH   4  23
TORSDOF 5
ENDMDL
MODEL 9
REMARK VINA RESULT:      -8.8      7.067     10.505
REMARK  Name = 42607942
REMARK  5 active torsions:
REMARK  status: ('A' for Active; 'I' for Inactive)
REMARK    1  A    between atoms: O_2  and  C_15
REMARK    2  A    between atoms: O_2  and  C_17
REMARK    3  A    between atoms: O_10  and  C_33
REMARK    4  A    between atoms: C_14  and  C_16
REMARK    5  A    between atoms: C_21  and  C_26
REMARK                            x       y       z     vdW  Elec       q    Type
REMARK                         _______ _______ _______ _____ _____    ______ ____
ROOT
ATOM      1  O   UNL     1     112.680 127.784 137.404  0.00  0.00    +0.000 OA
ATOM      2  O   UNL     1     113.135 130.353 136.148  0.00  0.00    +0.000 OA
ATOM      3  O   UNL     1     113.612 129.159 135.492  0.00  0.00    +0.000 OA
ATOM      4  C   UNL     1     112.143 129.838 138.023  0.00  0.00    +0.000 A 
ATOM      5  C   UNL     1     112.222 129.016 138.021  0.00  0.00    +0.000 A 
ATOM      6  C   UNL     1     112.605 128.640 137.394  0.00  0.00    +0.000 A 
ATOM      7  C   UNL     1     112.909 129.086 136.770  0.00  0.00    +0.000 A 
ATOM      8  C   UNL     1     113.078 127.387 136.754  0.00  0.00    +0.000 C 
ATOM      9  C   UNL     1     112.448 130.283 137.399  0.00  0.00    +0.000 A 
ATOM     10  C   UNL     1     113.395 127.851 136.103  0.00  0.00    +0.000 C 
ATOM     11  C   UNL     1     112.831 129.907 136.772  0.00  0.00    +0.000 A 
ATOM     12  C   UNL     1     113.310 128.706 136.111  0.00  0.00    +0.000 C 
ATOM     13  C   UNL     1     111.917 128.572 138.645  0.00  0.00    +0.000 C 
ATOM     14  C   UNL     1     112.369 131.105 137.401  0.00  0.00    +0.000 C 
ENDROOT
BRANCH   8  15
ATOM     15  C   UNL     1     113.155 126.566 136.754  0.00  0.00    +0.000 A 
ATOM     16  C   UNL     1     112.546 126.094 136.458  0.00  0.00    +0.000 A 
ATOM     17  C   UNL     1     113.841 126.216 137.050  0.00  0.00    +0.000 A 
ATOM     18  C   UNL     1     112.623 125.273 136.459  0.00  0.00    +0.000 A 
ATOM     19  C   UNL     1     113.918 125.394 137.051  0.00  0.00    +0.000 A 
ATOM     20  C   UNL     1     113.309 124.923 136.755  0.00  0.00    +0.000 A 
BRANCH  20  21
ATOM     21  O   UNL     1     113.387 124.102 136.755  0.00  0.00    +0.000 OA
ATOM     22  C   UNL     1     112.719 123.624 136.837  0.00  0.00    +0.000 C 
ENDBRANCH  20  21
ENDBRANCH   8  15
BRANCH   4  23
ATOM     23  O   UNL     1     111.760 130.214 138.650  0.00  0.00    +0.000 OA
BRANCH  23  32
ATOM     24  O   UNL     1     110.508 130.087 137.973  0.00  0.00    +0.000 OA
ATOM     25  O   UNL     1     109.442 131.533 139.675  0.00  0.00    +0.000 OA
ATOM     26  O   UNL     1     108.546 130.924 138.432  0.00  0.00    +0.000 OA
ATOM     27  O   UNL     1     111.049 131.178 139.785  0.00  0.00    +0.000 OA
ATOM     28  C   UNL     1     109.797 131.051 139.108  0.00  0.00    +0.000 C 
ATOM     29  C   UNL     1     109.349 130.746 138.486  0.00  0.00    +0.000 C 
ATOM     30  C   UNL     1     110.602 130.873 139.162  0.00  0.00    +0.000 C 
ATOM     31  C   UNL     1     109.705 130.264 137.918  0.00  0.00    +0.000 C 
ATOM     32  C   UNL     1     110.957 130.391 138.595  0.00  0.00    +0.000 C 
BRANCH  31  34
ATOM     33  O   UNL     1     109.046 129.163 137.291  0.00  0.00    +0.000 OA
ATOM     34  C   UNL     1     109.257 129.960 137.297  0.00  0.00    +0.000 C 
ENDBRANCH  31  34
ENDBRANCH  23  32
ENDBRANCH   4  23
TORSDOF 5
ENDMDL
MODEL 10
REMARK VINA RESULT:      -8.8      8.595     10.660
REMARK  Name = 42607942
REMARK  5 active torsions:
REMARK  status: ('A' for Active; 'I' for Inactive)
REMARK    1  A    between atoms: O_2  and  C_15
REMARK    2  A    between atoms: O_2  and  C_17
REMARK    3  A    between atoms: O_10  and  C_33
REMARK    4  A    between atoms: C_14  and  C_16
REMARK    5  A    between atoms: C_21  and  C_26
REMARK                            x       y       z     vdW  Elec       q    Type
REMARK                         _______ _______ _______ _____ _____    ______ ____
ROOT
ATOM      1  O   UNL     1     112.401 127.188 137.421  0.00  0.00    +0.000 OA
ATOM      2  O   UNL     1     113.919 129.495 136.553  0.00  0.00    +0.000 OA
ATOM      3  O   UNL     1     114.098 128.240 135.863  0.00  0.00    +0.000 OA
ATOM      4  C   UNL     1     112.457 129.273 138.159  0.00  0.00    +0.000 A 
ATOM      5  C   UNL     1     112.259 128.475 138.080  0.00  0.00    +0.000 A 
ATOM      6  C   UNL     1     112.615 128.018 137.493  0.00  0.00    +0.000 A 
ATOM      7  C   UNL     1     113.168 128.358 136.984  0.00  0.00    +0.000 A 
ATOM      8  C   UNL     1     112.768 126.707 136.812  0.00  0.00    +0.000 C 
ATOM      9  C   UNL     1     113.010 129.612 137.649  0.00  0.00    +0.000 A 
ATOM     10  C   UNL     1     113.344 127.061 136.281  0.00  0.00    +0.000 C 
ATOM     11  C   UNL     1     113.366 129.155 137.062  0.00  0.00    +0.000 A 
ATOM     12  C   UNL     1     113.546 127.892 136.368  0.00  0.00    +0.000 C 
ATOM     13  C   UNL     1     111.706 128.135 138.589  0.00  0.00    +0.000 C 
ATOM     14  C   UNL     1     113.208 130.410 137.728  0.00  0.00    +0.000 C 
ENDROOT
BRANCH   8  15
ATOM     15  C   UNL     1     112.569 125.910 136.735  0.00  0.00    +0.000 A 
ATOM     16  C   UNL     1     111.883 125.693 136.331  0.00  0.00    +0.000 A 
ATOM     17  C   UNL     1     113.055 125.330 137.064  0.00  0.00    +0.000 A 
ATOM     18  C   UNL     1     111.684 124.896 136.254  0.00  0.00    +0.000 A 
ATOM     19  C   UNL     1     112.855 124.533 136.988  0.00  0.00    +0.000 A 
ATOM     20  C   UNL     1     112.170 124.316 136.583  0.00  0.00    +0.000 A 
BRANCH  20  21
ATOM     21  O   UNL     1     111.971 123.520 136.507  0.00  0.00    +0.000 OA
ATOM     22  C   UNL     1     111.927 123.040 137.177  0.00  0.00    +0.000 C 
ENDBRANCH  20  21
ENDBRANCH   8  15
BRANCH   4  23
ATOM     23  O   UNL     1     112.101 129.730 138.746  0.00  0.00    +0.000 OA
BRANCH  23  32
ATOM     24  O   UNL     1     113.156 129.394 139.650  0.00  0.00    +0.000 OA
ATOM     25  O   UNL     1     112.191 130.921 141.342  0.00  0.00    +0.000 OA
ATOM     26  O   UNL     1     113.567 130.076 141.682  0.00  0.00    +0.000 OA
ATOM     27  O   UNL     1     111.458 130.748 139.874  0.00  0.00    +0.000 OA
ATOM     28  C   UNL     1     112.513 130.412 140.778  0.00  0.00    +0.000 C 
ATOM     29  C   UNL     1     113.201 129.989 140.947  0.00  0.00    +0.000 C 
ATOM     30  C   UNL     1     112.146 130.325 140.044  0.00  0.00    +0.000 C 
ATOM     31  C   UNL     1     113.522 129.480 140.383  0.00  0.00    +0.000 C 
ATOM     32  C   UNL     1     112.468 129.816 139.479  0.00  0.00    +0.000 C 
BRANCH  31  34
ATOM     33  O   UNL     1     114.166 128.256 140.741  0.00  0.00    +0.000 OA
ATOM     34  C   UNL     1     114.209 129.058 140.553  0.00  0.00    +0.000 C 
ENDBRANCH  31  34
ENDBRANCH  23  32
ENDBRANCH   4  23
TORSDOF 5
ENDMDL
