MODEL 1
REMARK VINA RESULT:      -9.8      0.000      0.000
REMARK  Name = 131836794
REMARK  7 active torsions:
REMARK  status: ('A' for Active; 'I' for Inactive)
REMARK    1  A    between atoms: O_2  and  C_19
REMARK    2  A    between atoms: O_2  and  C_21
REMARK    3  A    between atoms: O_7  and  C_26
REMARK    4  A    between atoms: O_7  and  C_34
REMARK    5  A    between atoms: C_20  and  C_27
REMARK    6  A    between atoms: C_22  and  C_30
REMARK    7  A    between atoms: C_28  and  C_35
REMARK                            x       y       z     vdW  Elec       q    Type
REMARK                         _______ _______ _______ _____ _____    ______ ____
ROOT
ATOM      1  O   UNL     1     113.141 126.825 136.332  0.00  0.00    +0.000 OA
ATOM      2  O   UNL     1     113.191 127.716 138.641  0.00  0.00    +0.000 OA
ATOM      3  O   UNL     1     113.853 126.526 139.116  0.00  0.00    +0.000 OA
ATOM      4  O   UNL     1     114.477 124.395 137.220  0.00  0.00    +0.000 OA
ATOM      5  C   UNL     1     112.838 127.865 137.263  0.00  0.00    +0.000 C 
ATOM      6  C   UNL     1     112.821 127.568 136.494  0.00  0.00    +0.000 C 
ATOM      7  C   UNL     1     113.174 127.419 137.871  0.00  0.00    +0.000 C 
ATOM      8  C   UNL     1     113.494 126.676 137.708  0.00  0.00    +0.000 A 
ATOM      9  C   UNL     1     113.477 126.379 136.939  0.00  0.00    +0.000 A 
ATOM     10  C   UNL     1     113.841 126.221 138.350  0.00  0.00    +0.000 A 
ATOM     11  C   UNL     1     113.807 125.606 136.757  0.00  0.00    +0.000 A 
ATOM     12  C   UNL     1     114.175 125.447 138.187  0.00  0.00    +0.000 A 
ATOM     13  C   UNL     1     114.158 125.137 137.385  0.00  0.00    +0.000 A 
ENDROOT
BRANCH   6  14
ATOM     14  C   UNL     1     112.485 128.014 135.887  0.00  0.00    +0.000 A 
ATOM     15  C   UNL     1     111.742 127.812 135.590  0.00  0.00    +0.000 A 
ATOM     16  C   UNL     1     111.405 128.259 134.983  0.00  0.00    +0.000 A 
ATOM     17  C   UNL     1     112.891 128.662 135.577  0.00  0.00    +0.000 A 
ATOM     18  C   UNL     1     111.812 128.906 134.673  0.00  0.00    +0.000 A 
ATOM     19  C   UNL     1     112.555 129.108 134.971  0.00  0.00    +0.000 A 
BRANCH  16  20
ATOM     20  O   UNL     1     110.663 128.057 134.685  0.00  0.00    +0.000 OA
BRANCH  20  28
ATOM     21  O   UNL     1     109.883 129.171 135.125  0.00  0.00    +0.000 OA
ATOM     22  O   UNL     1     108.132 127.624 135.941  0.00  0.00    +0.000 OA
ATOM     23  O   UNL     1     109.496 127.025 135.229  0.00  0.00    +0.000 OA
ATOM     24  O   UNL     1     107.936 129.253 136.108  0.00  0.00    +0.000 OA
ATOM     25  C   UNL     1     108.716 128.139 135.669  0.00  0.00    +0.000 C 
ATOM     26  C   UNL     1     109.398 127.841 135.313  0.00  0.00    +0.000 C 
ATOM     27  C   UNL     1     108.618 128.955 135.752  0.00  0.00    +0.000 C 
ATOM     28  C   UNL     1     109.981 128.357 135.041  0.00  0.00    +0.000 C 
ATOM     29  C   UNL     1     109.201 129.471 135.480  0.00  0.00    +0.000 C 
BRANCH  29  32
ATOM     30  O   UNL     1     108.765 130.725 134.953  0.00  0.00    +0.000 OA
ATOM     31  O   UNL     1     109.343 130.660 136.258  0.00  0.00    +0.000 OA
ATOM     32  C   UNL     1     109.103 130.285 135.564  0.00  0.00    +0.000 C 
ENDBRANCH  29  32
ENDBRANCH  20  28
ENDBRANCH  16  20
ENDBRANCH   6  14
BRANCH   5  33
ATOM     33  O   UNL     1     112.518 128.608 137.426  0.00  0.00    +0.000 OA
BRANCH  33  39
ATOM     34  O   UNL     1     111.345 128.098 138.151  0.00  0.00    +0.000 OA
ATOM     35  O   UNL     1     112.132 130.067 138.399  0.00  0.00    +0.000 OA
ATOM     36  O   UNL     1     110.692 129.699 139.404  0.00  0.00    +0.000 OA
ATOM     37  C   UNL     1     111.720 129.353 138.412  0.00  0.00    +0.000 C 
ATOM     38  C   UNL     1     111.058 129.183 138.873  0.00  0.00    +0.000 C 
ATOM     39  C   UNL     1     111.897 128.682 137.965  0.00  0.00    +0.000 C 
ATOM     40  C   UNL     1     110.827 128.408 138.712  0.00  0.00    +0.000 C 
BRANCH  40  42
ATOM     41  O   UNL     1     109.935 127.292 138.742  0.00  0.00    +0.000 OA
ATOM     42  C   UNL     1     110.188 128.012 139.053  0.00  0.00    +0.000 C 
ENDBRANCH  40  42
ENDBRANCH  33  39
ENDBRANCH   5  33
TORSDOF 7
ENDMDL
MODEL 2
REMARK VINA RESULT:      -9.6      1.467      3.055
REMARK  Name = 131836794
REMARK  7 active torsions:
REMARK  status: ('A' for Active; 'I' for Inactive)
REMARK    1  A    between atoms: O_2  and  C_19
REMARK    2  A    between atoms: O_2  and  C_21
REMARK    3  A    between atoms: O_7  and  C_26
REMARK    4  A    between atoms: O_7  and  C_34
REMARK    5  A    between atoms: C_20  and  C_27
REMARK    6  A    between atoms: C_22  and  C_30
REMARK    7  A    between atoms: C_28  and  C_35
REMARK                            x       y       z     vdW  Elec       q    Type
REMARK                         _______ _______ _______ _____ _____    ______ ____
ROOT
ATOM      1  O   UNL     1     113.797 126.932 136.625  0.00  0.00    +0.000 OA
ATOM      2  O   UNL     1     111.547 125.992 136.205  0.00  0.00    +0.000 OA
ATOM      3  O   UNL     1     111.995 124.675 136.586  0.00  0.00    +0.000 OA
ATOM      4  O   UNL     1     114.772 124.302 137.407  0.00  0.00    +0.000 OA
ATOM      5  C   UNL     1     112.437 127.110 136.223  0.00  0.00    +0.000 C 
ATOM      6  C   UNL     1     113.188 127.423 136.363  0.00  0.00    +0.000 C 
ATOM      7  C   UNL     1     112.297 126.305 136.345  0.00  0.00    +0.000 C 
ATOM      8  C   UNL     1     112.907 125.815 136.606  0.00  0.00    +0.000 A 
ATOM      9  C   UNL     1     113.657 126.129 136.746  0.00  0.00    +0.000 A 
ATOM     10  C   UNL     1     112.747 124.979 136.728  0.00  0.00    +0.000 A 
ATOM     11  C   UNL     1     114.301 125.628 137.018  0.00  0.00    +0.000 A 
ATOM     12  C   UNL     1     113.378 124.463 137.000  0.00  0.00    +0.000 A 
ATOM     13  C   UNL     1     114.160 124.790 137.146  0.00  0.00    +0.000 A 
ENDROOT
BRANCH   6  14
ATOM     14  C   UNL     1     113.328 128.226 136.242  0.00  0.00    +0.000 A 
ATOM     15  C   UNL     1     113.410 128.733 136.889  0.00  0.00    +0.000 A 
ATOM     16  C   UNL     1     113.550 129.537 136.768  0.00  0.00    +0.000 A 
ATOM     17  C   UNL     1     113.386 128.525 135.475  0.00  0.00    +0.000 A 
ATOM     18  C   UNL     1     113.608 129.834 136.000  0.00  0.00    +0.000 A 
ATOM     19  C   UNL     1     113.526 129.328 135.354  0.00  0.00    +0.000 A 
BRANCH  16  20
ATOM     20  O   UNL     1     113.632 130.044 137.414  0.00  0.00    +0.000 OA
BRANCH  20  28
ATOM     21  O   UNL     1     112.439 130.816 137.271  0.00  0.00    +0.000 OA
ATOM     22  O   UNL     1     112.022 130.621 139.703  0.00  0.00    +0.000 OA
ATOM     23  O   UNL     1     113.354 129.914 139.035  0.00  0.00    +0.000 OA
ATOM     24  O   UNL     1     110.967 131.459 138.750  0.00  0.00    +0.000 OA
ATOM     25  C   UNL     1     112.161 130.686 138.892  0.00  0.00    +0.000 C 
ATOM     26  C   UNL     1     112.827 130.333 138.558  0.00  0.00    +0.000 C 
ATOM     27  C   UNL     1     111.633 131.105 138.415  0.00  0.00    +0.000 C 
ATOM     28  C   UNL     1     112.966 130.398 137.747  0.00  0.00    +0.000 C 
ATOM     29  C   UNL     1     111.772 131.170 137.604  0.00  0.00    +0.000 C 
BRANCH  29  32
ATOM     30  O   UNL     1     110.579 131.212 136.819  0.00  0.00    +0.000 OA
ATOM     31  O   UNL     1     111.383 132.384 136.960  0.00  0.00    +0.000 OA
ATOM     32  C   UNL     1     111.245 131.589 137.128  0.00  0.00    +0.000 C 
ENDBRANCH  29  32
ENDBRANCH  20  28
ENDBRANCH  16  20
ENDBRANCH   6  14
BRANCH   5  33
ATOM     33  O   UNL     1     111.827 127.599 135.962  0.00  0.00    +0.000 OA
BRANCH  33  39
ATOM     34  O   UNL     1     111.092 127.608 137.235  0.00  0.00    +0.000 OA
ATOM     35  O   UNL     1     110.189 127.983 135.338  0.00  0.00    +0.000 OA
ATOM     36  O   UNL     1     109.065 128.054 136.735  0.00  0.00    +0.000 OA
ATOM     37  C   UNL     1     110.390 127.861 136.128  0.00  0.00    +0.000 C 
ATOM     38  C   UNL     1     109.874 127.893 136.770  0.00  0.00    +0.000 C 
ATOM     39  C   UNL     1     111.143 127.684 136.415  0.00  0.00    +0.000 C 
ATOM     40  C   UNL     1     110.307 127.737 137.454  0.00  0.00    +0.000 C 
BRANCH  40  42
ATOM     41  O   UNL     1     110.524 127.689 138.866  0.00  0.00    +0.000 OA
ATOM     42  C   UNL     1     110.008 127.714 138.223  0.00  0.00    +0.000 C 
ENDBRANCH  40  42
ENDBRANCH  33  39
ENDBRANCH   5  33
TORSDOF 7
ENDMDL
MODEL 3
REMARK VINA RESULT:      -9.5      1.164      2.027
REMARK  Name = 131836794
REMARK  7 active torsions:
REMARK  status: ('A' for Active; 'I' for Inactive)
REMARK    1  A    between atoms: O_2  and  C_19
REMARK    2  A    between atoms: O_2  and  C_21
REMARK    3  A    between atoms: O_7  and  C_26
REMARK    4  A    between atoms: O_7  and  C_34
REMARK    5  A    between atoms: C_20  and  C_27
REMARK    6  A    between atoms: C_22  and  C_30
REMARK    7  A    between atoms: C_28  and  C_35
REMARK                            x       y       z     vdW  Elec       q    Type
REMARK                         _______ _______ _______ _____ _____    ______ ____
ROOT
ATOM      1  O   UNL     1     112.583 125.803 136.111  0.00  0.00    +0.000 OA
ATOM      2  O   UNL     1     112.394 126.019 138.570  0.00  0.00    +0.000 OA
ATOM      3  O   UNL     1     113.758 125.583 138.741  0.00  0.00    +0.000 OA
ATOM      4  O   UNL     1     115.344 124.916 136.382  0.00  0.00    +0.000 OA
ATOM      5  C   UNL     1     111.811 126.128 137.269  0.00  0.00    +0.000 C 
ATOM      6  C   UNL     1     111.874 126.056 136.449  0.00  0.00    +0.000 C 
ATOM      7  C   UNL     1     112.457 125.947 137.750  0.00  0.00    +0.000 C 
ATOM      8  C   UNL     1     113.165 125.694 137.411  0.00  0.00    +0.000 A 
ATOM      9  C   UNL     1     113.228 125.622 136.592  0.00  0.00    +0.000 A 
ATOM     10  C   UNL     1     113.830 125.508 137.924  0.00  0.00    +0.000 A 
ATOM     11  C   UNL     1     113.961 125.359 136.227  0.00  0.00    +0.000 A 
ATOM     12  C   UNL     1     114.571 125.244 137.577  0.00  0.00    +0.000 A 
ATOM     13  C   UNL     1     114.636 125.169 136.723  0.00  0.00    +0.000 A 
ENDROOT
BRANCH   6  14
ATOM     14  C   UNL     1     111.229 126.237 135.969  0.00  0.00    +0.000 A 
ATOM     15  C   UNL     1     111.222 126.940 135.536  0.00  0.00    +0.000 A 
ATOM     16  C   UNL     1     110.576 127.121 135.055  0.00  0.00    +0.000 A 
ATOM     17  C   UNL     1     110.591 125.716 135.920  0.00  0.00    +0.000 A 
ATOM     18  C   UNL     1     109.938 126.600 135.007  0.00  0.00    +0.000 A 
ATOM     19  C   UNL     1     109.946 125.897 135.439  0.00  0.00    +0.000 A 
BRANCH  16  20
ATOM     20  O   UNL     1     110.568 127.824 134.622  0.00  0.00    +0.000 OA
BRANCH  20  28
ATOM     21  O   UNL     1     109.572 128.561 135.334  0.00  0.00    +0.000 OA
ATOM     22  O   UNL     1     111.044 130.551 135.333  0.00  0.00    +0.000 OA
ATOM     23  O   UNL     1     111.549 129.150 134.621  0.00  0.00    +0.000 OA
ATOM     24  O   UNL     1     109.558 130.625 136.045  0.00  0.00    +0.000 OA
ATOM     25  C   UNL     1     110.554 129.888 135.333  0.00  0.00    +0.000 C 
ATOM     26  C   UNL     1     110.806 129.187 134.978  0.00  0.00    +0.000 C 
ATOM     27  C   UNL     1     109.810 129.925 135.690  0.00  0.00    +0.000 C 
ATOM     28  C   UNL     1     110.315 128.524 134.978  0.00  0.00    +0.000 C 
ATOM     29  C   UNL     1     109.319 129.261 135.690  0.00  0.00    +0.000 C 
BRANCH  29  32
ATOM     30  O   UNL     1     107.905 129.444 135.588  0.00  0.00    +0.000 OA
ATOM     31  O   UNL     1     108.504 129.190 136.861  0.00  0.00    +0.000 OA
ATOM     32  C   UNL     1     108.576 129.299 136.046  0.00  0.00    +0.000 C 
ENDBRANCH  29  32
ENDBRANCH  20  28
ENDBRANCH  16  20
ENDBRANCH   6  14
BRANCH   5  33
ATOM     33  O   UNL     1     111.103 126.382 137.608  0.00  0.00    +0.000 OA
BRANCH  33  39
ATOM     34  O   UNL     1     111.591 127.708 138.013  0.00  0.00    +0.000 OA
ATOM     35  O   UNL     1     109.979 126.690 138.972  0.00  0.00    +0.000 OA
ATOM     36  O   UNL     1     110.375 128.298 139.665  0.00  0.00    +0.000 OA
ATOM     37  C   UNL     1     110.573 127.198 138.710  0.00  0.00    +0.000 C 
ATOM     38  C   UNL     1     110.755 127.937 139.027  0.00  0.00    +0.000 C 
ATOM     39  C   UNL     1     111.090 127.056 138.082  0.00  0.00    +0.000 C 
ATOM     40  C   UNL     1     111.385 128.252 138.597  0.00  0.00    +0.000 C 
BRANCH  40  42
ATOM     41  O   UNL     1     112.314 129.263 138.202  0.00  0.00    +0.000 OA
ATOM     42  C   UNL     1     111.744 128.983 138.728  0.00  0.00    +0.000 C 
ENDBRANCH  40  42
ENDBRANCH  33  39
ENDBRANCH   5  33
TORSDOF 7
ENDMDL
MODEL 4
REMARK VINA RESULT:      -9.5      1.279      1.557
REMARK  Name = 131836794
REMARK  7 active torsions:
REMARK  status: ('A' for Active; 'I' for Inactive)
REMARK    1  A    between atoms: O_2  and  C_19
REMARK    2  A    between atoms: O_2  and  C_21
REMARK    3  A    between atoms: O_7  and  C_26
REMARK    4  A    between atoms: O_7  and  C_34
REMARK    5  A    between atoms: C_20  and  C_27
REMARK    6  A    between atoms: C_22  and  C_30
REMARK    7  A    between atoms: C_28  and  C_35
REMARK                            x       y       z     vdW  Elec       q    Type
REMARK                         _______ _______ _______ _____ _____    ______ ____
ROOT
ATOM      1  O   UNL     1     111.750 126.570 135.941  0.00  0.00    +0.000 OA
ATOM      2  O   UNL     1     112.301 126.770 138.346  0.00  0.00    +0.000 OA
ATOM      3  O   UNL     1     112.249 125.338 138.506  0.00  0.00    +0.000 OA
ATOM      4  O   UNL     1     111.627 123.671 136.190  0.00  0.00    +0.000 OA
ATOM      5  C   UNL     1     112.055 127.381 137.077  0.00  0.00    +0.000 C 
ATOM      6  C   UNL     1     111.871 127.314 136.276  0.00  0.00    +0.000 C 
ATOM      7  C   UNL     1     112.118 126.703 137.544  0.00  0.00    +0.000 C 
ATOM      8  C   UNL     1     111.996 125.960 137.209  0.00  0.00    +0.000 A 
ATOM      9  C   UNL     1     111.813 125.893 136.407  0.00  0.00    +0.000 A 
ATOM     10  C   UNL     1     112.065 125.261 137.706  0.00  0.00    +0.000 A 
ATOM     11  C   UNL     1     111.684 125.123 136.047  0.00  0.00    +0.000 A 
ATOM     12  C   UNL     1     111.940 124.484 137.363  0.00  0.00    +0.000 A 
ATOM     13  C   UNL     1     111.748 124.414 136.528  0.00  0.00    +0.000 A 
ENDROOT
BRANCH   6  14
ATOM     14  C   UNL     1     111.808 127.991 135.809  0.00  0.00    +0.000 A 
ATOM     15  C   UNL     1     111.067 128.251 135.557  0.00  0.00    +0.000 A 
ATOM     16  C   UNL     1     111.004 128.929 135.090  0.00  0.00    +0.000 A 
ATOM     17  C   UNL     1     112.486 128.410 135.595  0.00  0.00    +0.000 A 
ATOM     18  C   UNL     1     111.682 129.347 134.876  0.00  0.00    +0.000 A 
ATOM     19  C   UNL     1     112.424 129.087 135.129  0.00  0.00    +0.000 A 
BRANCH  16  20
ATOM     20  O   UNL     1     110.262 129.189 134.838  0.00  0.00    +0.000 OA
BRANCH  20  28
ATOM     21  O   UNL     1     110.132 130.385 135.608  0.00  0.00    +0.000 OA
ATOM     22  O   UNL     1     107.815 129.751 136.201  0.00  0.00    +0.000 OA
ATOM     23  O   UNL     1     108.717 128.766 135.233  0.00  0.00    +0.000 OA
ATOM     24  O   UNL     1     108.457 131.159 136.774  0.00  0.00    +0.000 OA
ATOM     25  C   UNL     1     108.587 129.963 136.004  0.00  0.00    +0.000 C 
ATOM     26  C   UNL     1     109.039 129.471 135.520  0.00  0.00    +0.000 C 
ATOM     27  C   UNL     1     108.909 130.667 136.290  0.00  0.00    +0.000 C 
ATOM     28  C   UNL     1     109.812 129.682 135.322  0.00  0.00    +0.000 C 
ATOM     29  C   UNL     1     109.682 130.878 136.092  0.00  0.00    +0.000 C 
BRANCH  29  32
ATOM     30  O   UNL     1     110.391 131.593 137.106  0.00  0.00    +0.000 OA
ATOM     31  O   UNL     1     109.935 132.275 135.937  0.00  0.00    +0.000 OA
ATOM     32  C   UNL     1     110.003 131.582 136.379  0.00  0.00    +0.000 C 
ENDBRANCH  29  32
ENDBRANCH  20  28
ENDBRANCH  16  20
ENDBRANCH   6  14
BRANCH   5  33
ATOM     33  O   UNL     1     112.176 128.125 137.412  0.00  0.00    +0.000 OA
BRANCH  33  39
ATOM     34  O   UNL     1     110.913 128.157 138.164  0.00  0.00    +0.000 OA
ATOM     35  O   UNL     1     112.648 129.274 138.708  0.00  0.00    +0.000 OA
ATOM     36  O   UNL     1     111.238 129.494 139.796  0.00  0.00    +0.000 OA
ATOM     37  C   UNL     1     111.912 128.911 138.627  0.00  0.00    +0.000 C 
ATOM     38  C   UNL     1     111.264 129.012 139.126  0.00  0.00    +0.000 C 
ATOM     39  C   UNL     1     111.695 128.382 138.031  0.00  0.00    +0.000 C 
ATOM     40  C   UNL     1     110.646 128.546 138.840  0.00  0.00    +0.000 C 
BRANCH  40  42
ATOM     41  O   UNL     1     109.294 128.092 138.762  0.00  0.00    +0.000 OA
ATOM     42  C   UNL     1     109.894 128.480 139.173  0.00  0.00    +0.000 C 
ENDBRANCH  40  42
ENDBRANCH  33  39
ENDBRANCH   5  33
TORSDOF 7
ENDMDL
MODEL 5
REMARK VINA RESULT:      -9.5      1.507      4.956
REMARK  Name = 131836794
REMARK  7 active torsions:
REMARK  status: ('A' for Active; 'I' for Inactive)
REMARK    1  A    between atoms: O_2  and  C_19
REMARK    2  A    between atoms: O_2  and  C_21
REMARK    3  A    between atoms: O_7  and  C_26
REMARK    4  A    between atoms: O_7  and  C_34
REMARK    5  A    between atoms: C_20  and  C_27
REMARK    6  A    between atoms: C_22  and  C_30
REMARK    7  A    between atoms: C_28  and  C_35
REMARK                            x       y       z     vdW  Elec       q    Type
REMARK                         _______ _______ _______ _____ _____    ______ ____
ROOT
ATOM      1  O   UNL     1     109.170 128.643 135.654  0.00  0.00    +0.000 OA
ATOM      2  O   UNL     1     111.076 130.199 135.383  0.00  0.00    +0.000 OA
ATOM      3  O   UNL     1     110.217 131.335 135.610  0.00  0.00    +0.000 OA
ATOM      4  O   UNL     1     107.377 130.889 136.123  0.00  0.00    +0.000 OA
ATOM      5  C   UNL     1     110.559 128.866 135.404  0.00  0.00    +0.000 C 
ATOM      6  C   UNL     1     109.924 128.347 135.495  0.00  0.00    +0.000 C 
ATOM      7  C   UNL     1     110.441 129.680 135.473  0.00  0.00    +0.000 C 
ATOM      8  C   UNL     1     109.687 129.974 135.633  0.00  0.00    +0.000 A 
ATOM      9  C   UNL     1     109.052 129.456 135.723  0.00  0.00    +0.000 A 
ATOM     10  C   UNL     1     109.577 130.825 135.702  0.00  0.00    +0.000 A 
ATOM     11  C   UNL     1     108.261 129.751 135.890  0.00  0.00    +0.000 A 
ATOM     12  C   UNL     1     108.794 131.138 135.869  0.00  0.00    +0.000 A 
ATOM     13  C   UNL     1     108.132 130.597 135.963  0.00  0.00    +0.000 A 
ENDROOT
BRANCH   6  14
ATOM     14  C   UNL     1     110.043 127.535 135.425  0.00  0.00    +0.000 A 
ATOM     15  C   UNL     1     110.057 127.061 136.101  0.00  0.00    +0.000 A 
ATOM     16  C   UNL     1     110.175 126.247 136.032  0.00  0.00    +0.000 A 
ATOM     17  C   UNL     1     110.147 127.194 134.681  0.00  0.00    +0.000 A 
ATOM     18  C   UNL     1     110.280 125.908 135.288  0.00  0.00    +0.000 A 
ATOM     19  C   UNL     1     110.266 126.381 134.612  0.00  0.00    +0.000 A 
BRANCH  16  20
ATOM     20  O   UNL     1     110.190 125.773 136.708  0.00  0.00    +0.000 OA
BRANCH  20  28
ATOM     21  O   UNL     1     111.573 125.414 136.703  0.00  0.00    +0.000 OA
ATOM     22  O   UNL     1     111.676 125.779 139.149  0.00  0.00    +0.000 OA
ATOM     23  O   UNL     1     110.258 126.017 138.338  0.00  0.00    +0.000 OA
ATOM     24  O   UNL     1     113.024 125.297 138.329  0.00  0.00    +0.000 OA
ATOM     25  C   UNL     1     111.641 125.657 138.333  0.00  0.00    +0.000 C 
ATOM     26  C   UNL     1     110.933 125.776 137.928  0.00  0.00    +0.000 C 
ATOM     27  C   UNL     1     112.316 125.416 137.923  0.00  0.00    +0.000 C 
ATOM     28  C   UNL     1     110.899 125.654 137.112  0.00  0.00    +0.000 C 
ATOM     29  C   UNL     1     112.282 125.294 137.108  0.00  0.00    +0.000 C 
BRANCH  29  32
ATOM     30  O   UNL     1     113.506 125.613 136.443  0.00  0.00    +0.000 OA
ATOM     31  O   UNL     1     113.080 124.253 136.543  0.00  0.00    +0.000 OA
ATOM     32  C   UNL     1     112.956 125.054 136.698  0.00  0.00    +0.000 C 
ENDBRANCH  29  32
ENDBRANCH  20  28
ENDBRANCH  16  20
ENDBRANCH   6  14
BRANCH   5  33
ATOM     33  O   UNL     1     111.313 128.572 135.244  0.00  0.00    +0.000 OA
BRANCH  33  39
ATOM     34  O   UNL     1     111.886 128.836 136.572  0.00  0.00    +0.000 OA
ATOM     35  O   UNL     1     113.029 128.798 134.770  0.00  0.00    +0.000 OA
ATOM     36  O   UNL     1     113.975 129.144 136.255  0.00  0.00    +0.000 OA
ATOM     37  C   UNL     1     112.728 128.845 135.536  0.00  0.00    +0.000 C 
ATOM     38  C   UNL     1     113.162 129.004 136.219  0.00  0.00    +0.000 C 
ATOM     39  C   UNL     1     111.939 128.741 135.754  0.00  0.00    +0.000 C 
ATOM     40  C   UNL     1     112.642 128.998 136.859  0.00  0.00    +0.000 C 
BRANCH  40  42
ATOM     41  O   UNL     1     112.301 128.965 138.246  0.00  0.00    +0.000 OA
ATOM     42  C   UNL     1     112.843 129.132 137.648  0.00  0.00    +0.000 C 
ENDBRANCH  40  42
ENDBRANCH  33  39
ENDBRANCH   5  33
TORSDOF 7
ENDMDL
MODEL 6
REMARK VINA RESULT:      -9.5      2.140      4.470
REMARK  Name = 131836794
REMARK  7 active torsions:
REMARK  status: ('A' for Active; 'I' for Inactive)
REMARK    1  A    between atoms: O_2  and  C_19
REMARK    2  A    between atoms: O_2  and  C_21
REMARK    3  A    between atoms: O_7  and  C_26
REMARK    4  A    between atoms: O_7  and  C_34
REMARK    5  A    between atoms: C_20  and  C_27
REMARK    6  A    between atoms: C_22  and  C_30
REMARK    7  A    between atoms: C_28  and  C_35
REMARK                            x       y       z     vdW  Elec       q    Type
REMARK                         _______ _______ _______ _____ _____    ______ ____
ROOT
ATOM      1  O   UNL     1     112.459 125.529 138.069  0.00  0.00    +0.000 OA
ATOM      2  O   UNL     1     111.822 127.342 136.508  0.00  0.00    +0.000 OA
ATOM      3  O   UNL     1     111.372 126.381 135.532  0.00  0.00    +0.000 OA
ATOM      4  O   UNL     1     111.569 123.533 136.144  0.00  0.00    +0.000 OA
ATOM      5  C   UNL     1     112.361 126.922 137.764  0.00  0.00    +0.000 C 
ATOM      6  C   UNL     1     112.573 126.317 138.284  0.00  0.00    +0.000 C 
ATOM      7  C   UNL     1     112.035 126.738 137.028  0.00  0.00    +0.000 C 
ATOM      8  C   UNL     1     111.921 125.949 136.814  0.00  0.00    +0.000 A 
ATOM      9  C   UNL     1     112.134 125.345 137.334  0.00  0.00    +0.000 A 
ATOM     10  C   UNL     1     111.581 125.771 136.044  0.00  0.00    +0.000 A 
ATOM     11  C   UNL     1     112.020 124.520 137.121  0.00  0.00    +0.000 A 
ATOM     12  C   UNL     1     111.460 124.952 135.815  0.00  0.00    +0.000 A 
ATOM     13  C   UNL     1     111.681 124.322 136.357  0.00  0.00    +0.000 A 
ENDROOT
BRANCH   6  14
ATOM     14  C   UNL     1     112.899 126.502 139.019  0.00  0.00    +0.000 A 
ATOM     15  C   UNL     1     112.452 126.401 139.705  0.00  0.00    +0.000 A 
ATOM     16  C   UNL     1     112.778 126.585 140.441  0.00  0.00    +0.000 A 
ATOM     17  C   UNL     1     113.672 126.786 139.069  0.00  0.00    +0.000 A 
ATOM     18  C   UNL     1     113.550 126.870 140.490  0.00  0.00    +0.000 A 
ATOM     19  C   UNL     1     113.997 126.971 139.803  0.00  0.00    +0.000 A 
BRANCH  16  20
ATOM     20  O   UNL     1     112.331 126.485 141.127  0.00  0.00    +0.000 OA
BRANCH  20  28
ATOM     21  O   UNL     1     112.133 127.850 141.499  0.00  0.00    +0.000 OA
ATOM     22  O   UNL     1     109.744 127.383 141.947  0.00  0.00    +0.000 OA
ATOM     23  O   UNL     1     110.738 126.173 141.426  0.00  0.00    +0.000 OA
ATOM     24  O   UNL     1     110.343 128.904 142.170  0.00  0.00    +0.000 OA
ATOM     25  C   UNL     1     110.541 127.539 141.798  0.00  0.00    +0.000 C 
ATOM     26  C   UNL     1     111.038 126.935 141.537  0.00  0.00    +0.000 C 
ATOM     27  C   UNL     1     110.841 128.300 141.909  0.00  0.00    +0.000 C 
ATOM     28  C   UNL     1     111.834 127.090 141.388  0.00  0.00    +0.000 C 
ATOM     29  C   UNL     1     111.637 128.456 141.760  0.00  0.00    +0.000 C 
BRANCH  29  32
ATOM     30  O   UNL     1     111.847 129.786 141.281  0.00  0.00    +0.000 OA
ATOM     31  O   UNL     1     112.324 129.407 142.573  0.00  0.00    +0.000 OA
ATOM     32  C   UNL     1     111.936 129.216 141.871  0.00  0.00    +0.000 C 
ENDBRANCH  29  32
ENDBRANCH  20  28
ENDBRANCH  16  20
ENDBRANCH   6  14
BRANCH   5  33
ATOM     33  O   UNL     1     112.474 127.710 137.979  0.00  0.00    +0.000 OA
BRANCH  33  39
ATOM     34  O   UNL     1     111.052 128.010 138.200  0.00  0.00    +0.000 OA
ATOM     35  O   UNL     1     112.516 129.485 137.714  0.00  0.00    +0.000 OA
ATOM     36  O   UNL     1     110.851 130.118 137.932  0.00  0.00    +0.000 OA
ATOM     37  C   UNL     1     111.849 129.039 137.903  0.00  0.00    +0.000 C 
ATOM     38  C   UNL     1     111.084 129.329 138.003  0.00  0.00    +0.000 C 
ATOM     39  C   UNL     1     111.829 128.222 138.024  0.00  0.00    +0.000 C 
ATOM     40  C   UNL     1     110.591 128.693 138.186  0.00  0.00    +0.000 C 
BRANCH  40  42
ATOM     41  O   UNL     1     109.382 128.081 138.638  0.00  0.00    +0.000 OA
ATOM     42  C   UNL     1     109.780 128.734 138.331  0.00  0.00    +0.000 C 
ENDBRANCH  40  42
ENDBRANCH  33  39
ENDBRANCH   5  33
TORSDOF 7
ENDMDL
MODEL 7
REMARK VINA RESULT:      -9.4      2.027      3.885
REMARK  Name = 131836794
REMARK  7 active torsions:
REMARK  status: ('A' for Active; 'I' for Inactive)
REMARK    1  A    between atoms: O_2  and  C_19
REMARK    2  A    between atoms: O_2  and  C_21
REMARK    3  A    between atoms: O_7  and  C_26
REMARK    4  A    between atoms: O_7  and  C_34
REMARK    5  A    between atoms: C_20  and  C_27
REMARK    6  A    between atoms: C_22  and  C_30
REMARK    7  A    between atoms: C_28  and  C_35
REMARK                            x       y       z     vdW  Elec       q    Type
REMARK                         _______ _______ _______ _____ _____    ______ ____
ROOT
ATOM      1  O   UNL     1     111.874 127.177 135.794  0.00  0.00    +0.000 OA
ATOM      2  O   UNL     1     112.279 125.395 137.463  0.00  0.00    +0.000 OA
ATOM      3  O   UNL     1     111.221 124.591 136.903  0.00  0.00    +0.000 OA
ATOM      4  O   UNL     1     109.723 125.608 134.612  0.00  0.00    +0.000 OA
ATOM      5  C   UNL     1     112.604 126.675 136.915  0.00  0.00    +0.000 C 
ATOM      6  C   UNL     1     112.468 127.269 136.358  0.00  0.00    +0.000 C 
ATOM      7  C   UNL     1     112.144 125.989 136.906  0.00  0.00    +0.000 C 
ATOM      8  C   UNL     1     111.550 125.898 136.342  0.00  0.00    +0.000 A 
ATOM      9  C   UNL     1     111.415 126.492 135.785  0.00  0.00    +0.000 A 
ATOM     10  C   UNL     1     111.078 125.179 136.344  0.00  0.00    +0.000 A 
ATOM     11  C   UNL     1     110.798 126.409 135.192  0.00  0.00    +0.000 A 
ATOM     12  C   UNL     1     110.458 125.078 135.758  0.00  0.00    +0.000 A 
ATOM     13  C   UNL     1     110.317 125.697 135.178  0.00  0.00    +0.000 A 
ENDROOT
BRANCH   6  14
ATOM     14  C   UNL     1     112.927 127.954 136.367  0.00  0.00    +0.000 A 
ATOM     15  C   UNL     1     112.601 128.666 136.627  0.00  0.00    +0.000 A 
ATOM     16  C   UNL     1     113.061 129.352 136.636  0.00  0.00    +0.000 A 
ATOM     17  C   UNL     1     113.713 127.928 136.115  0.00  0.00    +0.000 A 
ATOM     18  C   UNL     1     113.845 129.325 136.384  0.00  0.00    +0.000 A 
ATOM     19  C   UNL     1     114.172 128.613 136.124  0.00  0.00    +0.000 A 
BRANCH  16  20
ATOM     20  O   UNL     1     112.734 130.063 136.896  0.00  0.00    +0.000 OA
BRANCH  20  28
ATOM     21  O   UNL     1     113.396 130.199 138.156  0.00  0.00    +0.000 OA
ATOM     22  O   UNL     1     111.247 130.812 139.219  0.00  0.00    +0.000 OA
ATOM     23  O   UNL     1     111.302 130.472 137.605  0.00  0.00    +0.000 OA
ATOM     24  O   UNL     1     112.625 130.743 140.124  0.00  0.00    +0.000 OA
ATOM     25  C   UNL     1     111.963 130.608 138.865  0.00  0.00    +0.000 C 
ATOM     26  C   UNL     1     111.991 130.438 138.058  0.00  0.00    +0.000 C 
ATOM     27  C   UNL     1     112.653 130.573 139.317  0.00  0.00    +0.000 C 
ATOM     28  C   UNL     1     112.708 130.233 137.704  0.00  0.00    +0.000 C 
ATOM     29  C   UNL     1     113.369 130.369 138.963  0.00  0.00    +0.000 C 
BRANCH  29  32
ATOM     30  O   UNL     1     114.219 129.666 139.872  0.00  0.00    +0.000 OA
ATOM     31  O   UNL     1     114.585 130.968 139.412  0.00  0.00    +0.000 OA
ATOM     32  C   UNL     1     114.057 130.334 139.415  0.00  0.00    +0.000 C 
ENDBRANCH  29  32
ENDBRANCH  20  28
ENDBRANCH  16  20
ENDBRANCH   6  14
BRANCH   5  33
ATOM     33  O   UNL     1     113.198 126.766 137.480  0.00  0.00    +0.000 OA
BRANCH  33  39
ATOM     34  O   UNL     1     112.296 126.973 138.622  0.00  0.00    +0.000 OA
ATOM     35  O   UNL     1     114.277 126.201 138.797  0.00  0.00    +0.000 OA
ATOM     36  O   UNL     1     113.388 126.355 140.348  0.00  0.00    +0.000 OA
ATOM     37  C   UNL     1     113.508 126.482 138.889  0.00  0.00    +0.000 C 
ATOM     38  C   UNL     1     113.099 126.553 139.601  0.00  0.00    +0.000 C 
ATOM     39  C   UNL     1     113.011 126.742 138.283  0.00  0.00    +0.000 C 
ATOM     40  C   UNL     1     112.350 126.857 139.436  0.00  0.00    +0.000 C 
BRANCH  40  42
ATOM     41  O   UNL     1     111.109 127.477 139.778  0.00  0.00    +0.000 OA
ATOM     42  C   UNL     1     111.758 127.016 139.990  0.00  0.00    +0.000 C 
ENDBRANCH  40  42
ENDBRANCH  33  39
ENDBRANCH   5  33
TORSDOF 7
ENDMDL
MODEL 8
REMARK VINA RESULT:      -9.3      2.451      4.237
REMARK  Name = 131836794
REMARK  7 active torsions:
REMARK  status: ('A' for Active; 'I' for Inactive)
REMARK    1  A    between atoms: O_2  and  C_19
REMARK    2  A    between atoms: O_2  and  C_21
REMARK    3  A    between atoms: O_7  and  C_26
REMARK    4  A    between atoms: O_7  and  C_34
REMARK    5  A    between atoms: C_20  and  C_27
REMARK    6  A    between atoms: C_22  and  C_30
REMARK    7  A    between atoms: C_28  and  C_35
REMARK                            x       y       z     vdW  Elec       q    Type
REMARK                         _______ _______ _______ _____ _____    ______ ____
ROOT
ATOM      1  O   UNL     1     113.848 126.235 138.427  0.00  0.00    +0.000 OA
ATOM      2  O   UNL     1     111.637 125.129 138.305  0.00  0.00    +0.000 OA
ATOM      3  O   UNL     1     112.033 124.406 137.121  0.00  0.00    +0.000 OA
ATOM      4  O   UNL     1     114.716 124.809 136.040  0.00  0.00    +0.000 OA
ATOM      5  C   UNL     1     112.534 126.034 138.952  0.00  0.00    +0.000 C 
ATOM      6  C   UNL     1     113.271 126.403 138.992  0.00  0.00    +0.000 C 
ATOM      7  C   UNL     1     112.374 125.497 138.345  0.00  0.00    +0.000 C 
ATOM      8  C   UNL     1     112.951 125.330 137.780  0.00  0.00    +0.000 A 
ATOM      9  C   UNL     1     113.688 125.699 137.821  0.00  0.00    +0.000 A 
ATOM     10  C   UNL     1     112.772 124.769 137.153  0.00  0.00    +0.000 A 
ATOM     11  C   UNL     1     114.297 125.533 137.238  0.00  0.00    +0.000 A 
ATOM     12  C   UNL     1     113.369 124.591 136.562  0.00  0.00    +0.000 A 
ATOM     13  C   UNL     1     114.137 124.975 136.604  0.00  0.00    +0.000 A 
ENDROOT
BRANCH   6  14
ATOM     14  C   UNL     1     113.431 126.939 139.598  0.00  0.00    +0.000 A 
ATOM     15  C   UNL     1     113.483 127.745 139.432  0.00  0.00    +0.000 A 
ATOM     16  C   UNL     1     113.643 128.283 140.038  0.00  0.00    +0.000 A 
ATOM     17  C   UNL     1     113.538 126.670 140.371  0.00  0.00    +0.000 A 
ATOM     18  C   UNL     1     113.750 128.012 140.810  0.00  0.00    +0.000 A 
ATOM     19  C   UNL     1     113.698 127.206 140.976  0.00  0.00    +0.000 A 
BRANCH  16  20
ATOM     20  O   UNL     1     113.696 129.089 139.872  0.00  0.00    +0.000 OA
BRANCH  20  28
ATOM     21  O   UNL     1     112.514 129.546 140.533  0.00  0.00    +0.000 OA
ATOM     22  O   UNL     1     111.980 130.978 138.586  0.00  0.00    +0.000 OA
ATOM     23  O   UNL     1     113.340 130.044 138.574  0.00  0.00    +0.000 OA
ATOM     24  O   UNL     1     110.976 130.958 139.895  0.00  0.00    +0.000 OA
ATOM     25  C   UNL     1     112.158 130.501 139.235  0.00  0.00    +0.000 C 
ATOM     26  C   UNL     1     112.838 130.033 139.230  0.00  0.00    +0.000 C 
ATOM     27  C   UNL     1     111.656 130.491 139.890  0.00  0.00    +0.000 C 
ATOM     28  C   UNL     1     113.016 129.556 139.879  0.00  0.00    +0.000 C 
ATOM     29  C   UNL     1     111.834 130.013 140.539  0.00  0.00    +0.000 C 
BRANCH  29  32
ATOM     30  O   UNL     1     110.676 129.504 141.203  0.00  0.00    +0.000 OA
ATOM     31  O   UNL     1     111.487 130.494 141.839  0.00  0.00    +0.000 OA
ATOM     32  C   UNL     1     111.332 130.004 141.193  0.00  0.00    +0.000 C 
ENDBRANCH  29  32
ENDBRANCH  20  28
ENDBRANCH  16  20
ENDBRANCH   6  14
BRANCH   5  33
ATOM     33  O   UNL     1     111.957 126.201 139.517  0.00  0.00    +0.000 OA
BRANCH  33  39
ATOM     34  O   UNL     1     111.107 127.018 138.638  0.00  0.00    +0.000 OA
ATOM     35  O   UNL     1     110.379 125.946 140.334  0.00  0.00    +0.000 OA
ATOM     36  O   UNL     1     109.131 126.865 139.430  0.00  0.00    +0.000 OA
ATOM     37  C   UNL     1     110.508 126.405 139.661  0.00  0.00    +0.000 C 
ATOM     38  C   UNL     1     109.935 126.828 139.246  0.00  0.00    +0.000 C 
ATOM     39  C   UNL     1     111.233 126.523 139.285  0.00  0.00    +0.000 C 
ATOM     40  C   UNL     1     110.305 127.206 138.614  0.00  0.00    +0.000 C 
BRANCH  40  42
ATOM     41  O   UNL     1     110.391 128.125 137.522  0.00  0.00    +0.000 OA
ATOM     42  C   UNL     1     109.937 127.689 138.054  0.00  0.00    +0.000 C 
ENDBRANCH  40  42
ENDBRANCH  33  39
ENDBRANCH   5  33
TORSDOF 7
ENDMDL
MODEL 9
REMARK VINA RESULT:      -9.3      1.482      2.468
REMARK  Name = 131836794
REMARK  7 active torsions:
REMARK  status: ('A' for Active; 'I' for Inactive)
REMARK    1  A    between atoms: O_2  and  C_19
REMARK    2  A    between atoms: O_2  and  C_21
REMARK    3  A    between atoms: O_7  and  C_26
REMARK    4  A    between atoms: O_7  and  C_34
REMARK    5  A    between atoms: C_20  and  C_27
REMARK    6  A    between atoms: C_22  and  C_30
REMARK    7  A    between atoms: C_28  and  C_35
REMARK                            x       y       z     vdW  Elec       q    Type
REMARK                         _______ _______ _______ _____ _____    ______ ____
ROOT
ATOM      1  O   UNL     1     111.257 125.590 136.154  0.00  0.00    +0.000 OA
ATOM      2  O   UNL     1     113.597 126.368 136.361  0.00  0.00    +0.000 OA
ATOM      3  O   UNL     1     114.016 125.073 136.836  0.00  0.00    +0.000 OA
ATOM      4  O   UNL     1     112.030 122.950 137.108  0.00  0.00    +0.000 OA
ATOM      5  C   UNL     1     112.232 126.626 136.023  0.00  0.00    +0.000 C 
ATOM      6  C   UNL     1     111.452 126.367 135.954  0.00  0.00    +0.000 C 
ATOM      7  C   UNL     1     112.817 126.109 136.292  0.00  0.00    +0.000 C 
ATOM      8  C   UNL     1     112.621 125.333 136.492  0.00  0.00    +0.000 A 
ATOM      9  C   UNL     1     111.841 125.074 136.423  0.00  0.00    +0.000 A 
ATOM     10  C   UNL     1     113.239 124.805 136.771  0.00  0.00    +0.000 A 
ATOM     11  C   UNL     1     111.624 124.267 136.628  0.00  0.00    +0.000 A 
ATOM     12  C   UNL     1     113.042 123.995 136.980  0.00  0.00    +0.000 A 
ATOM     13  C   UNL     1     112.228 123.725 136.909  0.00  0.00    +0.000 A 
ENDROOT
BRANCH   6  14
ATOM     14  C   UNL     1     110.868 126.883 135.685  0.00  0.00    +0.000 A 
ATOM     15  C   UNL     1     110.341 127.223 136.220  0.00  0.00    +0.000 A 
ATOM     16  C   UNL     1     109.756 127.741 135.951  0.00  0.00    +0.000 A 
ATOM     17  C   UNL     1     110.811 127.060 134.881  0.00  0.00    +0.000 A 
ATOM     18  C   UNL     1     109.700 127.917 135.147  0.00  0.00    +0.000 A 
ATOM     19  C   UNL     1     110.228 127.576 134.612  0.00  0.00    +0.000 A 
BRANCH  16  20
ATOM     20  O   UNL     1     109.229 128.081 136.487  0.00  0.00    +0.000 OA
BRANCH  20  28
ATOM     21  O   UNL     1     109.643 129.445 136.386  0.00  0.00    +0.000 OA
ATOM     22  O   UNL     1     109.507 129.667 138.847  0.00  0.00    +0.000 OA
ATOM     23  O   UNL     1     109.138 128.229 138.127  0.00  0.00    +0.000 OA
ATOM     24  O   UNL     1     109.967 130.957 137.927  0.00  0.00    +0.000 OA
ATOM     25  C   UNL     1     109.552 129.593 138.027  0.00  0.00    +0.000 C 
ATOM     26  C   UNL     1     109.368 128.875 137.666  0.00  0.00    +0.000 C 
ATOM     27  C   UNL     1     109.782 130.239 137.566  0.00  0.00    +0.000 C 
ATOM     28  C   UNL     1     109.413 128.801 136.846  0.00  0.00    +0.000 C 
ATOM     29  C   UNL     1     109.828 130.164 136.746  0.00  0.00    +0.000 C 
BRANCH  29  32
ATOM     30  O   UNL     1     109.487 131.286 135.928  0.00  0.00    +0.000 OA
ATOM     31  O   UNL     1     110.859 130.977 136.183  0.00  0.00    +0.000 OA
ATOM     32  C   UNL     1     110.058 130.809 136.286  0.00  0.00    +0.000 C 
ENDBRANCH  29  32
ENDBRANCH  20  28
ENDBRANCH  16  20
ENDBRANCH   6  14
BRANCH   5  33
ATOM     33  O   UNL     1     112.429 127.402 135.823  0.00  0.00    +0.000 OA
BRANCH  33  39
ATOM     34  O   UNL     1     112.659 127.841 137.207  0.00  0.00    +0.000 OA
ATOM     35  O   UNL     1     113.472 128.825 135.496  0.00  0.00    +0.000 OA
ATOM     36  O   UNL     1     113.909 129.567 137.070  0.00  0.00    +0.000 OA
ATOM     37  C   UNL     1     113.235 128.559 136.239  0.00  0.00    +0.000 C 
ATOM     38  C   UNL     1     113.435 128.899 136.963  0.00  0.00    +0.000 C 
ATOM     39  C   UNL     1     112.755 127.904 136.390  0.00  0.00    +0.000 C 
ATOM     40  C   UNL     1     113.079 128.456 137.561  0.00  0.00    +0.000 C 
BRANCH  40  42
ATOM     41  O   UNL     1     112.557 128.313 138.883  0.00  0.00    +0.000 OA
ATOM     42  C   UNL     1     113.134 128.602 138.371  0.00  0.00    +0.000 C 
ENDBRANCH  40  42
ENDBRANCH  33  39
ENDBRANCH   5  33
TORSDOF 7
ENDMDL
MODEL 10
REMARK VINA RESULT:      -9.2      1.642      3.401
REMARK  Name = 131836794
REMARK  7 active torsions:
REMARK  status: ('A' for Active; 'I' for Inactive)
REMARK    1  A    between atoms: O_2  and  C_19
REMARK    2  A    between atoms: O_2  and  C_21
REMARK    3  A    between atoms: O_7  and  C_26
REMARK    4  A    between atoms: O_7  and  C_34
REMARK    5  A    between atoms: C_20  and  C_27
REMARK    6  A    between atoms: C_22  and  C_30
REMARK    7  A    between atoms: C_28  and  C_35
REMARK                            x       y       z     vdW  Elec       q    Type
REMARK                         _______ _______ _______ _____ _____    ______ ____
ROOT
ATOM      1  O   UNL     1     111.944 126.752 137.477  0.00  0.00    +0.000 OA
ATOM      2  O   UNL     1     111.135 127.034 135.155  0.00  0.00    +0.000 OA
ATOM      3  O   UNL     1     110.989 125.607 135.003  0.00  0.00    +0.000 OA
ATOM      4  O   UNL     1     111.674 123.862 137.242  0.00  0.00    +0.000 OA
ATOM      5  C   UNL     1     111.607 127.602 136.379  0.00  0.00    +0.000 C 
ATOM      6  C   UNL     1     111.877 127.508 137.153  0.00  0.00    +0.000 C 
ATOM      7  C   UNL     1     111.405 126.940 135.929  0.00  0.00    +0.000 C 
ATOM      8  C   UNL     1     111.472 126.185 136.254  0.00  0.00    +0.000 A 
ATOM      9  C   UNL     1     111.741 126.091 137.028  0.00  0.00    +0.000 A 
ATOM     10  C   UNL     1     111.258 125.503 135.775  0.00  0.00    +0.000 A 
ATOM     11  C   UNL     1     111.815 125.309 137.378  0.00  0.00    +0.000 A 
ATOM     12  C   UNL     1     111.325 124.714 136.108  0.00  0.00    +0.000 A 
ATOM     13  C   UNL     1     111.606 124.616 136.915  0.00  0.00    +0.000 A 
ENDROOT
BRANCH   6  14
ATOM     14  C   UNL     1     112.079 128.169 137.602  0.00  0.00    +0.000 A 
ATOM     15  C   UNL     1     111.594 128.409 138.225  0.00  0.00    +0.000 A 
ATOM     16  C   UNL     1     111.797 129.071 138.675  0.00  0.00    +0.000 A 
ATOM     17  C   UNL     1     112.766 128.592 137.429  0.00  0.00    +0.000 A 
ATOM     18  C   UNL     1     112.484 129.493 138.501  0.00  0.00    +0.000 A 
ATOM     19  C   UNL     1     112.968 129.253 137.877  0.00  0.00    +0.000 A 
BRANCH  16  20
ATOM     20  O   UNL     1     111.312 129.310 139.298  0.00  0.00    +0.000 OA
BRANCH  20  28
ATOM     21  O   UNL     1     110.767 130.521 138.770  0.00  0.00    +0.000 OA
ATOM     22  O   UNL     1     108.503 129.809 139.474  0.00  0.00    +0.000 OA
ATOM     23  O   UNL     1     109.803 128.835 139.767  0.00  0.00    +0.000 OA
ATOM     24  O   UNL     1     108.713 131.257 138.712  0.00  0.00    +0.000 OA
ATOM     25  C   UNL     1     109.258 130.046 139.240  0.00  0.00    +0.000 C 
ATOM     26  C   UNL     1     109.908 129.560 139.386  0.00  0.00    +0.000 C 
ATOM     27  C   UNL     1     109.363 130.771 138.858  0.00  0.00    +0.000 C 
ATOM     28  C   UNL     1     110.662 129.797 139.151  0.00  0.00    +0.000 C 
ATOM     29  C   UNL     1     110.117 131.008 138.623  0.00  0.00    +0.000 C 
BRANCH  29  32
ATOM     30  O   UNL     1     110.403 132.407 138.681  0.00  0.00    +0.000 OA
ATOM     31  O   UNL     1     110.144 131.781 137.423  0.00  0.00    +0.000 OA
ATOM     32  C   UNL     1     110.222 131.732 138.242  0.00  0.00    +0.000 C 
ENDBRANCH  29  32
ENDBRANCH  20  28
ENDBRANCH  16  20
ENDBRANCH   6  14
BRANCH   5  33
ATOM     33  O   UNL     1     111.540 128.357 136.054  0.00  0.00    +0.000 OA
BRANCH  33  39
ATOM     34  O   UNL     1     110.071 128.396 136.090  0.00  0.00    +0.000 OA
ATOM     35  O   UNL     1     111.259 129.582 134.773  0.00  0.00    +0.000 OA
ATOM     36  O   UNL     1     109.488 129.822 134.613  0.00  0.00    +0.000 OA
ATOM     37  C   UNL     1     110.677 129.197 135.211  0.00  0.00    +0.000 C 
ATOM     38  C   UNL     1     109.863 129.307 135.138  0.00  0.00    +0.000 C 
ATOM     39  C   UNL     1     110.806 128.633 135.800  0.00  0.00    +0.000 C 
ATOM     40  C   UNL     1     109.489 128.811 135.681  0.00  0.00    +0.000 C 
BRANCH  40  42
ATOM     41  O   UNL     1     108.379 128.242 136.378  0.00  0.00    +0.000 OA
ATOM     42  C   UNL     1     108.674 128.744 135.795  0.00  0.00    +0.000 C 
ENDBRANCH  40  42
ENDBRANCH  33  39
ENDBRANCH   5  33
TORSDOF 7
ENDMDL
