MODEL 1
REMARK VINA RESULT:     -11.4      0.000      0.000
REMARK  Name = 44257660
REMARK  3 active torsions:
REMARK  status: ('A' for Active; 'I' for Inactive)
REMARK    1  A    between atoms: C_14  and  C_19
REMARK    2  A    between atoms: C_15  and  C_21
REMARK    3  A    between atoms: C_31  and  C_33
REMARK                            x       y       z     vdW  Elec       q    Type
REMARK                         _______ _______ _______ _____ _____    ______ ____
ROOT
ATOM      1  O   UNL     1     110.583 127.384 136.199  0.00  0.00    +0.000 OA
ATOM      2  O   UNL     1     110.468 130.254 135.978  0.00  0.00    +0.000 OA
ATOM      3  O   UNL     1     108.053 128.735 135.807  0.00  0.00    +0.000 OA
ATOM      4  O   UNL     1     108.069 127.295 135.912  0.00  0.00    +0.000 OA
ATOM      5  C   UNL     1     110.511 128.830 136.086  0.00  0.00    +0.000 A 
ATOM      6  C   UNL     1     109.261 129.494 135.893  0.00  0.00    +0.000 A 
ATOM      7  C   UNL     1     110.080 129.526 135.986  0.00  0.00    +0.000 A 
ATOM      8  C   UNL     1     110.123 128.101 136.093  0.00  0.00    +0.000 A 
ATOM      9  C   UNL     1     108.873 128.766 135.900  0.00  0.00    +0.000 A 
ATOM     10  C   UNL     1     109.304 128.070 136.000  0.00  0.00    +0.000 A 
ATOM     11  C   UNL     1     108.888 127.318 136.006  0.00  0.00    +0.000 A 
ATOM     12  C   UNL     1     110.185 126.622 136.207  0.00  0.00    +0.000 A 
ATOM     13  C   UNL     1     109.332 126.589 136.110  0.00  0.00    +0.000 A 
ENDROOT
BRANCH   5  18
ATOM     14  O   UNL     1     111.660 128.862 136.935  0.00  0.00    +0.000 OA
ATOM     15  O   UNL     1     111.490 128.893 134.760  0.00  0.00    +0.000 OA
ATOM     16  O   UNL     1     113.128 128.957 134.946  0.00  0.00    +0.000 OA
ATOM     17  O   UNL     1     113.787 128.957 136.459  0.00  0.00    +0.000 OA
ATOM     18  C   UNL     1     111.330 128.862 136.179  0.00  0.00    +0.000 C 
ATOM     19  C   UNL     1     111.820 128.893 135.515  0.00  0.00    +0.000 C 
ATOM     20  C   UNL     1     112.639 128.925 135.609  0.00  0.00    +0.000 C 
ATOM     21  C   UNL     1     112.968 128.925 136.365  0.00  0.00    +0.000 C 
ATOM     22  C   UNL     1     112.479 128.893 137.028  0.00  0.00    +0.000 C 
ENDBRANCH   5  18
BRANCH   6  27
ATOM     23  O   UNL     1     108.726 130.505 135.037  0.00  0.00    +0.000 OA
ATOM     24  O   UNL     1     108.607 130.256 137.202  0.00  0.00    +0.000 OA
ATOM     25  O   UNL     1     107.744 131.648 137.001  0.00  0.00    +0.000 OA
ATOM     26  O   UNL     1     107.536 132.279 135.490  0.00  0.00    +0.000 OA
ATOM     27  C   UNL     1     108.830 130.191 135.792  0.00  0.00    +0.000 C 
ATOM     28  C   UNL     1     108.502 130.571 136.447  0.00  0.00    +0.000 C 
ATOM     29  C   UNL     1     108.072 131.267 136.346  0.00  0.00    +0.000 C 
ATOM     30  C   UNL     1     107.968 131.582 135.592  0.00  0.00    +0.000 C 
ATOM     31  C   UNL     1     108.295 131.201 134.937  0.00  0.00    +0.000 C 
ENDBRANCH   6  27
BRANCH  12  33
ATOM     32  O   UNL     1     111.918 123.844 136.611  0.00  0.00    +0.000 OA
ATOM     33  C   UNL     1     110.618 125.927 136.308  0.00  0.00    +0.000 A 
ATOM     34  C   UNL     1     110.865 125.496 135.649  0.00  0.00    +0.000 A 
ATOM     35  C   UNL     1     110.805 125.664 137.067  0.00  0.00    +0.000 A 
ATOM     36  C   UNL     1     111.299 124.801 135.751  0.00  0.00    +0.000 A 
ATOM     37  C   UNL     1     111.238 124.970 137.168  0.00  0.00    +0.000 A 
ATOM     38  C   UNL     1     111.485 124.538 136.510  0.00  0.00    +0.000 A 
ENDBRANCH  12  33
TORSDOF 3
ENDMDL
MODEL 2
REMARK VINA RESULT:     -11.0      3.277      5.226
REMARK  Name = 44257660
REMARK  3 active torsions:
REMARK  status: ('A' for Active; 'I' for Inactive)
REMARK    1  A    between atoms: C_14  and  C_19
REMARK    2  A    between atoms: C_15  and  C_21
REMARK    3  A    between atoms: C_31  and  C_33
REMARK                            x       y       z     vdW  Elec       q    Type
REMARK                         _______ _______ _______ _____ _____    ______ ____
ROOT
ATOM      1  O   UNL     1     113.314 127.328 138.426  0.00  0.00    +0.000 OA
ATOM      2  O   UNL     1     112.916 130.097 139.115  0.00  0.00    +0.000 OA
ATOM      3  O   UNL     1     113.829 128.270 141.113  0.00  0.00    +0.000 OA
ATOM      4  O   UNL     1     114.041 126.875 140.808  0.00  0.00    +0.000 OA
ATOM      5  C   UNL     1     113.117 128.721 138.786  0.00  0.00    +0.000 A 
ATOM      6  C   UNL     1     113.372 129.183 140.113  0.00  0.00    +0.000 A 
ATOM      7  C   UNL     1     113.135 129.333 139.338  0.00  0.00    +0.000 A 
ATOM      8  C   UNL     1     113.337 127.957 139.009  0.00  0.00    +0.000 A 
ATOM      9  C   UNL     1     113.592 128.420 140.338  0.00  0.00    +0.000 A 
ATOM     10  C   UNL     1     113.574 127.807 139.785  0.00  0.00    +0.000 A 
ATOM     11  C   UNL     1     113.805 127.017 140.030  0.00  0.00    +0.000 A 
ATOM     12  C   UNL     1     113.541 126.530 138.652  0.00  0.00    +0.000 A 
ATOM     13  C   UNL     1     113.788 126.374 139.460  0.00  0.00    +0.000 A 
ENDROOT
BRANCH   5  18
ATOM     14  O   UNL     1     113.444 129.014 137.426  0.00  0.00    +0.000 OA
ATOM     15  O   UNL     1     111.512 128.736 138.403  0.00  0.00    +0.000 OA
ATOM     16  O   UNL     1     111.038 129.037 136.852  0.00  0.00    +0.000 OA
ATOM     17  O   UNL     1     112.168 129.322 135.684  0.00  0.00    +0.000 OA
ATOM     18  C   UNL     1     112.880 128.871 138.011  0.00  0.00    +0.000 C 
ATOM     19  C   UNL     1     112.077 128.879 137.819  0.00  0.00    +0.000 C 
ATOM     20  C   UNL     1     111.839 129.029 137.043  0.00  0.00    +0.000 C 
ATOM     21  C   UNL     1     112.405 129.172 136.459  0.00  0.00    +0.000 C 
ATOM     22  C   UNL     1     113.207 129.164 136.651  0.00  0.00    +0.000 C 
ENDBRANCH   5  18
BRANCH   6  27
ATOM     23  O   UNL     1     112.735 129.937 141.146  0.00  0.00    +0.000 OA
ATOM     24  O   UNL     1     114.719 130.126 140.256  0.00  0.00    +0.000 OA
ATOM     25  O   UNL     1     114.755 131.351 141.361  0.00  0.00    +0.000 OA
ATOM     26  O   UNL     1     113.444 131.634 142.322  0.00  0.00    +0.000 OA
ATOM     27  C   UNL     1     113.390 129.796 140.666  0.00  0.00    +0.000 C 
ATOM     28  C   UNL     1     114.064 130.268 140.737  0.00  0.00    +0.000 C 
ATOM     29  C   UNL     1     114.081 130.880 141.289  0.00  0.00    +0.000 C 
ATOM     30  C   UNL     1     113.427 131.021 141.770  0.00  0.00    +0.000 C 
ATOM     31  C   UNL     1     112.753 130.550 141.698  0.00  0.00    +0.000 C 
ENDBRANCH   6  27
BRANCH  12  33
ATOM     32  O   UNL     1     113.467 124.087 136.436  0.00  0.00    +0.000 OA
ATOM     33  C   UNL     1     113.522 125.919 138.098  0.00  0.00    +0.000 A 
ATOM     34  C   UNL     1     112.813 125.531 137.937  0.00  0.00    +0.000 A 
ATOM     35  C   UNL     1     114.213 125.697 137.706  0.00  0.00    +0.000 A 
ATOM     36  C   UNL     1     112.795 124.919 137.382  0.00  0.00    +0.000 A 
ATOM     37  C   UNL     1     114.195 125.087 137.152  0.00  0.00    +0.000 A 
ATOM     38  C   UNL     1     113.485 124.697 136.990  0.00  0.00    +0.000 A 
ENDBRANCH  12  33
TORSDOF 3
ENDMDL
MODEL 3
REMARK VINA RESULT:     -10.7      1.306      1.928
REMARK  Name = 44257660
REMARK  3 active torsions:
REMARK  status: ('A' for Active; 'I' for Inactive)
REMARK    1  A    between atoms: C_14  and  C_19
REMARK    2  A    between atoms: C_15  and  C_21
REMARK    3  A    between atoms: C_31  and  C_33
REMARK                            x       y       z     vdW  Elec       q    Type
REMARK                         _______ _______ _______ _____ _____    ______ ____
ROOT
ATOM      1  O   UNL     1     111.496 126.494 136.693  0.00  0.00    +0.000 OA
ATOM      2  O   UNL     1     110.687 129.239 137.027  0.00  0.00    +0.000 OA
ATOM      3  O   UNL     1     109.678 127.737 134.815  0.00  0.00    +0.000 OA
ATOM      4  O   UNL     1     110.059 126.360 134.612  0.00  0.00    +0.000 OA
ATOM      5  C   UNL     1     111.080 127.876 136.849  0.00  0.00    +0.000 A 
ATOM      6  C   UNL     1     110.183 128.487 135.921  0.00  0.00    +0.000 A 
ATOM      7  C   UNL     1     110.650 128.534 136.599  0.00  0.00    +0.000 A 
ATOM      8  C   UNL     1     111.043 127.171 136.422  0.00  0.00    +0.000 A 
ATOM      9  C   UNL     1     110.145 127.784 135.493  0.00  0.00    +0.000 A 
ATOM     10  C   UNL     1     110.576 127.125 135.744  0.00  0.00    +0.000 A 
ATOM     11  C   UNL     1     110.529 126.398 135.290  0.00  0.00    +0.000 A 
ATOM     12  C   UNL     1     111.461 125.757 136.252  0.00  0.00    +0.000 A 
ATOM     13  C   UNL     1     110.974 125.708 135.545  0.00  0.00    +0.000 A 
ENDROOT
BRANCH   5  18
ATOM     14  O   UNL     1     111.251 127.662 138.252  0.00  0.00    +0.000 OA
ATOM     15  O   UNL     1     112.608 128.492 136.758  0.00  0.00    +0.000 OA
ATOM     16  O   UNL     1     113.543 128.585 138.115  0.00  0.00    +0.000 OA
ATOM     17  O   UNL     1     112.949 128.062 139.563  0.00  0.00    +0.000 OA
ATOM     18  C   UNL     1     111.547 127.923 137.528  0.00  0.00    +0.000 C 
ATOM     19  C   UNL     1     112.312 128.231 137.482  0.00  0.00    +0.000 C 
ATOM     20  C   UNL     1     112.779 128.277 138.161  0.00  0.00    +0.000 C 
ATOM     21  C   UNL     1     112.482 128.015 138.884  0.00  0.00    +0.000 C 
ATOM     22  C   UNL     1     111.718 127.708 138.930  0.00  0.00    +0.000 C 
ENDBRANCH   5  18
BRANCH   6  27
ATOM     23  O   UNL     1     110.086 129.676 135.133  0.00  0.00    +0.000 OA
ATOM     24  O   UNL     1     108.657 128.743 136.494  0.00  0.00    +0.000 OA
ATOM     25  O   UNL     1     107.797 130.059 135.993  0.00  0.00    +0.000 OA
ATOM     26  O   UNL     1     108.463 131.119 134.918  0.00  0.00    +0.000 OA
ATOM     27  C   UNL     1     109.752 129.146 135.670  0.00  0.00    +0.000 C 
ATOM     28  C   UNL     1     108.989 129.274 135.957  0.00  0.00    +0.000 C 
ATOM     29  C   UNL     1     108.560 129.931 135.706  0.00  0.00    +0.000 C 
ATOM     30  C   UNL     1     108.892 130.461 135.170  0.00  0.00    +0.000 C 
ATOM     31  C   UNL     1     109.656 130.333 134.883  0.00  0.00    +0.000 C 
ENDBRANCH   6  27
BRANCH  12  33
ATOM     32  O   UNL     1     113.186 123.132 137.261  0.00  0.00    +0.000 OA
ATOM     33  C   UNL     1     111.892 125.100 136.504  0.00  0.00    +0.000 A 
ATOM     34  C   UNL     1     111.541 124.542 137.000  0.00  0.00    +0.000 A 
ATOM     35  C   UNL     1     112.674 125.002 136.261  0.00  0.00    +0.000 A 
ATOM     36  C   UNL     1     111.973 123.885 137.252  0.00  0.00    +0.000 A 
ATOM     37  C   UNL     1     113.105 124.346 136.513  0.00  0.00    +0.000 A 
ATOM     38  C   UNL     1     112.755 123.787 137.009  0.00  0.00    +0.000 A 
ENDBRANCH  12  33
TORSDOF 3
ENDMDL
MODEL 4
REMARK VINA RESULT:     -10.6      2.926      6.075
REMARK  Name = 44257660
REMARK  3 active torsions:
REMARK  status: ('A' for Active; 'I' for Inactive)
REMARK    1  A    between atoms: C_14  and  C_19
REMARK    2  A    between atoms: C_15  and  C_21
REMARK    3  A    between atoms: C_31  and  C_33
REMARK                            x       y       z     vdW  Elec       q    Type
REMARK                         _______ _______ _______ _____ _____    ______ ____
ROOT
ATOM      1  O   UNL     1     113.443 128.813 139.395  0.00  0.00    +0.000 OA
ATOM      2  O   UNL     1     112.304 127.351 137.188  0.00  0.00    +0.000 OA
ATOM      3  O   UNL     1     113.017 125.955 139.578  0.00  0.00    +0.000 OA
ATOM      4  O   UNL     1     113.590 126.651 140.705  0.00  0.00    +0.000 OA
ATOM      5  C   UNL     1     112.870 128.064 138.290  0.00  0.00    +0.000 A 
ATOM      6  C   UNL     1     112.661 126.654 138.383  0.00  0.00    +0.000 A 
ATOM      7  C   UNL     1     112.612 127.357 137.954  0.00  0.00    +0.000 A 
ATOM      8  C   UNL     1     113.177 128.070 139.056  0.00  0.00    +0.000 A 
ATOM      9  C   UNL     1     112.968 126.658 139.149  0.00  0.00    +0.000 A 
ATOM     10  C   UNL     1     113.226 127.367 139.485  0.00  0.00    +0.000 A 
ATOM     11  C   UNL     1     113.544 127.359 140.283  0.00  0.00    +0.000 A 
ATOM     12  C   UNL     1     113.764 128.825 140.192  0.00  0.00    +0.000 A 
ATOM     13  C   UNL     1     113.815 128.093 140.639  0.00  0.00    +0.000 A 
ENDROOT
BRANCH   5  18
ATOM     14  O   UNL     1     113.472 129.036 137.433  0.00  0.00    +0.000 OA
ATOM     15  O   UNL     1     111.467 128.932 138.287  0.00  0.00    +0.000 OA
ATOM     16  O   UNL     1     111.368 130.338 137.429  0.00  0.00    +0.000 OA
ATOM     17  O   UNL     1     112.673 130.875 136.573  0.00  0.00    +0.000 OA
ATOM     18  C   UNL     1     112.820 128.767 137.861  0.00  0.00    +0.000 C 
ATOM     19  C   UNL     1     112.118 129.201 137.859  0.00  0.00    +0.000 C 
ATOM     20  C   UNL     1     112.069 129.904 137.430  0.00  0.00    +0.000 C 
ATOM     21  C   UNL     1     112.722 130.172 137.002  0.00  0.00    +0.000 C 
ATOM     22  C   UNL     1     113.423 129.739 137.004  0.00  0.00    +0.000 C 
ENDBRANCH   5  18
BRANCH   6  27
ATOM     23  O   UNL     1     111.622 125.701 138.151  0.00  0.00    +0.000 OA
ATOM     24  O   UNL     1     113.706 125.729 137.504  0.00  0.00    +0.000 OA
ATOM     25  O   UNL     1     113.190 124.313 136.832  0.00  0.00    +0.000 OA
ATOM     26  O   UNL     1     111.628 123.823 137.039  0.00  0.00    +0.000 OA
ATOM     27  C   UNL     1     112.403 125.946 138.047  0.00  0.00    +0.000 C 
ATOM     28  C   UNL     1     112.925 125.483 137.607  0.00  0.00    +0.000 C 
ATOM     29  C   UNL     1     112.667 124.776 137.271  0.00  0.00    +0.000 C 
ATOM     30  C   UNL     1     111.887 124.531 137.375  0.00  0.00    +0.000 C 
ATOM     31  C   UNL     1     111.364 124.993 137.814  0.00  0.00    +0.000 C 
ENDBRANCH   6  27
BRANCH  12  33
ATOM     32  O   UNL     1     114.794 131.661 141.527  0.00  0.00    +0.000 OA
ATOM     33  C   UNL     1     114.021 129.534 140.526  0.00  0.00    +0.000 A 
ATOM     34  C   UNL     1     113.517 129.967 141.015  0.00  0.00    +0.000 A 
ATOM     35  C   UNL     1     114.783 129.810 140.371  0.00  0.00    +0.000 A 
ATOM     36  C   UNL     1     113.775 130.676 141.349  0.00  0.00    +0.000 A 
ATOM     37  C   UNL     1     115.041 130.518 140.704  0.00  0.00    +0.000 A 
ATOM     38  C   UNL     1     114.537 130.952 141.194  0.00  0.00    +0.000 A 
ENDBRANCH  12  33
TORSDOF 3
ENDMDL
MODEL 5
REMARK VINA RESULT:     -10.6      1.572      2.260
REMARK  Name = 44257660
REMARK  3 active torsions:
REMARK  status: ('A' for Active; 'I' for Inactive)
REMARK    1  A    between atoms: C_14  and  C_19
REMARK    2  A    between atoms: C_15  and  C_21
REMARK    3  A    between atoms: C_31  and  C_33
REMARK                            x       y       z     vdW  Elec       q    Type
REMARK                         _______ _______ _______ _____ _____    ______ ____
ROOT
ATOM      1  O   UNL     1     112.504 127.423 136.894  0.00  0.00    +0.000 OA
ATOM      2  O   UNL     1     111.351 129.962 136.169  0.00  0.00    +0.000 OA
ATOM      3  O   UNL     1     109.722 127.995 137.451  0.00  0.00    +0.000 OA
ATOM      4  O   UNL     1     110.262 126.711 137.830  0.00  0.00    +0.000 OA
ATOM      5  C   UNL     1     111.910 128.699 136.534  0.00  0.00    +0.000 A 
ATOM      6  C   UNL     1     110.537 128.978 136.810  0.00  0.00    +0.000 A 
ATOM      7  C   UNL     1     111.267 129.213 136.504  0.00  0.00    +0.000 A 
ATOM      8  C   UNL     1     111.826 127.949 136.869  0.00  0.00    +0.000 A 
ATOM      9  C   UNL     1     110.451 128.229 137.145  0.00  0.00    +0.000 A 
ATOM     10  C   UNL     1     111.096 127.715 137.175  0.00  0.00    +0.000 A 
ATOM     11  C   UNL     1     110.995 126.938 137.527  0.00  0.00    +0.000 A 
ATOM     12  C   UNL     1     112.422 126.641 137.242  0.00  0.00    +0.000 A 
ATOM     13  C   UNL     1     111.663 126.397 137.561  0.00  0.00    +0.000 A 
ENDROOT
BRANCH   5  18
ATOM     14  O   UNL     1     112.854 128.721 135.461  0.00  0.00    +0.000 OA
ATOM     15  O   UNL     1     112.943 129.593 137.459  0.00  0.00    +0.000 OA
ATOM     16  O   UNL     1     114.402 130.063 136.848  0.00  0.00    +0.000 OA
ATOM     17  O   UNL     1     114.828 129.637 135.312  0.00  0.00    +0.000 OA
ATOM     18  C   UNL     1     112.640 128.933 136.229  0.00  0.00    +0.000 C 
ATOM     19  C   UNL     1     113.157 129.381 136.691  0.00  0.00    +0.000 C 
ATOM     20  C   UNL     1     113.886 129.616 136.386  0.00  0.00    +0.000 C 
ATOM     21  C   UNL     1     114.099 129.403 135.617  0.00  0.00    +0.000 C 
ATOM     22  C   UNL     1     113.583 128.956 135.155  0.00  0.00    +0.000 C 
ENDBRANCH   5  18
BRANCH   6  27
ATOM     23  O   UNL     1     109.750 130.012 137.406  0.00  0.00    +0.000 OA
ATOM     24  O   UNL     1     109.533 128.968 135.501  0.00  0.00    +0.000 OA
ATOM     25  O   UNL     1     108.244 129.997 135.442  0.00  0.00    +0.000 OA
ATOM     26  O   UNL     1     107.959 131.035 136.692  0.00  0.00    +0.000 OA
ATOM     27  C   UNL     1     109.892 129.493 136.780  0.00  0.00    +0.000 C 
ATOM     28  C   UNL     1     109.390 129.488 136.126  0.00  0.00    +0.000 C 
ATOM     29  C   UNL     1     108.746 130.002 136.096  0.00  0.00    +0.000 C 
ATOM     30  C   UNL     1     108.604 130.521 136.721  0.00  0.00    +0.000 C 
ATOM     31  C   UNL     1     109.106 130.525 137.376  0.00  0.00    +0.000 C 
ENDBRANCH   6  27
BRANCH  12  33
ATOM     32  O   UNL     1     115.006 124.593 137.357  0.00  0.00    +0.000 OA
ATOM     33  C   UNL     1     113.068 126.129 137.271  0.00  0.00    +0.000 A 
ATOM     34  C   UNL     1     113.219 125.620 136.639  0.00  0.00    +0.000 A 
ATOM     35  C   UNL     1     113.563 126.126 137.931  0.00  0.00    +0.000 A 
ATOM     36  C   UNL     1     113.866 125.108 136.669  0.00  0.00    +0.000 A 
ATOM     37  C   UNL     1     114.209 125.614 137.959  0.00  0.00    +0.000 A 
ATOM     38  C   UNL     1     114.361 125.105 137.328  0.00  0.00    +0.000 A 
ENDBRANCH  12  33
TORSDOF 3
ENDMDL
MODEL 6
REMARK VINA RESULT:     -10.6      0.986      4.677
REMARK  Name = 44257660
REMARK  3 active torsions:
REMARK  status: ('A' for Active; 'I' for Inactive)
REMARK    1  A    between atoms: C_14  and  C_19
REMARK    2  A    between atoms: C_15  and  C_21
REMARK    3  A    between atoms: C_31  and  C_33
REMARK                            x       y       z     vdW  Elec       q    Type
REMARK                         _______ _______ _______ _____ _____    ______ ____
ROOT
ATOM      1  O   UNL     1     110.334 129.071 135.879  0.00  0.00    +0.000 OA
ATOM      2  O   UNL     1     112.313 127.077 136.515  0.00  0.00    +0.000 OA
ATOM      3  O   UNL     1     109.572 126.306 136.271  0.00  0.00    +0.000 OA
ATOM      4  O   UNL     1     108.550 127.275 135.954  0.00  0.00    +0.000 OA
ATOM      5  C   UNL     1     111.321 128.056 136.200  0.00  0.00    +0.000 A 
ATOM      6  C   UNL     1     110.943 126.692 136.393  0.00  0.00    +0.000 A 
ATOM      7  C   UNL     1     111.526 127.275 136.369  0.00  0.00    +0.000 A 
ATOM      8  C   UNL     1     110.534 128.254 136.054  0.00  0.00    +0.000 A 
ATOM      9  C   UNL     1     110.155 126.889 136.247  0.00  0.00    +0.000 A 
ATOM     10  C   UNL     1     109.951 127.671 136.078  0.00  0.00    +0.000 A 
ATOM     11  C   UNL     1     109.127 127.864 135.928  0.00  0.00    +0.000 A 
ATOM     12  C   UNL     1     109.515 129.284 135.726  0.00  0.00    +0.000 A 
ATOM     13  C   UNL     1     108.908 128.676 135.751  0.00  0.00    +0.000 A 
ENDROOT
BRANCH   5  18
ATOM     14  O   UNL     1     112.051 129.104 136.842  0.00  0.00    +0.000 OA
ATOM     15  O   UNL     1     112.195 128.293 134.821  0.00  0.00    +0.000 OA
ATOM     16  O   UNL     1     113.361 129.459 134.773  0.00  0.00    +0.000 OA
ATOM     17  O   UNL     1     113.653 130.389 136.105  0.00  0.00    +0.000 OA
ATOM     18  C   UNL     1     111.904 128.639 136.176  0.00  0.00    +0.000 C 
ATOM     19  C   UNL     1     112.342 128.758 135.486  0.00  0.00    +0.000 C 
ATOM     20  C   UNL     1     112.925 129.341 135.462  0.00  0.00    +0.000 C 
ATOM     21  C   UNL     1     113.070 129.805 136.129  0.00  0.00    +0.000 C 
ATOM     22  C   UNL     1     112.634 129.687 136.818  0.00  0.00    +0.000 C 
ENDBRANCH   5  18
BRANCH   6  27
ATOM     23  O   UNL     1     111.333 125.391 135.949  0.00  0.00    +0.000 OA
ATOM     24  O   UNL     1     110.981 126.170 137.958  0.00  0.00    +0.000 OA
ATOM     25  O   UNL     1     111.389 124.607 138.296  0.00  0.00    +0.000 OA
ATOM     26  O   UNL     1     111.760 123.567 137.070  0.00  0.00    +0.000 OA
ATOM     27  C   UNL     1     111.147 125.910 136.563  0.00  0.00    +0.000 C 
ATOM     28  C   UNL     1     111.166 125.649 137.345  0.00  0.00    +0.000 C 
ATOM     29  C   UNL     1     111.370 124.869 137.514  0.00  0.00    +0.000 C 
ATOM     30  C   UNL     1     111.556 124.349 136.902  0.00  0.00    +0.000 C 
ATOM     31  C   UNL     1     111.537 124.610 136.119  0.00  0.00    +0.000 C 
ENDBRANCH   6  27
BRANCH  12  33
ATOM     32  O   UNL     1     108.707 132.411 135.051  0.00  0.00    +0.000 OA
ATOM     33  C   UNL     1     109.313 130.065 135.557  0.00  0.00    +0.000 A 
ATOM     34  C   UNL     1     109.351 130.343 134.781  0.00  0.00    +0.000 A 
ATOM     35  C   UNL     1     109.073 130.570 136.164  0.00  0.00    +0.000 A 
ATOM     36  C   UNL     1     109.149 131.125 134.612  0.00  0.00    +0.000 A 
ATOM     37  C   UNL     1     108.872 131.351 135.995  0.00  0.00    +0.000 A 
ATOM     38  C   UNL     1     108.909 131.630 135.219  0.00  0.00    +0.000 A 
ENDBRANCH  12  33
TORSDOF 3
ENDMDL
MODEL 7
REMARK VINA RESULT:     -10.5      1.634      2.596
REMARK  Name = 44257660
REMARK  3 active torsions:
REMARK  status: ('A' for Active; 'I' for Inactive)
REMARK    1  A    between atoms: C_14  and  C_19
REMARK    2  A    between atoms: C_15  and  C_21
REMARK    3  A    between atoms: C_31  and  C_33
REMARK                            x       y       z     vdW  Elec       q    Type
REMARK                         _______ _______ _______ _____ _____    ______ ____
ROOT
ATOM      1  O   UNL     1     110.844 126.773 136.830  0.00  0.00    +0.000 OA
ATOM      2  O   UNL     1     109.204 128.924 137.821  0.00  0.00    +0.000 OA
ATOM      3  O   UNL     1     110.203 129.038 135.146  0.00  0.00    +0.000 OA
ATOM      4  O   UNL     1     111.028 127.981 134.612  0.00  0.00    +0.000 OA
ATOM      5  C   UNL     1     110.019 127.863 137.317  0.00  0.00    +0.000 A 
ATOM      6  C   UNL     1     109.704 128.980 136.484  0.00  0.00    +0.000 A 
ATOM      7  C   UNL     1     109.642 128.589 137.207  0.00  0.00    +0.000 A 
ATOM      8  C   UNL     1     110.457 127.529 136.703  0.00  0.00    +0.000 A 
ATOM      9  C   UNL     1     110.142 128.647 135.869  0.00  0.00    +0.000 A 
ATOM     10  C   UNL     1     110.518 127.920 135.979  0.00  0.00    +0.000 A 
ATOM     11  C   UNL     1     110.972 127.583 135.332  0.00  0.00    +0.000 A 
ATOM     12  C   UNL     1     111.302 126.419 136.194  0.00  0.00    +0.000 A 
ATOM     13  C   UNL     1     111.366 126.827 135.440  0.00  0.00    +0.000 A 
ENDROOT
BRANCH   5  18
ATOM     14  O   UNL     1     109.387 126.885 138.145  0.00  0.00    +0.000 OA
ATOM     15  O   UNL     1     111.037 128.253 138.555  0.00  0.00    +0.000 OA
ATOM     16  O   UNL     1     110.914 127.470 140.002  0.00  0.00    +0.000 OA
ATOM     17  O   UNL     1     109.773 126.297 140.211  0.00  0.00    +0.000 OA
ATOM     18  C   UNL     1     109.957 127.472 138.040  0.00  0.00    +0.000 C 
ATOM     19  C   UNL     1     110.467 127.667 138.660  0.00  0.00    +0.000 C 
ATOM     20  C   UNL     1     110.405 127.275 139.383  0.00  0.00    +0.000 C 
ATOM     21  C   UNL     1     109.834 126.689 139.487  0.00  0.00    +0.000 C 
ATOM     22  C   UNL     1     109.325 126.494 138.869  0.00  0.00    +0.000 C 
ENDBRANCH   5  18
BRANCH   6  27
ATOM     23  O   UNL     1     109.729 130.408 136.537  0.00  0.00    +0.000 OA
ATOM     24  O   UNL     1     108.147 129.028 135.938  0.00  0.00    +0.000 OA
ATOM     25  O   UNL     1     107.394 130.480 135.719  0.00  0.00    +0.000 OA
ATOM     26  O   UNL     1     108.198 131.884 136.045  0.00  0.00    +0.000 OA
ATOM     27  C   UNL     1     109.327 129.707 136.374  0.00  0.00    +0.000 C 
ATOM     28  C   UNL     1     108.549 129.731 136.101  0.00  0.00    +0.000 C 
ATOM     29  C   UNL     1     108.173 130.456 135.992  0.00  0.00    +0.000 C 
ATOM     30  C   UNL     1     108.574 131.157 136.154  0.00  0.00    +0.000 C 
ATOM     31  C   UNL     1     109.352 131.133 136.427  0.00  0.00    +0.000 C 
ENDBRANCH   6  27
BRANCH  12  33
ATOM     32  O   UNL     1     112.804 123.515 136.642  0.00  0.00    +0.000 OA
ATOM     33  C   UNL     1     111.678 125.693 136.306  0.00  0.00    +0.000 A 
ATOM     34  C   UNL     1     112.457 125.669 136.575  0.00  0.00    +0.000 A 
ATOM     35  C   UNL     1     111.274 124.991 136.149  0.00  0.00    +0.000 A 
ATOM     36  C   UNL     1     112.833 124.942 136.688  0.00  0.00    +0.000 A 
ATOM     37  C   UNL     1     111.649 124.266 136.261  0.00  0.00    +0.000 A 
ATOM     38  C   UNL     1     112.429 124.240 136.530  0.00  0.00    +0.000 A 
ENDBRANCH  12  33
TORSDOF 3
ENDMDL
MODEL 8
REMARK VINA RESULT:     -10.4      1.606      2.097
REMARK  Name = 44257660
REMARK  3 active torsions:
REMARK  status: ('A' for Active; 'I' for Inactive)
REMARK    1  A    between atoms: C_14  and  C_19
REMARK    2  A    between atoms: C_15  and  C_21
REMARK    3  A    between atoms: C_31  and  C_33
REMARK                            x       y       z     vdW  Elec       q    Type
REMARK                         _______ _______ _______ _____ _____    ______ ____
ROOT
ATOM      1  O   UNL     1     111.659 128.633 136.635  0.00  0.00    +0.000 OA
ATOM      2  O   UNL     1     110.130 131.053 136.964  0.00  0.00    +0.000 OA
ATOM      3  O   UNL     1     109.506 129.280 134.812  0.00  0.00    +0.000 OA
ATOM      4  O   UNL     1     110.248 128.058 134.613  0.00  0.00    +0.000 OA
ATOM      5  C   UNL     1     110.880 129.849 136.789  0.00  0.00    +0.000 A 
ATOM      6  C   UNL     1     109.819 130.166 135.888  0.00  0.00    +0.000 A 
ATOM      7  C   UNL     1     110.277 130.356 136.547  0.00  0.00    +0.000 A 
ATOM      8  C   UNL     1     111.027 129.152 136.373  0.00  0.00    +0.000 A 
ATOM      9  C   UNL     1     109.964 129.470 135.471  0.00  0.00    +0.000 A 
ATOM     10  C   UNL     1     110.569 128.962 135.714  0.00  0.00    +0.000 A 
ATOM     11  C   UNL     1     110.710 128.240 135.271  0.00  0.00    +0.000 A 
ATOM     12  C   UNL     1     111.816 127.905 136.205  0.00  0.00    +0.000 A 
ATOM     13  C   UNL     1     111.339 127.707 135.519  0.00  0.00    +0.000 A 
ENDROOT
BRANCH   5  18
ATOM     14  O   UNL     1     111.151 129.723 138.187  0.00  0.00    +0.000 OA
ATOM     15  O   UNL     1     112.174 130.862 136.631  0.00  0.00    +0.000 OA
ATOM     16  O   UNL     1     113.090 131.242 137.950  0.00  0.00    +0.000 OA
ATOM     17  O   UNL     1     112.713 130.609 139.426  0.00  0.00    +0.000 OA
ATOM     18  C   UNL     1     111.339 130.039 137.449  0.00  0.00    +0.000 C 
ATOM     19  C   UNL     1     111.986 130.546 137.370  0.00  0.00    +0.000 C 
ATOM     20  C   UNL     1     112.444 130.736 138.029  0.00  0.00    +0.000 C 
ATOM     21  C   UNL     1     112.255 130.419 138.767  0.00  0.00    +0.000 C 
ATOM     22  C   UNL     1     111.609 129.913 138.846  0.00  0.00    +0.000 C 
ENDBRANCH   5  18
BRANCH   6  27
ATOM     23  O   UNL     1     109.370 131.263 135.090  0.00  0.00    +0.000 OA
ATOM     24  O   UNL     1     108.301 129.999 136.513  0.00  0.00    +0.000 OA
ATOM     25  O   UNL     1     107.093 131.013 136.028  0.00  0.00    +0.000 OA
ATOM     26  O   UNL     1     107.403 132.194 134.918  0.00  0.00    +0.000 OA
ATOM     27  C   UNL     1     109.214 130.673 135.645  0.00  0.00    +0.000 C 
ATOM     28  C   UNL     1     108.455 130.590 135.958  0.00  0.00    +0.000 C 
ATOM     29  C   UNL     1     107.852 131.097 135.715  0.00  0.00    +0.000 C 
ATOM     30  C   UNL     1     108.006 131.687 135.161  0.00  0.00    +0.000 C 
ATOM     31  C   UNL     1     108.765 131.770 134.848  0.00  0.00    +0.000 C 
ENDBRANCH   6  27
BRANCH  12  33
ATOM     32  O   UNL     1     114.233 125.884 137.184  0.00  0.00    +0.000 OA
ATOM     33  C   UNL     1     112.420 127.400 136.450  0.00  0.00    +0.000 A 
ATOM     34  C   UNL     1     113.195 127.531 136.197  0.00  0.00    +0.000 A 
ATOM     35  C   UNL     1     112.250 126.764 136.947  0.00  0.00    +0.000 A 
ATOM     36  C   UNL     1     113.799 127.025 136.442  0.00  0.00    +0.000 A 
ATOM     37  C   UNL     1     112.854 126.259 137.192  0.00  0.00    +0.000 A 
ATOM     38  C   UNL     1     113.629 126.389 136.940  0.00  0.00    +0.000 A 
ENDBRANCH  12  33
TORSDOF 3
ENDMDL
MODEL 9
REMARK VINA RESULT:     -10.4      3.112      4.905
REMARK  Name = 44257660
REMARK  3 active torsions:
REMARK  status: ('A' for Active; 'I' for Inactive)
REMARK    1  A    between atoms: C_14  and  C_19
REMARK    2  A    between atoms: C_15  and  C_21
REMARK    3  A    between atoms: C_31  and  C_33
REMARK                            x       y       z     vdW  Elec       q    Type
REMARK                         _______ _______ _______ _____ _____    ______ ____
ROOT
ATOM      1  O   UNL     1     112.488 125.958 137.586  0.00  0.00    +0.000 OA
ATOM      2  O   UNL     1     109.717 126.280 138.308  0.00  0.00    +0.000 OA
ATOM      3  O   UNL     1     111.735 126.608 140.305  0.00  0.00    +0.000 OA
ATOM      4  O   UNL     1     113.134 126.455 139.984  0.00  0.00    +0.000 OA
ATOM      5  C   UNL     1     111.095 126.123 137.964  0.00  0.00    +0.000 A 
ATOM      6  C   UNL     1     110.727 126.444 139.306  0.00  0.00    +0.000 A 
ATOM      7  C   UNL     1     110.513 126.282 138.525  0.00  0.00    +0.000 A 
ATOM      8  C   UNL     1     111.891 126.125 138.181  0.00  0.00    +0.000 A 
ATOM      9  C   UNL     1     111.522 126.446 139.524  0.00  0.00    +0.000 A 
ATOM     10  C   UNL     1     112.105 126.287 138.961  0.00  0.00    +0.000 A 
ATOM     11  C   UNL     1     112.929 126.292 139.201  0.00  0.00    +0.000 A 
ATOM     12  C   UNL     1     113.319 125.959 137.807  0.00  0.00    +0.000 A 
ATOM     13  C   UNL     1     113.541 126.127 138.620  0.00  0.00    +0.000 A 
ENDROOT
BRANCH   5  18
ATOM     14  O   UNL     1     110.832 125.181 136.922  0.00  0.00    +0.000 OA
ATOM     15  O   UNL     1     110.768 127.362 136.924  0.00  0.00    +0.000 OA
ATOM     16  O   UNL     1     110.342 127.039 135.363  0.00  0.00    +0.000 OA
ATOM     17  O   UNL     1     110.242 125.476 134.842  0.00  0.00    +0.000 OA
ATOM     18  C   UNL     1     110.882 125.961 137.183  0.00  0.00    +0.000 C 
ATOM     19  C   UNL     1     110.718 126.581 136.663  0.00  0.00    +0.000 C 
ATOM     20  C   UNL     1     110.505 126.420 135.882  0.00  0.00    +0.000 C 
ATOM     21  C   UNL     1     110.455 125.638 135.622  0.00  0.00    +0.000 C 
ATOM     22  C   UNL     1     110.619 125.019 136.142  0.00  0.00    +0.000 C 
ENDBRANCH   5  18
BRANCH   6  27
ATOM     23  O   UNL     1     109.907 127.381 140.007  0.00  0.00    +0.000 OA
ATOM     24  O   UNL     1     110.036 125.207 140.152  0.00  0.00    +0.000 OA
ATOM     25  O   UNL     1     108.872 125.526 141.277  0.00  0.00    +0.000 OA
ATOM     26  O   UNL     1     108.398 127.082 141.555  0.00  0.00    +0.000 OA
ATOM     27  C   UNL     1     110.144 126.604 139.868  0.00  0.00    +0.000 C 
ATOM     28  C   UNL     1     109.799 125.985 140.292  0.00  0.00    +0.000 C 
ATOM     29  C   UNL     1     109.217 126.145 140.854  0.00  0.00    +0.000 C 
ATOM     30  C   UNL     1     108.980 126.922 140.993  0.00  0.00    +0.000 C 
ATOM     31  C   UNL     1     109.325 127.540 140.569  0.00  0.00    +0.000 C 
ENDBRANCH   6  27
BRANCH  12  33
ATOM     32  O   UNL     1     115.639 125.321 135.550  0.00  0.00    +0.000 OA
ATOM     33  C   UNL     1     113.899 125.799 137.243  0.00  0.00    +0.000 A 
ATOM     34  C   UNL     1     114.250 125.053 137.212  0.00  0.00    +0.000 A 
ATOM     35  C   UNL     1     114.129 126.386 136.710  0.00  0.00    +0.000 A 
ATOM     36  C   UNL     1     114.830 124.894 136.647  0.00  0.00    +0.000 A 
ATOM     37  C   UNL     1     114.708 126.227 136.146  0.00  0.00    +0.000 A 
ATOM     38  C   UNL     1     115.060 125.480 136.114  0.00  0.00    +0.000 A 
ENDBRANCH  12  33
TORSDOF 3
ENDMDL
MODEL 10
REMARK VINA RESULT:     -10.2      2.748      4.958
REMARK  Name = 44257660
REMARK  3 active torsions:
REMARK  status: ('A' for Active; 'I' for Inactive)
REMARK    1  A    between atoms: C_14  and  C_19
REMARK    2  A    between atoms: C_15  and  C_21
REMARK    3  A    between atoms: C_31  and  C_33
REMARK                            x       y       z     vdW  Elec       q    Type
REMARK                         _______ _______ _______ _____ _____    ______ ____
ROOT
ATOM      1  O   UNL     1     111.976 127.265 137.196  0.00  0.00    +0.000 OA
ATOM      2  O   UNL     1     110.835 125.122 138.747  0.00  0.00    +0.000 OA
ATOM      3  O   UNL     1     110.037 127.815 139.273  0.00  0.00    +0.000 OA
ATOM      4  O   UNL     1     110.585 128.917 138.519  0.00  0.00    +0.000 OA
ATOM      5  C   UNL     1     111.393 126.195 137.985  0.00  0.00    +0.000 A 
ATOM      6  C   UNL     1     110.437 126.469 139.010  0.00  0.00    +0.000 A 
ATOM      7  C   UNL     1     110.889 125.928 138.580  0.00  0.00    +0.000 A 
ATOM      8  C   UNL     1     111.447 127.001 137.818  0.00  0.00    +0.000 A 
ATOM      9  C   UNL     1     110.489 127.275 138.844  0.00  0.00    +0.000 A 
ATOM     10  C   UNL     1     110.995 127.541 138.248  0.00  0.00    +0.000 A 
ATOM     11  C   UNL     1     111.041 128.383 138.084  0.00  0.00    +0.000 A 
ATOM     12  C   UNL     1     112.036 128.104 137.018  0.00  0.00    +0.000 A 
ATOM     13  C   UNL     1     111.565 128.667 137.465  0.00  0.00    +0.000 A 
ENDROOT
BRANCH   5  18
ATOM     14  O   UNL     1     112.628 125.508 137.770  0.00  0.00    +0.000 OA
ATOM     15  O   UNL     1     110.731 125.406 136.696  0.00  0.00    +0.000 OA
ATOM     16  O   UNL     1     111.635 124.325 135.837  0.00  0.00    +0.000 OA
ATOM     17  O   UNL     1     113.201 124.034 136.267  0.00  0.00    +0.000 OA
ATOM     18  C   UNL     1     111.845 125.654 137.556  0.00  0.00    +0.000 C 
ATOM     19  C   UNL     1     111.514 125.259 136.910  0.00  0.00    +0.000 C 
ATOM     20  C   UNL     1     111.966 124.719 136.481  0.00  0.00    +0.000 C 
ATOM     21  C   UNL     1     112.749 124.574 136.697  0.00  0.00    +0.000 C 
ATOM     22  C   UNL     1     113.080 124.968 137.341  0.00  0.00    +0.000 C 
ENDBRANCH   5  18
BRANCH   6  27
ATOM     23  O   UNL     1     109.142 126.036 139.432  0.00  0.00    +0.000 OA
ATOM     24  O   UNL     1     111.004 126.271 140.546  0.00  0.00    +0.000 OA
ATOM     25  O   UNL     1     109.994 125.739 141.737  0.00  0.00    +0.000 OA
ATOM     26  O   UNL     1     108.415 125.405 141.391  0.00  0.00    +0.000 OA
ATOM     27  C   UNL     1     109.931 126.203 139.606  0.00  0.00    +0.000 C 
ATOM     28  C   UNL     1     110.215 126.104 140.374  0.00  0.00    +0.000 C 
ATOM     29  C   UNL     1     109.710 125.838 140.969  0.00  0.00    +0.000 C 
ATOM     30  C   UNL     1     108.921 125.671 140.796  0.00  0.00    +0.000 C 
ATOM     31  C   UNL     1     108.637 125.770 140.028  0.00  0.00    +0.000 C 
ENDBRANCH   6  27
BRANCH  12  33
ATOM     32  O   UNL     1     114.061 129.158 134.635  0.00  0.00    +0.000 OA
ATOM     33  C   UNL     1     112.542 128.368 136.422  0.00  0.00    +0.000 A 
ATOM     34  C   UNL     1     112.256 128.475 135.656  0.00  0.00    +0.000 A 
ATOM     35  C   UNL     1     113.334 128.523 136.592  0.00  0.00    +0.000 A 
ATOM     36  C   UNL     1     112.763 128.739 135.060  0.00  0.00    +0.000 A 
ATOM     37  C   UNL     1     113.840 128.787 135.997  0.00  0.00    +0.000 A 
ATOM     38  C   UNL     1     113.555 128.895 135.230  0.00  0.00    +0.000 A 
ENDBRANCH  12  33
TORSDOF 3
ENDMDL
