MODEL 1
REMARK VINA RESULT:      -9.0      0.000      0.000
REMARK  Name = 131835636
REMARK  7 active torsions:
REMARK  status: ('A' for Active; 'I' for Inactive)
REMARK    1  A    between atoms: O_2  and  C_16
REMARK    2  A    between atoms: O_2  and  C_19
REMARK    3  A    between atoms: C_17  and  C_18
REMARK    4  A    between atoms: C_21  and  C_24
REMARK    5  A    between atoms: C_24  and  C_27
REMARK    6  A    between atoms: C_27  and  C_29
REMARK    7  A    between atoms: C_29  and  C_30
REMARK                            x       y       z     vdW  Elec       q    Type
REMARK                         _______ _______ _______ _____ _____    ______ ____
ROOT
ATOM      1  O   UNL     1     111.363 124.534 135.776  0.00  0.00    +0.000 OA
ATOM      2  C   UNL     1     110.244 126.098 136.644  0.00  0.00    +0.000 A 
ATOM      3  C   UNL     1     110.748 125.460 136.507  0.00  0.00    +0.000 A 
ATOM      4  C   UNL     1     109.822 126.433 136.020  0.00  0.00    +0.000 A 
ATOM      5  C   UNL     1     110.831 125.158 135.744  0.00  0.00    +0.000 A 
ATOM      6  C   UNL     1     109.905 126.131 135.257  0.00  0.00    +0.000 A 
ATOM      7  C   UNL     1     111.229 125.021 137.005  0.00  0.00    +0.000 A 
ATOM      8  C   UNL     1     110.410 125.493 135.118  0.00  0.00    +0.000 A 
ATOM      9  C   UNL     1     111.608 124.450 136.554  0.00  0.00    +0.000 A 
ENDROOT
BRANCH   4  11
ATOM     10  O   UNL     1     108.697 126.996 136.697  0.00  0.00    +0.000 OA
ATOM     11  C   UNL     1     109.317 127.071 136.158  0.00  0.00    +0.000 C 
BRANCH  11  12
ATOM     12  C   UNL     1     109.432 127.783 135.757  0.00  0.00    +0.000 C 
BRANCH  12  14
ATOM     13  O   UNL     1     108.035 128.088 135.793  0.00  0.00    +0.000 OA
ATOM     14  C   UNL     1     108.820 128.334 135.714  0.00  0.00    +0.000 C 
BRANCH  14  17
ATOM     15  O   UNL     1     108.671 131.175 136.410  0.00  0.00    +0.000 OA
ATOM     16  O   UNL     1     109.409 131.544 135.371  0.00  0.00    +0.000 OA
ATOM     17  C   UNL     1     108.990 129.132 135.593  0.00  0.00    +0.000 A 
ATOM     18  C   UNL     1     108.703 129.701 136.117  0.00  0.00    +0.000 A 
ATOM     19  C   UNL     1     108.874 130.498 135.994  0.00  0.00    +0.000 A 
ATOM     20  C   UNL     1     109.449 129.361 134.946  0.00  0.00    +0.000 A 
ATOM     21  C   UNL     1     109.332 130.728 135.348  0.00  0.00    +0.000 A 
ATOM     22  C   UNL     1     109.620 130.159 134.824  0.00  0.00    +0.000 A 
ATOM     23  C   UNL     1     109.000 131.820 136.026  0.00  0.00    +0.000 C 
ENDBRANCH  14  17
ENDBRANCH  12  14
ENDBRANCH  11  12
ENDBRANCH   4  11
BRANCH   2  24
ATOM     24  O   UNL     1     110.160 126.400 137.408  0.00  0.00    +0.000 OA
BRANCH  24  32
ATOM     25  O   UNL     1     111.313 127.235 137.292  0.00  0.00    +0.000 OA
ATOM     26  O   UNL     1     111.596 127.183 139.751  0.00  0.00    +0.000 OA
ATOM     27  O   UNL     1     110.349 126.366 139.046  0.00  0.00    +0.000 OA
ATOM     28  O   UNL     1     112.656 128.035 138.816  0.00  0.00    +0.000 OA
ATOM     29  C   UNL     1     111.502 127.200 138.931  0.00  0.00    +0.000 C 
ATOM     30  C   UNL     1     110.878 126.791 138.580  0.00  0.00    +0.000 C 
ATOM     31  C   UNL     1     112.032 127.627 138.464  0.00  0.00    +0.000 C 
ATOM     32  C   UNL     1     110.784 126.809 137.760  0.00  0.00    +0.000 C 
ATOM     33  C   UNL     1     111.938 127.644 137.645  0.00  0.00    +0.000 C 
BRANCH  33  36
ATOM     34  O   UNL     1     113.162 127.712 136.911  0.00  0.00    +0.000 OA
ATOM     35  O   UNL     1     112.302 128.852 136.975  0.00  0.00    +0.000 OA
ATOM     36  C   UNL     1     112.467 128.070 137.177  0.00  0.00    +0.000 C 
ENDBRANCH  33  36
ENDBRANCH  24  32
ENDBRANCH   2  24
TORSDOF 7
ENDMDL
MODEL 2
REMARK VINA RESULT:      -8.9      1.386      2.208
REMARK  Name = 131835636
REMARK  7 active torsions:
REMARK  status: ('A' for Active; 'I' for Inactive)
REMARK    1  A    between atoms: O_2  and  C_16
REMARK    2  A    between atoms: O_2  and  C_19
REMARK    3  A    between atoms: C_17  and  C_18
REMARK    4  A    between atoms: C_21  and  C_24
REMARK    5  A    between atoms: C_24  and  C_27
REMARK    6  A    between atoms: C_27  and  C_29
REMARK    7  A    between atoms: C_29  and  C_30
REMARK                            x       y       z     vdW  Elec       q    Type
REMARK                         _______ _______ _______ _____ _____    ______ ____
ROOT
ATOM      1  O   UNL     1     111.531 123.790 136.286  0.00  0.00    +0.000 OA
ATOM      2  C   UNL     1     112.093 125.808 136.539  0.00  0.00    +0.000 A 
ATOM      3  C   UNL     1     112.026 124.987 136.586  0.00  0.00    +0.000 A 
ATOM      4  C   UNL     1     111.605 126.234 136.028  0.00  0.00    +0.000 A 
ATOM      5  C   UNL     1     111.470 124.592 136.122  0.00  0.00    +0.000 A 
ATOM      6  C   UNL     1     111.049 125.838 135.564  0.00  0.00    +0.000 A 
ATOM      7  C   UNL     1     112.425 124.427 137.033  0.00  0.00    +0.000 A 
ATOM      8  C   UNL     1     110.982 125.016 135.611  0.00  0.00    +0.000 A 
ATOM      9  C   UNL     1     112.120 123.689 136.847  0.00  0.00    +0.000 A 
ENDROOT
BRANCH   4  11
ATOM     10  O   UNL     1     112.404 127.399 135.819  0.00  0.00    +0.000 OA
ATOM     11  C   UNL     1     111.672 127.054 135.981  0.00  0.00    +0.000 C 
BRANCH  11  12
ATOM     12  C   UNL     1     111.008 127.530 136.094  0.00  0.00    +0.000 C 
BRANCH  12  14
ATOM     13  O   UNL     1     111.592 128.562 135.296  0.00  0.00    +0.000 OA
ATOM     14  C   UNL     1     111.008 128.309 135.821  0.00  0.00    +0.000 C 
BRANCH  14  17
ATOM     15  O   UNL     1     108.545 129.850 135.453  0.00  0.00    +0.000 OA
ATOM     16  O   UNL     1     108.609 130.381 136.668  0.00  0.00    +0.000 OA
ATOM     17  C   UNL     1     110.424 128.834 136.072  0.00  0.00    +0.000 A 
ATOM     18  C   UNL     1     109.800 129.030 135.569  0.00  0.00    +0.000 A 
ATOM     19  C   UNL     1     109.217 129.556 135.821  0.00  0.00    +0.000 A 
ATOM     20  C   UNL     1     110.464 129.164 136.828  0.00  0.00    +0.000 A 
ATOM     21  C   UNL     1     109.256 129.886 136.575  0.00  0.00    +0.000 A 
ATOM     22  C   UNL     1     109.880 129.690 137.079  0.00  0.00    +0.000 A 
ATOM     23  C   UNL     1     108.170 130.359 135.976  0.00  0.00    +0.000 C 
ENDBRANCH  14  17
ENDBRANCH  12  14
ENDBRANCH  11  12
ENDBRANCH   4  11
BRANCH   2  24
ATOM     24  O   UNL     1     112.649 126.203 137.003  0.00  0.00    +0.000 OA
BRANCH  24  32
ATOM     25  O   UNL     1     111.788 126.220 138.141  0.00  0.00    +0.000 OA
ATOM     26  O   UNL     1     113.754 126.454 139.626  0.00  0.00    +0.000 OA
ATOM     27  O   UNL     1     113.960 126.359 137.993  0.00  0.00    +0.000 OA
ATOM     28  O   UNL     1     112.236 126.393 140.271  0.00  0.00    +0.000 OA
ATOM     29  C   UNL     1     113.098 126.376 139.131  0.00  0.00    +0.000 C 
ATOM     30  C   UNL     1     113.202 126.329 138.315  0.00  0.00    +0.000 C 
ATOM     31  C   UNL     1     112.340 126.346 139.454  0.00  0.00    +0.000 C 
ATOM     32  C   UNL     1     112.547 126.251 137.820  0.00  0.00    +0.000 C 
ATOM     33  C   UNL     1     111.684 126.268 138.959  0.00  0.00    +0.000 C 
BRANCH  33  36
ATOM     34  O   UNL     1     110.607 125.513 139.517  0.00  0.00    +0.000 OA
ATOM     35  O   UNL     1     110.485 126.929 139.367  0.00  0.00    +0.000 OA
ATOM     36  C   UNL     1     110.925 126.237 139.281  0.00  0.00    +0.000 C 
ENDBRANCH  33  36
ENDBRANCH  24  32
ENDBRANCH   2  24
TORSDOF 7
ENDMDL
MODEL 3
REMARK VINA RESULT:      -8.9      1.675      4.354
REMARK  Name = 131835636
REMARK  7 active torsions:
REMARK  status: ('A' for Active; 'I' for Inactive)
REMARK    1  A    between atoms: O_2  and  C_16
REMARK    2  A    between atoms: O_2  and  C_19
REMARK    3  A    between atoms: C_17  and  C_18
REMARK    4  A    between atoms: C_21  and  C_24
REMARK    5  A    between atoms: C_24  and  C_27
REMARK    6  A    between atoms: C_27  and  C_29
REMARK    7  A    between atoms: C_29  and  C_30
REMARK                            x       y       z     vdW  Elec       q    Type
REMARK                         _______ _______ _______ _____ _____    ______ ____
ROOT
ATOM      1  O   UNL     1     111.511 124.732 135.819  0.00  0.00    +0.000 OA
ATOM      2  C   UNL     1     111.081 125.831 137.567  0.00  0.00    +0.000 A 
ATOM      3  C   UNL     1     111.072 125.498 136.813  0.00  0.00    +0.000 A 
ATOM      4  C   UNL     1     111.681 125.635 138.099  0.00  0.00    +0.000 A 
ATOM      5  C   UNL     1     111.663 124.969 136.590  0.00  0.00    +0.000 A 
ATOM      6  C   UNL     1     112.272 125.105 137.875  0.00  0.00    +0.000 A 
ATOM      7  C   UNL     1     110.559 125.585 136.179  0.00  0.00    +0.000 A 
ATOM      8  C   UNL     1     112.264 124.772 137.120  0.00  0.00    +0.000 A 
ATOM      9  C   UNL     1     110.830 125.112 135.566  0.00  0.00    +0.000 A 
ENDROOT
BRANCH   4  11
ATOM     10  O   UNL     1     111.040 125.874 139.353  0.00  0.00    +0.000 OA
ATOM     11  C   UNL     1     111.690 125.968 138.853  0.00  0.00    +0.000 C 
BRANCH  11  12
ATOM     12  C   UNL     1     112.348 126.395 139.108  0.00  0.00    +0.000 C 
BRANCH  12  14
ATOM     13  O   UNL     1     111.964 126.191 140.470  0.00  0.00    +0.000 OA
ATOM     14  C   UNL     1     112.447 126.559 139.911  0.00  0.00    +0.000 C 
BRANCH  14  17
ATOM     15  O   UNL     1     113.466 129.252 140.450  0.00  0.00    +0.000 OA
ATOM     16  O   UNL     1     114.648 128.802 140.852  0.00  0.00    +0.000 OA
ATOM     17  C   UNL     1     113.028 127.091 140.155  0.00  0.00    +0.000 A 
ATOM     18  C   UNL     1     112.874 127.902 140.150  0.00  0.00    +0.000 A 
ATOM     19  C   UNL     1     113.456 128.433 140.395  0.00  0.00    +0.000 A 
ATOM     20  C   UNL     1     113.763 126.812 140.405  0.00  0.00    +0.000 A 
ATOM     21  C   UNL     1     114.191 128.155 140.645  0.00  0.00    +0.000 A 
ATOM     22  C   UNL     1     114.344 127.344 140.650  0.00  0.00    +0.000 A 
ATOM     23  C   UNL     1     114.201 129.479 140.732  0.00  0.00    +0.000 C 
ENDBRANCH  14  17
ENDBRANCH  12  14
ENDBRANCH  11  12
ENDBRANCH   4  11
BRANCH   2  24
ATOM     24  O   UNL     1     110.489 126.361 137.791  0.00  0.00    +0.000 OA
BRANCH  24  32
ATOM     25  O   UNL     1     111.142 127.471 137.174  0.00  0.00    +0.000 OA
ATOM     26  O   UNL     1     108.966 128.629 136.954  0.00  0.00    +0.000 OA
ATOM     27  O   UNL     1     109.038 127.133 137.645  0.00  0.00    +0.000 OA
ATOM     28  O   UNL     1     110.345 129.353 136.409  0.00  0.00    +0.000 OA
ATOM     29  C   UNL     1     109.691 128.243 137.027  0.00  0.00    +0.000 C 
ATOM     30  C   UNL     1     109.727 127.495 137.373  0.00  0.00    +0.000 C 
ATOM     31  C   UNL     1     110.381 128.606 136.755  0.00  0.00    +0.000 C 
ATOM     32  C   UNL     1     110.453 127.109 137.446  0.00  0.00    +0.000 C 
ATOM     33  C   UNL     1     111.106 128.220 136.828  0.00  0.00    +0.000 C 
BRANCH  33  36
ATOM     34  O   UNL     1     112.029 128.486 135.770  0.00  0.00    +0.000 OA
ATOM     35  O   UNL     1     112.252 129.038 137.069  0.00  0.00    +0.000 OA
ATOM     36  C   UNL     1     111.796 128.581 136.556  0.00  0.00    +0.000 C 
ENDBRANCH  33  36
ENDBRANCH  24  32
ENDBRANCH   2  24
TORSDOF 7
ENDMDL
MODEL 4
REMARK VINA RESULT:      -8.8      2.410      4.793
REMARK  Name = 131835636
REMARK  7 active torsions:
REMARK  status: ('A' for Active; 'I' for Inactive)
REMARK    1  A    between atoms: O_2  and  C_16
REMARK    2  A    between atoms: O_2  and  C_19
REMARK    3  A    between atoms: C_17  and  C_18
REMARK    4  A    between atoms: C_21  and  C_24
REMARK    5  A    between atoms: C_24  and  C_27
REMARK    6  A    between atoms: C_27  and  C_29
REMARK    7  A    between atoms: C_29  and  C_30
REMARK                            x       y       z     vdW  Elec       q    Type
REMARK                         _______ _______ _______ _____ _____    ______ ____
ROOT
ATOM      1  O   UNL     1     113.167 125.026 136.917  0.00  0.00    +0.000 OA
ATOM      2  C   UNL     1     112.507 125.888 138.726  0.00  0.00    +0.000 A 
ATOM      3  C   UNL     1     112.561 125.487 138.008  0.00  0.00    +0.000 A 
ATOM      4  C   UNL     1     113.172 126.259 139.044  0.00  0.00    +0.000 A 
ATOM      5  C   UNL     1     113.281 125.457 137.606  0.00  0.00    +0.000 A 
ATOM      6  C   UNL     1     113.892 126.229 138.642  0.00  0.00    +0.000 A 
ATOM      7  C   UNL     1     112.009 125.074 137.564  0.00  0.00    +0.000 A 
ATOM      8  C   UNL     1     113.946 125.828 137.922  0.00  0.00    +0.000 A 
ATOM      9  C   UNL     1     112.382 124.790 136.892  0.00  0.00    +0.000 A 
ENDROOT
BRANCH   4  11
ATOM     10  O   UNL     1     112.786 126.286 140.419  0.00  0.00    +0.000 OA
ATOM     11  C   UNL     1     113.118 126.660 139.762  0.00  0.00    +0.000 C 
BRANCH  11  12
ATOM     12  C   UNL     1     113.395 127.435 139.825  0.00  0.00    +0.000 C 
BRANCH  12  14
ATOM     13  O   UNL     1     113.637 127.253 141.223  0.00  0.00    +0.000 OA
ATOM     14  C   UNL     1     113.568 127.751 140.567  0.00  0.00    +0.000 C 
BRANCH  14  17
ATOM     15  O   UNL     1     115.193 130.187 140.632  0.00  0.00    +0.000 OA
ATOM     16  O   UNL     1     114.149 130.964 140.890  0.00  0.00    +0.000 OA
ATOM     17  C   UNL     1     113.672 128.564 140.656  0.00  0.00    +0.000 A 
ATOM     18  C   UNL     1     114.425 128.895 140.584  0.00  0.00    +0.000 A 
ATOM     19  C   UNL     1     114.528 129.709 140.672  0.00  0.00    +0.000 A 
ATOM     20  C   UNL     1     113.023 129.048 140.816  0.00  0.00    +0.000 A 
ATOM     21  C   UNL     1     113.879 130.192 140.832  0.00  0.00    +0.000 A 
ATOM     22  C   UNL     1     113.127 129.862 140.904  0.00  0.00    +0.000 A 
ATOM     23  C   UNL     1     114.960 130.961 140.766  0.00  0.00    +0.000 C 
ENDBRANCH  14  17
ENDBRANCH  12  14
ENDBRANCH  11  12
ENDBRANCH   4  11
BRANCH   2  24
ATOM     24  O   UNL     1     111.787 125.917 139.129  0.00  0.00    +0.000 OA
BRANCH  24  32
ATOM     25  O   UNL     1     111.320 127.039 138.379  0.00  0.00    +0.000 OA
ATOM     26  O   UNL     1     108.981 126.355 138.813  0.00  0.00    +0.000 OA
ATOM     27  O   UNL     1     110.228 125.461 139.418  0.00  0.00    +0.000 OA
ATOM     28  O   UNL     1     109.293 127.706 137.919  0.00  0.00    +0.000 OA
ATOM     29  C   UNL     1     109.761 126.583 138.669  0.00  0.00    +0.000 C 
ATOM     30  C   UNL     1     110.384 126.136 138.971  0.00  0.00    +0.000 C 
ATOM     31  C   UNL     1     109.916 127.259 138.221  0.00  0.00    +0.000 C 
ATOM     32  C   UNL     1     111.163 126.364 138.826  0.00  0.00    +0.000 C 
ATOM     33  C   UNL     1     110.696 127.487 138.076  0.00  0.00    +0.000 C 
BRANCH  33  36
ATOM     34  O   UNL     1     110.888 128.112 136.806  0.00  0.00    +0.000 OA
ATOM     35  O   UNL     1     110.973 128.887 138.004  0.00  0.00    +0.000 OA
ATOM     36  C   UNL     1     110.852 128.162 137.629  0.00  0.00    +0.000 C 
ENDBRANCH  33  36
ENDBRANCH  24  32
ENDBRANCH   2  24
TORSDOF 7
ENDMDL
MODEL 5
REMARK VINA RESULT:      -8.8      1.434      4.290
REMARK  Name = 131835636
REMARK  7 active torsions:
REMARK  status: ('A' for Active; 'I' for Inactive)
REMARK    1  A    between atoms: O_2  and  C_16
REMARK    2  A    between atoms: O_2  and  C_19
REMARK    3  A    between atoms: C_17  and  C_18
REMARK    4  A    between atoms: C_21  and  C_24
REMARK    5  A    between atoms: C_24  and  C_27
REMARK    6  A    between atoms: C_27  and  C_29
REMARK    7  A    between atoms: C_29  and  C_30
REMARK                            x       y       z     vdW  Elec       q    Type
REMARK                         _______ _______ _______ _____ _____    ______ ____
ROOT
ATOM      1  O   UNL     1     109.695 131.757 135.367  0.00  0.00    +0.000 OA
ATOM      2  C   UNL     1     109.119 129.987 136.361  0.00  0.00    +0.000 A 
ATOM      3  C   UNL     1     109.328 130.761 136.169  0.00  0.00    +0.000 A 
ATOM      4  C   UNL     1     109.090 129.409 135.773  0.00  0.00    +0.000 A 
ATOM      5  C   UNL     1     109.509 130.958 135.389  0.00  0.00    +0.000 A 
ATOM      6  C   UNL     1     109.271 129.606 134.993  0.00  0.00    +0.000 A 
ATOM      7  C   UNL     1     109.404 131.440 136.624  0.00  0.00    +0.000 A 
ATOM      8  C   UNL     1     109.481 130.381 134.800  0.00  0.00    +0.000 A 
ATOM      9  C   UNL     1     109.630 132.053 136.129  0.00  0.00    +0.000 A 
ENDROOT
BRANCH   4  11
ATOM     10  O   UNL     1     108.179 128.487 136.374  0.00  0.00    +0.000 OA
ATOM     11  C   UNL     1     108.880 128.635 135.965  0.00  0.00    +0.000 C 
BRANCH  11  12
ATOM     12  C   UNL     1     109.371 128.008 135.748  0.00  0.00    +0.000 C 
BRANCH  12  14
ATOM     13  O   UNL     1     108.288 127.089 135.912  0.00  0.00    +0.000 OA
ATOM     14  C   UNL     1     109.092 127.233 135.790  0.00  0.00    +0.000 C 
BRANCH  14  17
ATOM     15  O   UNL     1     110.981 125.255 136.839  0.00  0.00    +0.000 OA
ATOM     16  O   UNL     1     111.202 124.724 135.643  0.00  0.00    +0.000 OA
ATOM     17  C   UNL     1     109.616 126.600 135.711  0.00  0.00    +0.000 A 
ATOM     18  C   UNL     1     110.002 126.298 136.374  0.00  0.00    +0.000 A 
ATOM     19  C   UNL     1     110.525 125.665 136.293  0.00  0.00    +0.000 A 
ATOM     20  C   UNL     1     109.753 126.270 134.967  0.00  0.00    +0.000 A 
ATOM     21  C   UNL     1     110.663 125.335 135.551  0.00  0.00    +0.000 A 
ATOM     22  C   UNL     1     110.277 125.638 134.887  0.00  0.00    +0.000 A 
ATOM     23  C   UNL     1     111.398 124.674 136.437  0.00  0.00    +0.000 C 
ENDBRANCH  14  17
ENDBRANCH  12  14
ENDBRANCH  11  12
ENDBRANCH   4  11
BRANCH   2  24
ATOM     24  O   UNL     1     108.938 129.790 137.142  0.00  0.00    +0.000 OA
BRANCH  24  32
ATOM     25  O   UNL     1     110.308 129.603 137.497  0.00  0.00    +0.000 OA
ATOM     26  O   UNL     1     109.764 130.105 139.859  0.00  0.00    +0.000 OA
ATOM     27  O   UNL     1     108.575 130.124 138.716  0.00  0.00    +0.000 OA
ATOM     28  O   UNL     1     111.317 129.751 139.428  0.00  0.00    +0.000 OA
ATOM     29  C   UNL     1     109.945 129.937 139.072  0.00  0.00    +0.000 C 
ATOM     30  C   UNL     1     109.351 129.947 138.501  0.00  0.00    +0.000 C 
ATOM     31  C   UNL     1     110.722 129.761 138.857  0.00  0.00    +0.000 C 
ATOM     32  C   UNL     1     109.532 129.780 137.714  0.00  0.00    +0.000 C 
ATOM     33  C   UNL     1     110.904 129.594 138.069  0.00  0.00    +0.000 C 
BRANCH  33  36
ATOM     34  O   UNL     1     112.203 130.026 137.660  0.00  0.00    +0.000 OA
ATOM     35  O   UNL     1     111.933 128.632 137.829  0.00  0.00    +0.000 OA
ATOM     36  C   UNL     1     111.680 129.417 137.853  0.00  0.00    +0.000 C 
ENDBRANCH  33  36
ENDBRANCH  24  32
ENDBRANCH   2  24
TORSDOF 7
ENDMDL
MODEL 6
REMARK VINA RESULT:      -8.8      2.284      3.829
REMARK  Name = 131835636
REMARK  7 active torsions:
REMARK  status: ('A' for Active; 'I' for Inactive)
REMARK    1  A    between atoms: O_2  and  C_16
REMARK    2  A    between atoms: O_2  and  C_19
REMARK    3  A    between atoms: C_17  and  C_18
REMARK    4  A    between atoms: C_21  and  C_24
REMARK    5  A    between atoms: C_24  and  C_27
REMARK    6  A    between atoms: C_27  and  C_29
REMARK    7  A    between atoms: C_29  and  C_30
REMARK                            x       y       z     vdW  Elec       q    Type
REMARK                         _______ _______ _______ _____ _____    ______ ____
ROOT
ATOM      1  O   UNL     1     112.728 123.595 136.559  0.00  0.00    +0.000 OA
ATOM      2  C   UNL     1     112.320 125.552 137.236  0.00  0.00    +0.000 A 
ATOM      3  C   UNL     1     112.281 124.752 137.042  0.00  0.00    +0.000 A 
ATOM      4  C   UNL     1     113.005 125.983 137.076  0.00  0.00    +0.000 A 
ATOM      5  C   UNL     1     112.927 124.381 136.687  0.00  0.00    +0.000 A 
ATOM      6  C   UNL     1     113.651 125.613 136.721  0.00  0.00    +0.000 A 
ATOM      7  C   UNL     1     111.688 124.191 137.131  0.00  0.00    +0.000 A 
ATOM      8  C   UNL     1     113.612 124.812 136.526  0.00  0.00    +0.000 A 
ATOM      9  C   UNL     1     111.965 123.479 136.834  0.00  0.00    +0.000 A 
ENDROOT
BRANCH   4  11
ATOM     10  O   UNL     1     112.908 127.026 138.047  0.00  0.00    +0.000 OA
ATOM     11  C   UNL     1     113.044 126.783 137.271  0.00  0.00    +0.000 C 
BRANCH  11  12
ATOM     12  C   UNL     1     113.219 127.342 136.689  0.00  0.00    +0.000 C 
BRANCH  12  14
ATOM     13  O   UNL     1     113.468 128.318 137.704  0.00  0.00    +0.000 OA
ATOM     14  C   UNL     1     113.420 128.112 136.905  0.00  0.00    +0.000 C 
BRANCH  14  17
ATOM     15  O   UNL     1     115.200 129.664 135.172  0.00  0.00    +0.000 OA
ATOM     16  O   UNL     1     114.196 130.327 134.612  0.00  0.00    +0.000 OA
ATOM     17  C   UNL     1     113.573 128.678 136.325  0.00  0.00    +0.000 A 
ATOM     18  C   UNL     1     114.350 128.831 136.092  0.00  0.00    +0.000 A 
ATOM     19  C   UNL     1     114.502 129.397 135.511  0.00  0.00    +0.000 A 
ATOM     20  C   UNL     1     112.949 129.090 135.976  0.00  0.00    +0.000 A 
ATOM     21  C   UNL     1     113.879 129.809 135.163  0.00  0.00    +0.000 A 
ATOM     22  C   UNL     1     113.102 129.655 135.395  0.00  0.00    +0.000 A 
ATOM     23  C   UNL     1     115.011 130.237 134.618  0.00  0.00    +0.000 C 
ENDBRANCH  14  17
ENDBRANCH  12  14
ENDBRANCH  11  12
ENDBRANCH   4  11
BRANCH   2  24
ATOM     24  O   UNL     1     111.674 125.922 137.592  0.00  0.00    +0.000 OA
BRANCH  24  32
ATOM     25  O   UNL     1     111.040 126.117 136.327  0.00  0.00    +0.000 OA
ATOM     26  O   UNL     1     108.878 126.498 137.470  0.00  0.00    +0.000 OA
ATOM     27  O   UNL     1     110.233 126.176 138.354  0.00  0.00    +0.000 OA
ATOM     28  O   UNL     1     108.964 126.566 135.824  0.00  0.00    +0.000 OA
ATOM     29  C   UNL     1     109.598 126.371 137.089  0.00  0.00    +0.000 C 
ATOM     30  C   UNL     1     110.275 126.210 137.531  0.00  0.00    +0.000 C 
ATOM     31  C   UNL     1     109.641 126.405 136.266  0.00  0.00    +0.000 C 
ATOM     32  C   UNL     1     110.996 126.083 137.150  0.00  0.00    +0.000 C 
ATOM     33  C   UNL     1     110.361 126.278 135.885  0.00  0.00    +0.000 C 
BRANCH  33  36
ATOM     34  O   UNL     1     110.230 125.642 134.612  0.00  0.00    +0.000 OA
ATOM     35  O   UNL     1     110.623 127.015 134.688  0.00  0.00    +0.000 OA
ATOM     36  C   UNL     1     110.405 126.312 135.062  0.00  0.00    +0.000 C 
ENDBRANCH  33  36
ENDBRANCH  24  32
ENDBRANCH   2  24
TORSDOF 7
ENDMDL
MODEL 7
REMARK VINA RESULT:      -8.8      2.337      4.945
REMARK  Name = 131835636
REMARK  7 active torsions:
REMARK  status: ('A' for Active; 'I' for Inactive)
REMARK    1  A    between atoms: O_2  and  C_16
REMARK    2  A    between atoms: O_2  and  C_19
REMARK    3  A    between atoms: C_17  and  C_18
REMARK    4  A    between atoms: C_21  and  C_24
REMARK    5  A    between atoms: C_24  and  C_27
REMARK    6  A    between atoms: C_27  and  C_29
REMARK    7  A    between atoms: C_29  and  C_30
REMARK                            x       y       z     vdW  Elec       q    Type
REMARK                         _______ _______ _______ _____ _____    ______ ____
ROOT
ATOM      1  O   UNL     1     115.124 130.112 135.701  0.00  0.00    +0.000 OA
ATOM      2  C   UNL     1     113.124 129.500 135.986  0.00  0.00    +0.000 A 
ATOM      3  C   UNL     1     113.831 129.924 135.952  0.00  0.00    +0.000 A 
ATOM      4  C   UNL     1     113.102 128.713 135.739  0.00  0.00    +0.000 A 
ATOM      5  C   UNL     1     114.516 129.561 135.671  0.00  0.00    +0.000 A 
ATOM      6  C   UNL     1     113.788 128.350 135.458  0.00  0.00    +0.000 A 
ATOM      7  C   UNL     1     114.020 130.696 136.154  0.00  0.00    +0.000 A 
ATOM      8  C   UNL     1     114.496 128.774 135.424  0.00  0.00    +0.000 A 
ATOM      9  C   UNL     1     114.817 130.811 135.999  0.00  0.00    +0.000 A 
ENDROOT
BRANCH   4  11
ATOM     10  O   UNL     1     111.714 128.596 135.424  0.00  0.00    +0.000 OA
ATOM     11  C   UNL     1     112.396 128.289 135.773  0.00  0.00    +0.000 C 
BRANCH  11  12
ATOM     12  C   UNL     1     112.371 127.558 136.155  0.00  0.00    +0.000 C 
BRANCH  12  14
ATOM     13  O   UNL     1     111.208 127.204 135.402  0.00  0.00    +0.000 OA
ATOM     14  C   UNL     1     111.759 127.029 135.992  0.00  0.00    +0.000 C 
BRANCH  14  17
ATOM     15  O   UNL     1     112.124 124.145 136.345  0.00  0.00    +0.000 OA
ATOM     16  O   UNL     1     111.584 124.151 137.557  0.00  0.00    +0.000 OA
ATOM     17  C   UNL     1     111.696 126.326 136.418  0.00  0.00    +0.000 A 
ATOM     18  C   UNL     1     111.970 125.619 136.092  0.00  0.00    +0.000 A 
ATOM     19  C   UNL     1     111.907 124.916 136.519  0.00  0.00    +0.000 A 
ATOM     20  C   UNL     1     111.360 126.330 137.173  0.00  0.00    +0.000 A 
ATOM     21  C   UNL     1     111.571 124.920 137.272  0.00  0.00    +0.000 A 
ATOM     22  C   UNL     1     111.298 125.626 137.599  0.00  0.00    +0.000 A 
ATOM     23  C   UNL     1     111.925 123.673 136.984  0.00  0.00    +0.000 C 
ENDBRANCH  14  17
ENDBRANCH  12  14
ENDBRANCH  11  12
ENDBRANCH   4  11
BRANCH   2  24
ATOM     24  O   UNL     1     112.439 129.863 136.267  0.00  0.00    +0.000 OA
BRANCH  24  32
ATOM     25  O   UNL     1     112.761 129.605 137.634  0.00  0.00    +0.000 OA
ATOM     26  O   UNL     1     111.406 131.560 138.321  0.00  0.00    +0.000 OA
ATOM     27  O   UNL     1     111.536 131.166 136.725  0.00  0.00    +0.000 OA
ATOM     28  O   UNL     1     112.179 130.651 139.460  0.00  0.00    +0.000 OA
ATOM     29  C   UNL     1     111.858 130.908 138.092  0.00  0.00    +0.000 C 
ATOM     30  C   UNL     1     111.922 130.712 137.294  0.00  0.00    +0.000 C 
ATOM     31  C   UNL     1     112.244 130.454 138.662  0.00  0.00    +0.000 C 
ATOM     32  C   UNL     1     112.374 130.060 137.065  0.00  0.00    +0.000 C 
ATOM     33  C   UNL     1     112.696 129.803 138.433  0.00  0.00    +0.000 C 
BRANCH  33  36
ATOM     34  O   UNL     1     113.828 129.575 139.275  0.00  0.00    +0.000 OA
ATOM     35  O   UNL     1     112.725 128.666 139.299  0.00  0.00    +0.000 OA
ATOM     36  C   UNL     1     113.083 129.348 139.002  0.00  0.00    +0.000 C 
ENDBRANCH  33  36
ENDBRANCH  24  32
ENDBRANCH   2  24
TORSDOF 7
ENDMDL
MODEL 8
REMARK VINA RESULT:      -8.7      1.565      4.473
REMARK  Name = 131835636
REMARK  7 active torsions:
REMARK  status: ('A' for Active; 'I' for Inactive)
REMARK    1  A    between atoms: O_2  and  C_16
REMARK    2  A    between atoms: O_2  and  C_19
REMARK    3  A    between atoms: C_17  and  C_18
REMARK    4  A    between atoms: C_21  and  C_24
REMARK    5  A    between atoms: C_24  and  C_27
REMARK    6  A    between atoms: C_27  and  C_29
REMARK    7  A    between atoms: C_29  and  C_30
REMARK                            x       y       z     vdW  Elec       q    Type
REMARK                         _______ _______ _______ _____ _____    ______ ____
ROOT
ATOM      1  O   UNL     1     108.408 128.569 135.545  0.00  0.00    +0.000 OA
ATOM      2  C   UNL     1     109.771 127.908 137.014  0.00  0.00    +0.000 A 
ATOM      3  C   UNL     1     109.294 128.359 136.515  0.00  0.00    +0.000 A 
ATOM      4  C   UNL     1     109.771 127.085 136.954  0.00  0.00    +0.000 A 
ATOM      5  C   UNL     1     108.815 127.986 135.956  0.00  0.00    +0.000 A 
ATOM      6  C   UNL     1     109.292 126.713 136.395  0.00  0.00    +0.000 A 
ATOM      7  C   UNL     1     109.179 129.168 136.445  0.00  0.00    +0.000 A 
ATOM      8  C   UNL     1     108.814 127.164 135.895  0.00  0.00    +0.000 A 
ATOM      9  C   UNL     1     108.633 129.297 135.847  0.00  0.00    +0.000 A 
ENDROOT
BRANCH   4  11
ATOM     10  O   UNL     1     110.178 126.712 138.271  0.00  0.00    +0.000 OA
ATOM     11  C   UNL     1     110.248 126.635 137.453  0.00  0.00    +0.000 C 
BRANCH  11  12
ATOM     12  C   UNL     1     110.797 126.107 137.134  0.00  0.00    +0.000 C 
BRANCH  12  14
ATOM     13  O   UNL     1     110.771 125.302 138.315  0.00  0.00    +0.000 OA
ATOM     14  C   UNL     1     111.143 125.532 137.615  0.00  0.00    +0.000 C 
BRANCH  14  17
ATOM     15  O   UNL     1     114.057 125.263 137.729  0.00  0.00    +0.000 OA
ATOM     16  O   UNL     1     114.073 124.270 136.850  0.00  0.00    +0.000 OA
ATOM     17  C   UNL     1     111.859 125.188 137.396  0.00  0.00    +0.000 A 
ATOM     18  C   UNL     1     112.566 125.460 137.723  0.00  0.00    +0.000 A 
ATOM     19  C   UNL     1     113.282 125.115 137.504  0.00  0.00    +0.000 A 
ATOM     20  C   UNL     1     111.869 124.569 136.849  0.00  0.00    +0.000 A 
ATOM     21  C   UNL     1     113.293 124.498 136.958  0.00  0.00    +0.000 A 
ATOM     22  C   UNL     1     112.586 124.225 136.630  0.00  0.00    +0.000 A 
ATOM     23  C   UNL     1     114.544 124.742 137.326  0.00  0.00    +0.000 C 
ENDBRANCH  14  17
ENDBRANCH  12  14
ENDBRANCH  11  12
ENDBRANCH   4  11
BRANCH   2  24
ATOM     24  O   UNL     1     110.250 128.281 137.573  0.00  0.00    +0.000 OA
BRANCH  24  32
ATOM     25  O   UNL     1     111.293 128.525 136.628  0.00  0.00    +0.000 OA
ATOM     26  O   UNL     1     112.089 130.425 138.000  0.00  0.00    +0.000 OA
ATOM     27  O   UNL     1     110.781 129.547 138.487  0.00  0.00    +0.000 OA
ATOM     28  O   UNL     1     112.867 130.037 136.597  0.00  0.00    +0.000 OA
ATOM     29  C   UNL     1     111.824 129.792 137.543  0.00  0.00    +0.000 C 
ATOM     30  C   UNL     1     111.170 129.353 137.787  0.00  0.00    +0.000 C 
ATOM     31  C   UNL     1     112.213 129.598 136.841  0.00  0.00    +0.000 C 
ATOM     32  C   UNL     1     110.904 128.720 137.329  0.00  0.00    +0.000 C 
ATOM     33  C   UNL     1     111.948 128.965 136.384  0.00  0.00    +0.000 C 
BRANCH  33  36
ATOM     34  O   UNL     1     112.932 128.199 135.687  0.00  0.00    +0.000 OA
ATOM     35  O   UNL     1     112.129 129.146 134.978  0.00  0.00    +0.000 OA
ATOM     36  C   UNL     1     112.336 128.770 135.683  0.00  0.00    +0.000 C 
ENDBRANCH  33  36
ENDBRANCH  24  32
ENDBRANCH   2  24
TORSDOF 7
ENDMDL
MODEL 9
REMARK VINA RESULT:      -8.7      1.362      2.436
REMARK  Name = 131835636
REMARK  7 active torsions:
REMARK  status: ('A' for Active; 'I' for Inactive)
REMARK    1  A    between atoms: O_2  and  C_16
REMARK    2  A    between atoms: O_2  and  C_19
REMARK    3  A    between atoms: C_17  and  C_18
REMARK    4  A    between atoms: C_21  and  C_24
REMARK    5  A    between atoms: C_24  and  C_27
REMARK    6  A    between atoms: C_27  and  C_29
REMARK    7  A    between atoms: C_29  and  C_30
REMARK                            x       y       z     vdW  Elec       q    Type
REMARK                         _______ _______ _______ _____ _____    ______ ____
ROOT
ATOM      1  O   UNL     1     113.902 124.323 136.807  0.00  0.00    +0.000 OA
ATOM      2  C   UNL     1     112.423 125.534 137.701  0.00  0.00    +0.000 A 
ATOM      3  C   UNL     1     113.130 125.170 137.483  0.00  0.00    +0.000 A 
ATOM      4  C   UNL     1     111.714 125.308 137.345  0.00  0.00    +0.000 A 
ATOM      5  C   UNL     1     113.129 124.579 136.907  0.00  0.00    +0.000 A 
ATOM      6  C   UNL     1     111.713 124.717 136.769  0.00  0.00    +0.000 A 
ATOM      7  C   UNL     1     113.904 125.275 137.733  0.00  0.00    +0.000 A 
ATOM      8  C   UNL     1     112.421 124.352 136.550  0.00  0.00    +0.000 A 
ATOM      9  C   UNL     1     114.379 124.753 137.316  0.00  0.00    +0.000 A 
ENDROOT
BRANCH   4  11
ATOM     10  O   UNL     1     110.768 125.666 138.353  0.00  0.00    +0.000 OA
ATOM     11  C   UNL     1     111.007 125.671 137.563  0.00  0.00    +0.000 C 
BRANCH  11  12
ATOM     12  C   UNL     1     110.539 126.041 136.993  0.00  0.00    +0.000 C 
BRANCH  12  14
ATOM     13  O   UNL     1     109.407 126.056 137.866  0.00  0.00    +0.000 OA
ATOM     14  C   UNL     1     109.801 126.346 137.201  0.00  0.00    +0.000 C 
BRANCH  14  17
ATOM     15  O   UNL     1     108.971 129.110 136.700  0.00  0.00    +0.000 OA
ATOM     16  O   UNL     1     108.465 128.819 135.508  0.00  0.00    +0.000 OA
ATOM     17  C   UNL     1     109.456 126.940 136.744  0.00  0.00    +0.000 A 
ATOM     18  C   UNL     1     109.426 127.714 137.028  0.00  0.00    +0.000 A 
ATOM     19  C   UNL     1     109.080 128.307 136.570  0.00  0.00    +0.000 A 
ATOM     20  C   UNL     1     109.142 126.759 136.002  0.00  0.00    +0.000 A 
ATOM     21  C   UNL     1     108.766 128.127 135.829  0.00  0.00    +0.000 A 
ATOM     22  C   UNL     1     108.797 127.353 135.545  0.00  0.00    +0.000 A 
ATOM     23  C   UNL     1     108.591 129.425 136.046  0.00  0.00    +0.000 C 
ENDBRANCH  14  17
ENDBRANCH  12  14
ENDBRANCH  11  12
ENDBRANCH   4  11
BRANCH   2  24
ATOM     24  O   UNL     1     112.424 126.125 138.277  0.00  0.00    +0.000 OA
BRANCH  24  32
ATOM     25  O   UNL     1     112.815 127.109 137.319  0.00  0.00    +0.000 OA
ATOM     26  O   UNL     1     113.504 128.622 139.153  0.00  0.00    +0.000 OA
ATOM     27  O   UNL     1     112.883 127.133 139.500  0.00  0.00    +0.000 OA
ATOM     28  O   UNL     1     113.665 129.102 137.582  0.00  0.00    +0.000 OA
ATOM     29  C   UNL     1     113.274 128.117 138.541  0.00  0.00    +0.000 C 
ATOM     30  C   UNL     1     112.964 127.374 138.715  0.00  0.00    +0.000 C 
ATOM     31  C   UNL     1     113.355 128.358 137.756  0.00  0.00    +0.000 C 
ATOM     32  C   UNL     1     112.735 126.869 138.104  0.00  0.00    +0.000 C 
ATOM     33  C   UNL     1     113.126 127.854 137.145  0.00  0.00    +0.000 C 
BRANCH  33  36
ATOM     34  O   UNL     1     112.567 128.438 135.966  0.00  0.00    +0.000 OA
ATOM     35  O   UNL     1     113.924 127.989 135.967  0.00  0.00    +0.000 OA
ATOM     36  C   UNL     1     113.206 128.094 136.360  0.00  0.00    +0.000 C 
ENDBRANCH  33  36
ENDBRANCH  24  32
ENDBRANCH   2  24
TORSDOF 7
ENDMDL
MODEL 10
REMARK VINA RESULT:      -8.7      7.638      9.597
REMARK  Name = 131835636
REMARK  7 active torsions:
REMARK  status: ('A' for Active; 'I' for Inactive)
REMARK    1  A    between atoms: O_2  and  C_16
REMARK    2  A    between atoms: O_2  and  C_19
REMARK    3  A    between atoms: C_17  and  C_18
REMARK    4  A    between atoms: C_21  and  C_24
REMARK    5  A    between atoms: C_24  and  C_27
REMARK    6  A    between atoms: C_27  and  C_29
REMARK    7  A    between atoms: C_29  and  C_30
REMARK                            x       y       z     vdW  Elec       q    Type
REMARK                         _______ _______ _______ _____ _____    ______ ____
ROOT
ATOM      1  O   UNL     1     104.969 128.548 145.180  0.00  0.00    +0.000 OA
ATOM      2  C   UNL     1     106.177 126.935 144.555  0.00  0.00    +0.000 A 
ATOM      3  C   UNL     1     105.774 127.506 144.993  0.00  0.00    +0.000 A 
ATOM      4  C   UNL     1     106.099 126.913 143.734  0.00  0.00    +0.000 A 
ATOM      5  C   UNL     1     105.293 128.056 144.609  0.00  0.00    +0.000 A 
ATOM      6  C   UNL     1     105.618 127.462 143.351  0.00  0.00    +0.000 A 
ATOM      7  C   UNL     1     105.743 127.664 145.797  0.00  0.00    +0.000 A 
ATOM      8  C   UNL     1     105.214 128.035 143.789  0.00  0.00    +0.000 A 
ATOM      9  C   UNL     1     105.247 128.306 145.912  0.00  0.00    +0.000 A 
ENDROOT
BRANCH   4  11
ATOM     10  O   UNL     1     107.314 126.241 143.399  0.00  0.00    +0.000 OA
ATOM     11  C   UNL     1     106.502 126.342 143.297  0.00  0.00    +0.000 C 
BRANCH  11  12
ATOM     12  C   UNL     1     106.093 125.870 142.757  0.00  0.00    +0.000 C 
BRANCH  12  14
ATOM     13  O   UNL     1     107.328 125.519 142.129  0.00  0.00    +0.000 OA
ATOM     14  C   UNL     1     106.504 125.473 142.163  0.00  0.00    +0.000 C 
BRANCH  14  17
ATOM     15  O   UNL     1     105.427 125.000 139.480  0.00  0.00    +0.000 OA
ATOM     16  O   UNL     1     104.902 123.829 139.818  0.00  0.00    +0.000 OA
ATOM     17  C   UNL     1     106.094 125.029 141.602  0.00  0.00    +0.000 A 
ATOM     18  C   UNL     1     106.009 125.312 140.832  0.00  0.00    +0.000 A 
ATOM     19  C   UNL     1     105.598 124.867 140.272  0.00  0.00    +0.000 A 
ATOM     20  C   UNL     1     105.767 124.300 141.812  0.00  0.00    +0.000 A 
ATOM     21  C   UNL     1     105.272 124.139 140.481  0.00  0.00    +0.000 A 
ATOM     22  C   UNL     1     105.356 123.856 141.251  0.00  0.00    +0.000 A 
ATOM     23  C   UNL     1     104.998 124.360 139.201  0.00  0.00    +0.000 C 
ENDBRANCH  14  17
ENDBRANCH  12  14
ENDBRANCH  11  12
ENDBRANCH   4  11
BRANCH   2  24
ATOM     24  O   UNL     1     106.658 126.386 144.939  0.00  0.00    +0.000 OA
BRANCH  24  32
ATOM     25  O   UNL     1     105.578 125.503 145.246  0.00  0.00    +0.000 OA
ATOM     26  O   UNL     1     106.799 124.705 147.246  0.00  0.00    +0.000 OA
ATOM     27  O   UNL     1     107.472 125.854 146.272  0.00  0.00    +0.000 OA
ATOM     28  O   UNL     1     105.312 124.088 146.886  0.00  0.00    +0.000 OA
ATOM     29  C   UNL     1     106.392 124.971 146.579  0.00  0.00    +0.000 C 
ATOM     30  C   UNL     1     106.729 125.545 146.093  0.00  0.00    +0.000 C 
ATOM     31  C   UNL     1     105.648 124.662 146.400  0.00  0.00    +0.000 C 
ATOM     32  C   UNL     1     106.322 125.811 145.426  0.00  0.00    +0.000 C 
ATOM     33  C   UNL     1     105.242 124.928 145.733  0.00  0.00    +0.000 C 
BRANCH  33  36
ATOM     34  O   UNL     1     104.426 124.019 144.991  0.00  0.00    +0.000 OA
ATOM     35  O   UNL     1     103.827 124.911 145.934  0.00  0.00    +0.000 OA
ATOM     36  C   UNL     1     104.498 124.620 145.553  0.00  0.00    +0.000 C 
ENDBRANCH  33  36
ENDBRANCH  24  32
ENDBRANCH   2  24
TORSDOF 7
ENDMDL
