MODEL 1
REMARK VINA RESULT:      -8.2      0.000      0.000
REMARK  Name = 637885
REMARK  2 active torsions:
REMARK  status: ('A' for Active; 'I' for Inactive)
REMARK    1  A    between atoms: O_3  and  C_13
REMARK    2  A    between atoms: C_6  and  C_10
REMARK                            x       y       z     vdW  Elec       q    Type
REMARK                         _______ _______ _______ _____ _____    ______ ____
ROOT
ATOM      1  O   UNL     1     112.129 126.241 136.079  0.00  0.00    +0.000 OA
ATOM      2  O   UNL     1     111.895 124.106 136.471  0.00  0.00    +0.000 OA
ATOM      3  C   UNL     1     111.735 124.874 136.215  0.00  0.00    +0.000 C 
ATOM      4  C   UNL     1     112.289 125.473 136.335  0.00  0.00    +0.000 C 
ATOM      5  C   UNL     1     111.020 125.043 135.839  0.00  0.00    +0.000 C 
ATOM      6  C   UNL     1     110.860 125.810 135.583  0.00  0.00    +0.000 A 
ATOM      7  C   UNL     1     111.415 126.409 135.703  0.00  0.00    +0.000 A 
ATOM      8  C   UNL     1     111.259 127.213 135.440  0.00  0.00    +0.000 A 
ATOM      9  C   UNL     1     110.112 125.974 135.193  0.00  0.00    +0.000 A 
ATOM     10  C   UNL     1     110.517 127.395 135.048  0.00  0.00    +0.000 A 
ATOM     11  C   UNL     1     109.939 126.771 134.923  0.00  0.00    +0.000 A 
ATOM     12  C   UNL     1     111.820 127.806 135.565  0.00  0.00    +0.000 C 
ENDROOT
BRANCH   4  14
ATOM     13  O   UNL     1     115.148 124.798 137.839  0.00  0.00    +0.000 OA
ATOM     14  C   UNL     1     113.003 125.304 136.711  0.00  0.00    +0.000 A 
ATOM     15  C   UNL     1     113.082 125.425 137.524  0.00  0.00    +0.000 A 
ATOM     16  C   UNL     1     113.641 125.014 136.275  0.00  0.00    +0.000 A 
ATOM     17  C   UNL     1     113.796 125.257 137.899  0.00  0.00    +0.000 A 
ATOM     18  C   UNL     1     114.356 124.845 136.651  0.00  0.00    +0.000 A 
ATOM     19  C   UNL     1     114.433 124.967 137.463  0.00  0.00    +0.000 A 
ENDBRANCH   4  14
BRANCH  10  20
ATOM     20  O   UNL     1     110.359 128.163 134.793  0.00  0.00    +0.000 OA
ATOM     21  C   UNL     1     109.580 128.430 134.744  0.00  0.00    +0.000 C 
ENDBRANCH  10  20
TORSDOF 2
ENDMDL
MODEL 2
REMARK VINA RESULT:      -7.9     13.093     13.629
REMARK  Name = 637885
REMARK  2 active torsions:
REMARK  status: ('A' for Active; 'I' for Inactive)
REMARK    1  A    between atoms: O_3  and  C_13
REMARK    2  A    between atoms: C_6  and  C_10
REMARK                            x       y       z     vdW  Elec       q    Type
REMARK                         _______ _______ _______ _____ _____    ______ ____
ROOT
ATOM      1  O   UNL     1     104.921 124.689 147.257  0.00  0.00    +0.000 OA
ATOM      2  O   UNL     1     105.347 125.971 148.972  0.00  0.00    +0.000 OA
ATOM      3  C   UNL     1     104.931 125.541 148.404  0.00  0.00    +0.000 C 
ATOM      4  C   UNL     1     105.339 125.119 147.824  0.00  0.00    +0.000 C 
ATOM      5  C   UNL     1     104.105 125.534 148.416  0.00  0.00    +0.000 C 
ATOM      6  C   UNL     1     103.689 125.104 147.848  0.00  0.00    +0.000 A 
ATOM      7  C   UNL     1     104.097 124.682 147.269  0.00  0.00    +0.000 A 
ATOM      8  C   UNL     1     103.673 124.231 146.672  0.00  0.00    +0.000 A 
ATOM      9  C   UNL     1     102.829 125.105 147.871  0.00  0.00    +0.000 A 
ATOM     10  C   UNL     1     102.814 124.220 146.679  0.00  0.00    +0.000 A 
ATOM     11  C   UNL     1     102.390 124.659 147.283  0.00  0.00    +0.000 A 
ATOM     12  C   UNL     1     104.089 123.811 146.096  0.00  0.00    +0.000 C 
ENDROOT
BRANCH   4  14
ATOM     13  O   UNL     1     108.638 125.148 147.776  0.00  0.00    +0.000 OA
ATOM     14  C   UNL     1     106.163 125.126 147.812  0.00  0.00    +0.000 A 
ATOM     15  C   UNL     1     106.588 124.638 148.325  0.00  0.00    +0.000 A 
ATOM     16  C   UNL     1     106.563 125.621 147.288  0.00  0.00    +0.000 A 
ATOM     17  C   UNL     1     107.412 124.646 148.313  0.00  0.00    +0.000 A 
ATOM     18  C   UNL     1     107.389 125.628 147.275  0.00  0.00    +0.000 A 
ATOM     19  C   UNL     1     107.813 125.140 147.788  0.00  0.00    +0.000 A 
ENDBRANCH   4  14
BRANCH  10  20
ATOM     20  O   UNL     1     102.400 123.789 146.111  0.00  0.00    +0.000 OA
ATOM     21  C   UNL     1     101.579 123.718 146.164  0.00  0.00    +0.000 C 
ENDBRANCH  10  20
TORSDOF 2
ENDMDL
MODEL 3
REMARK VINA RESULT:      -7.8      0.922      4.109
REMARK  Name = 637885
REMARK  2 active torsions:
REMARK  status: ('A' for Active; 'I' for Inactive)
REMARK    1  A    between atoms: O_3  and  C_13
REMARK    2  A    between atoms: C_6  and  C_10
REMARK                            x       y       z     vdW  Elec       q    Type
REMARK                         _______ _______ _______ _____ _____    ______ ____
ROOT
ATOM      1  O   UNL     1     111.893 126.339 136.139  0.00  0.00    +0.000 OA
ATOM      2  O   UNL     1     110.085 125.364 135.400  0.00  0.00    +0.000 OA
ATOM      3  C   UNL     1     110.838 125.471 135.720  0.00  0.00    +0.000 C 
ATOM      4  C   UNL     1     111.140 126.233 135.819  0.00  0.00    +0.000 C 
ATOM      5  C   UNL     1     111.289 124.816 135.941  0.00  0.00    +0.000 C 
ATOM      6  C   UNL     1     112.042 124.923 136.261  0.00  0.00    +0.000 A 
ATOM      7  C   UNL     1     112.344 125.685 136.360  0.00  0.00    +0.000 A 
ATOM      8  C   UNL     1     113.127 125.809 136.692  0.00  0.00    +0.000 A 
ATOM      9  C   UNL     1     112.502 124.234 136.487  0.00  0.00    +0.000 A 
ATOM     10  C   UNL     1     113.601 125.131 136.924  0.00  0.00    +0.000 A 
ATOM     11  C   UNL     1     113.287 124.338 136.821  0.00  0.00    +0.000 A 
ATOM     12  C   UNL     1     113.421 126.574 136.788  0.00  0.00    +0.000 C 
ENDROOT
BRANCH   4  14
ATOM     13  O   UNL     1     109.335 128.851 134.937  0.00  0.00    +0.000 OA
ATOM     14  C   UNL     1     110.689 126.887 135.599  0.00  0.00    +0.000 A 
ATOM     15  C   UNL     1     110.746 127.188 134.833  0.00  0.00    +0.000 A 
ATOM     16  C   UNL     1     110.181 127.240 136.144  0.00  0.00    +0.000 A 
ATOM     17  C   UNL     1     110.295 127.842 134.612  0.00  0.00    +0.000 A 
ATOM     18  C   UNL     1     109.729 127.895 135.923  0.00  0.00    +0.000 A 
ATOM     19  C   UNL     1     109.787 128.196 135.157  0.00  0.00    +0.000 A 
ENDBRANCH   4  14
BRANCH  10  20
ATOM     20  O   UNL     1     114.354 125.241 137.243  0.00  0.00    +0.000 OA
ATOM     21  C   UNL     1     114.890 124.614 137.260  0.00  0.00    +0.000 C 
ENDBRANCH  10  20
TORSDOF 2
ENDMDL
MODEL 4
REMARK VINA RESULT:      -7.8     10.260     12.242
REMARK  Name = 637885
REMARK  2 active torsions:
REMARK  status: ('A' for Active; 'I' for Inactive)
REMARK    1  A    between atoms: O_3  and  C_13
REMARK    2  A    between atoms: C_6  and  C_10
REMARK                            x       y       z     vdW  Elec       q    Type
REMARK                         _______ _______ _______ _____ _____    ______ ____
ROOT
ATOM      1  O   UNL     1     103.144 130.334 142.251  0.00  0.00    +0.000 OA
ATOM      2  O   UNL     1     102.156 130.378 140.305  0.00  0.00    +0.000 OA
ATOM      3  C   UNL     1     102.638 130.137 140.929  0.00  0.00    +0.000 C 
ATOM      4  C   UNL     1     102.661 130.577 141.627  0.00  0.00    +0.000 C 
ATOM      5  C   UNL     1     103.098 129.454 140.856  0.00  0.00    +0.000 C 
ATOM      6  C   UNL     1     103.580 129.213 141.480  0.00  0.00    +0.000 A 
ATOM      7  C   UNL     1     103.603 129.653 142.178  0.00  0.00    +0.000 A 
ATOM      8  C   UNL     1     104.101 129.412 142.835  0.00  0.00    +0.000 A 
ATOM      9  C   UNL     1     104.053 128.501 141.392  0.00  0.00    +0.000 A 
ATOM     10  C   UNL     1     104.581 128.703 142.765  0.00  0.00    +0.000 A 
ATOM     11  C   UNL     1     104.557 128.245 142.039  0.00  0.00    +0.000 A 
ATOM     12  C   UNL     1     104.118 129.858 143.529  0.00  0.00    +0.000 C 
ENDROOT
BRANCH   4  14
ATOM     13  O   UNL     1     100.825 133.303 141.918  0.00  0.00    +0.000 OA
ATOM     14  C   UNL     1     102.203 131.258 141.700  0.00  0.00    +0.000 A 
ATOM     15  C   UNL     1     101.424 131.204 141.966  0.00  0.00    +0.000 A 
ATOM     16  C   UNL     1     102.522 131.993 141.506  0.00  0.00    +0.000 A 
ATOM     17  C   UNL     1     100.965 131.885 142.039  0.00  0.00    +0.000 A 
ATOM     18  C   UNL     1     102.063 132.675 141.579  0.00  0.00    +0.000 A 
ATOM     19  C   UNL     1     101.285 132.621 141.845  0.00  0.00    +0.000 A 
ENDBRANCH   4  14
BRANCH  10  20
ATOM     20  O   UNL     1     105.063 128.464 143.391  0.00  0.00    +0.000 OA
ATOM     21  C   UNL     1     105.508 127.772 143.328  0.00  0.00    +0.000 C 
ENDBRANCH  10  20
TORSDOF 2
ENDMDL
MODEL 5
REMARK VINA RESULT:      -7.7     12.847     13.861
REMARK  Name = 637885
REMARK  2 active torsions:
REMARK  status: ('A' for Active; 'I' for Inactive)
REMARK    1  A    between atoms: O_3  and  C_13
REMARK    2  A    between atoms: C_6  and  C_10
REMARK                            x       y       z     vdW  Elec       q    Type
REMARK                         _______ _______ _______ _____ _____    ______ ____
ROOT
ATOM      1  O   UNL     1     104.897 124.462 147.503  0.00  0.00    +0.000 OA
ATOM      2  O   UNL     1     104.453 124.969 145.427  0.00  0.00    +0.000 OA
ATOM      3  C   UNL     1     104.866 124.872 146.135  0.00  0.00    +0.000 C 
ATOM      4  C   UNL     1     104.484 124.559 146.796  0.00  0.00    +0.000 C 
ATOM      5  C   UNL     1     105.661 125.088 146.181  0.00  0.00    +0.000 C 
ATOM      6  C   UNL     1     106.074 124.990 146.889  0.00  0.00    +0.000 A 
ATOM      7  C   UNL     1     105.692 124.678 147.550  0.00  0.00    +0.000 A 
ATOM      8  C   UNL     1     106.111 124.572 148.293  0.00  0.00    +0.000 A 
ATOM      9  C   UNL     1     106.902 125.219 146.925  0.00  0.00    +0.000 A 
ATOM     10  C   UNL     1     106.939 124.795 148.347  0.00  0.00    +0.000 A 
ATOM     11  C   UNL     1     107.337 125.120 147.659  0.00  0.00    +0.000 A 
ATOM     12  C   UNL     1     105.721 124.258 148.949  0.00  0.00    +0.000 C 
ENDROOT
BRANCH   4  14
ATOM     13  O   UNL     1     101.304 123.695 146.609  0.00  0.00    +0.000 OA
ATOM     14  C   UNL     1     103.689 124.343 146.749  0.00  0.00    +0.000 A 
ATOM     15  C   UNL     1     103.105 124.854 147.030  0.00  0.00    +0.000 A 
ATOM     16  C   UNL     1     103.478 123.616 146.421  0.00  0.00    +0.000 A 
ATOM     17  C   UNL     1     102.311 124.638 146.984  0.00  0.00    +0.000 A 
ATOM     18  C   UNL     1     102.683 123.400 146.374  0.00  0.00    +0.000 A 
ATOM     19  C   UNL     1     102.100 123.911 146.656  0.00  0.00    +0.000 A 
ENDBRANCH   4  14
BRANCH  10  20
ATOM     20  O   UNL     1     107.350 124.697 149.056  0.00  0.00    +0.000 OA
ATOM     21  C   UNL     1     108.169 124.599 149.048  0.00  0.00    +0.000 C 
ENDBRANCH  10  20
TORSDOF 2
ENDMDL
MODEL 6
REMARK VINA RESULT:      -7.5      2.709      4.025
REMARK  Name = 637885
REMARK  2 active torsions:
REMARK  status: ('A' for Active; 'I' for Inactive)
REMARK    1  A    between atoms: O_3  and  C_13
REMARK    2  A    between atoms: C_6  and  C_10
REMARK                            x       y       z     vdW  Elec       q    Type
REMARK                         _______ _______ _______ _____ _____    ______ ____
ROOT
ATOM      1  O   UNL     1     113.419 126.339 138.892  0.00  0.00    +0.000 OA
ATOM      2  O   UNL     1     112.115 125.358 137.443  0.00  0.00    +0.000 OA
ATOM      3  C   UNL     1     112.369 125.753 138.121  0.00  0.00    +0.000 C 
ATOM      4  C   UNL     1     113.166 125.944 138.214  0.00  0.00    +0.000 C 
ATOM      5  C   UNL     1     111.824 125.958 138.707  0.00  0.00    +0.000 C 
ATOM      6  C   UNL     1     112.079 126.354 139.385  0.00  0.00    +0.000 A 
ATOM      7  C   UNL     1     112.876 126.544 139.477  0.00  0.00    +0.000 A 
ATOM      8  C   UNL     1     113.152 126.956 140.180  0.00  0.00    +0.000 A 
ATOM      9  C   UNL     1     111.503 126.562 139.988  0.00  0.00    +0.000 A 
ATOM     10  C   UNL     1     112.591 127.172 140.793  0.00  0.00    +0.000 A 
ATOM     11  C   UNL     1     111.761 126.974 140.696  0.00  0.00    +0.000 A 
ATOM     12  C   UNL     1     113.952 127.142 140.263  0.00  0.00    +0.000 C 
ENDROOT
BRANCH   4  14
ATOM     13  O   UNL     1     115.340 125.124 135.870  0.00  0.00    +0.000 OA
ATOM     14  C   UNL     1     113.709 125.739 137.628  0.00  0.00    +0.000 A 
ATOM     15  C   UNL     1     114.133 125.033 137.686  0.00  0.00    +0.000 A 
ATOM     16  C   UNL     1     113.830 126.239 136.984  0.00  0.00    +0.000 A 
ATOM     17  C   UNL     1     114.676 124.828 137.101  0.00  0.00    +0.000 A 
ATOM     18  C   UNL     1     114.374 126.034 136.398  0.00  0.00    +0.000 A 
ATOM     19  C   UNL     1     114.796 125.329 136.457  0.00  0.00    +0.000 A 
ENDBRANCH   4  14
BRANCH  10  20
ATOM     20  O   UNL     1     112.847 127.568 141.470  0.00  0.00    +0.000 OA
ATOM     21  C   UNL     1     112.303 127.960 141.950  0.00  0.00    +0.000 C 
ENDBRANCH  10  20
TORSDOF 2
ENDMDL
MODEL 7
REMARK VINA RESULT:      -7.5      1.917      3.728
REMARK  Name = 637885
REMARK  2 active torsions:
REMARK  status: ('A' for Active; 'I' for Inactive)
REMARK    1  A    between atoms: O_3  and  C_13
REMARK    2  A    between atoms: C_6  and  C_10
REMARK                            x       y       z     vdW  Elec       q    Type
REMARK                         _______ _______ _______ _____ _____    ______ ____
ROOT
ATOM      1  O   UNL     1     113.118 127.057 136.363  0.00  0.00    +0.000 OA
ATOM      2  O   UNL     1     111.775 128.576 135.554  0.00  0.00    +0.000 OA
ATOM      3  C   UNL     1     112.061 127.848 135.816  0.00  0.00    +0.000 C 
ATOM      4  C   UNL     1     112.833 127.786 136.101  0.00  0.00    +0.000 C 
ATOM      5  C   UNL     1     111.574 127.182 135.793  0.00  0.00    +0.000 C 
ATOM      6  C   UNL     1     111.860 126.454 136.055  0.00  0.00    +0.000 A 
ATOM      7  C   UNL     1     112.632 126.392 136.340  0.00  0.00    +0.000 A 
ATOM      8  C   UNL     1     112.941 125.638 136.616  0.00  0.00    +0.000 A 
ATOM      9  C   UNL     1     111.344 125.767 136.026  0.00  0.00    +0.000 A 
ATOM     10  C   UNL     1     112.439 124.941 136.595  0.00  0.00    +0.000 A 
ATOM     11  C   UNL     1     111.636 125.006 136.298  0.00  0.00    +0.000 A 
ATOM     12  C   UNL     1     113.714 125.586 136.899  0.00  0.00    +0.000 C 
ENDROOT
BRANCH   4  14
ATOM     13  O   UNL     1     114.778 130.451 136.193  0.00  0.00    +0.000 OA
ATOM     14  C   UNL     1     113.319 128.452 136.124  0.00  0.00    +0.000 A 
ATOM     15  C   UNL     1     113.819 128.620 135.489  0.00  0.00    +0.000 A 
ATOM     16  C   UNL     1     113.305 128.950 136.781  0.00  0.00    +0.000 A 
ATOM     17  C   UNL     1     114.305 129.286 135.512  0.00  0.00    +0.000 A 
ATOM     18  C   UNL     1     113.792 129.617 136.804  0.00  0.00    +0.000 A 
ATOM     19  C   UNL     1     114.291 129.784 136.170  0.00  0.00    +0.000 A 
ENDBRANCH   4  14
BRANCH  10  20
ATOM     20  O   UNL     1     112.727 124.214 136.857  0.00  0.00    +0.000 OA
ATOM     21  C   UNL     1     112.233 123.554 136.867  0.00  0.00    +0.000 C 
ENDBRANCH  10  20
TORSDOF 2
ENDMDL
MODEL 8
REMARK VINA RESULT:      -7.5     10.974     12.864
REMARK  Name = 637885
REMARK  2 active torsions:
REMARK  status: ('A' for Active; 'I' for Inactive)
REMARK    1  A    between atoms: O_3  and  C_13
REMARK    2  A    between atoms: C_6  and  C_10
REMARK                            x       y       z     vdW  Elec       q    Type
REMARK                         _______ _______ _______ _____ _____    ______ ____
ROOT
ATOM      1  O   UNL     1     102.681 132.449 141.282  0.00  0.00    +0.000 OA
ATOM      2  O   UNL     1     101.013 131.256 142.029  0.00  0.00    +0.000 OA
ATOM      3  C   UNL     1     101.469 131.907 141.808  0.00  0.00    +0.000 C 
ATOM      4  C   UNL     1     102.227 131.797 141.502  0.00  0.00    +0.000 C 
ATOM      5  C   UNL     1     101.165 132.671 141.894  0.00  0.00    +0.000 C 
ATOM      6  C   UNL     1     101.620 133.322 141.673  0.00  0.00    +0.000 A 
ATOM      7  C   UNL     1     102.379 133.211 141.367  0.00  0.00    +0.000 A 
ATOM      8  C   UNL     1     102.862 133.883 141.134  0.00  0.00    +0.000 A 
ATOM      9  C   UNL     1     101.293 134.112 141.767  0.00  0.00    +0.000 A 
ATOM     10  C   UNL     1     102.552 134.679 141.221  0.00  0.00    +0.000 A 
ATOM     11  C   UNL     1     101.762 134.794 141.539  0.00  0.00    +0.000 A 
ATOM     12  C   UNL     1     103.619 133.762 140.829  0.00  0.00    +0.000 C 
ENDROOT
BRANCH   4  14
ATOM     13  O   UNL     1     103.439 128.747 141.162  0.00  0.00    +0.000 OA
ATOM     14  C   UNL     1     102.530 131.035 141.417  0.00  0.00    +0.000 A 
ATOM     15  C   UNL     1     102.396 130.613 140.721  0.00  0.00    +0.000 A 
ATOM     16  C   UNL     1     102.966 130.694 142.028  0.00  0.00    +0.000 A 
ATOM     17  C   UNL     1     102.699 129.851 140.635  0.00  0.00    +0.000 A 
ATOM     18  C   UNL     1     103.270 129.931 141.943  0.00  0.00    +0.000 A 
ATOM     19  C   UNL     1     103.136 129.510 141.247  0.00  0.00    +0.000 A 
ENDBRANCH   4  14
BRANCH  10  20
ATOM     20  O   UNL     1     103.009 135.329 140.999  0.00  0.00    +0.000 OA
ATOM     21  C   UNL     1     102.729 136.094 141.130  0.00  0.00    +0.000 C 
ENDBRANCH  10  20
TORSDOF 2
ENDMDL
MODEL 9
REMARK VINA RESULT:      -7.4     13.482     13.915
REMARK  Name = 637885
REMARK  2 active torsions:
REMARK  status: ('A' for Active; 'I' for Inactive)
REMARK    1  A    between atoms: O_3  and  C_13
REMARK    2  A    between atoms: C_6  and  C_10
REMARK                            x       y       z     vdW  Elec       q    Type
REMARK                         _______ _______ _______ _____ _____    ______ ____
ROOT
ATOM      1  O   UNL     1     105.116 125.789 148.233  0.00  0.00    +0.000 OA
ATOM      2  O   UNL     1     105.445 123.995 147.033  0.00  0.00    +0.000 OA
ATOM      3  C   UNL     1     105.061 124.604 147.436  0.00  0.00    +0.000 C 
ATOM      4  C   UNL     1     105.501 125.181 147.829  0.00  0.00    +0.000 C 
ATOM      5  C   UNL     1     104.236 124.635 147.446  0.00  0.00    +0.000 C 
ATOM      6  C   UNL     1     103.852 125.244 147.850  0.00  0.00    +0.000 A 
ATOM      7  C   UNL     1     104.292 125.821 148.243  0.00  0.00    +0.000 A 
ATOM      8  C   UNL     1     103.903 126.459 148.667  0.00  0.00    +0.000 A 
ATOM      9  C   UNL     1     102.993 125.266 147.854  0.00  0.00    +0.000 A 
ATOM     10  C   UNL     1     103.045 126.498 148.681  0.00  0.00    +0.000 A 
ATOM     11  C   UNL     1     102.587 125.897 148.272  0.00  0.00    +0.000 A 
ATOM     12  C   UNL     1     104.351 127.032 149.057  0.00  0.00    +0.000 C 
ENDROOT
BRANCH   4  14
ATOM     13  O   UNL     1     108.798 125.054 147.787  0.00  0.00    +0.000 OA
ATOM     14  C   UNL     1     106.324 125.149 147.819  0.00  0.00    +0.000 A 
ATOM     15  C   UNL     1     106.732 124.782 148.436  0.00  0.00    +0.000 A 
ATOM     16  C   UNL     1     106.742 125.484 147.191  0.00  0.00    +0.000 A 
ATOM     17  C   UNL     1     107.555 124.750 148.426  0.00  0.00    +0.000 A 
ATOM     18  C   UNL     1     107.567 125.452 147.180  0.00  0.00    +0.000 A 
ATOM     19  C   UNL     1     107.973 125.085 147.798  0.00  0.00    +0.000 A 
ENDBRANCH   4  14
BRANCH  10  20
ATOM     20  O   UNL     1     102.663 127.107 149.085  0.00  0.00    +0.000 OA
ATOM     21  C   UNL     1     101.839 127.133 149.110  0.00  0.00    +0.000 C 
ENDBRANCH  10  20
TORSDOF 2
ENDMDL
MODEL 10
REMARK VINA RESULT:      -7.4      1.453      4.051
REMARK  Name = 637885
REMARK  2 active torsions:
REMARK  status: ('A' for Active; 'I' for Inactive)
REMARK    1  A    between atoms: O_3  and  C_13
REMARK    2  A    between atoms: C_6  and  C_10
REMARK                            x       y       z     vdW  Elec       q    Type
REMARK                         _______ _______ _______ _____ _____    ______ ____
ROOT
ATOM      1  O   UNL     1     112.022 126.550 136.218  0.00  0.00    +0.000 OA
ATOM      2  O   UNL     1     113.684 127.950 136.426  0.00  0.00    +0.000 OA
ATOM      3  C   UNL     1     113.253 127.247 136.420  0.00  0.00    +0.000 C 
ATOM      4  C   UNL     1     112.452 127.255 136.223  0.00  0.00    +0.000 C 
ATOM      5  C   UNL     1     113.624 126.535 136.613  0.00  0.00    +0.000 C 
ATOM      6  C   UNL     1     113.193 125.831 136.607  0.00  0.00    +0.000 A 
ATOM      7  C   UNL     1     112.392 125.839 136.410  0.00  0.00    +0.000 A 
ATOM      8  C   UNL     1     111.933 125.112 136.401  0.00  0.00    +0.000 A 
ATOM      9  C   UNL     1     113.590 125.096 136.809  0.00  0.00    +0.000 A 
ATOM     10  C   UNL     1     112.313 124.368 136.600  0.00  0.00    +0.000 A 
ATOM     11  C   UNL     1     113.147 124.360 136.805  0.00  0.00    +0.000 A 
ATOM     12  C   UNL     1     111.132 125.130 136.202  0.00  0.00    +0.000 C 
ENDROOT
BRANCH   4  14
ATOM     13  O   UNL     1     110.970 130.102 135.455  0.00  0.00    +0.000 OA
ATOM     14  C   UNL     1     112.082 127.966 136.031  0.00  0.00    +0.000 A 
ATOM     15  C   UNL     1     111.748 128.431 136.625  0.00  0.00    +0.000 A 
ATOM     16  C   UNL     1     112.045 128.213 135.245  0.00  0.00    +0.000 A 
ATOM     17  C   UNL     1     111.378 129.143 136.434  0.00  0.00    +0.000 A 
ATOM     18  C   UNL     1     111.674 128.925 135.053  0.00  0.00    +0.000 A 
ATOM     19  C   UNL     1     111.341 129.389 135.647  0.00  0.00    +0.000 A 
ENDBRANCH   4  14
BRANCH  10  20
ATOM     20  O   UNL     1     111.880 123.666 136.593  0.00  0.00    +0.000 OA
ATOM     21  C   UNL     1     112.107 123.037 137.077  0.00  0.00    +0.000 C 
ENDBRANCH  10  20
TORSDOF 2
ENDMDL
