MODEL 1
REMARK VINA RESULT:     -10.2      0.000      0.000
REMARK  Name = 44259074
REMARK  15 active torsions:
REMARK  status: ('A' for Active; 'I' for Inactive)
REMARK    1  A    between atoms: O_1  and  C_22
REMARK    2  A    between atoms: O_1  and  C_27
REMARK    3  A    between atoms: O_4  and  C_23
REMARK    4  A    between atoms: O_4  and  C_39
REMARK    5  A    between atoms: O_5  and  C_26
REMARK    6  A    between atoms: O_5  and  C_38
REMARK    7  A    between atoms: O_7  and  C_29
REMARK    8  A    between atoms: O_7  and  C_47
REMARK    9  A    between atoms: O_11  and  C_37
REMARK   10  A    between atoms: O_11  and  C_44
REMARK   11  A    between atoms: O_21  and  C_60
REMARK   12  A    between atoms: C_36  and  C_40
REMARK   13  A    between atoms: C_41  and  C_51
REMARK   14  A    between atoms: C_46  and  C_52
REMARK   15  A    between atoms: C_52  and  C_56
REMARK                            x       y       z     vdW  Elec       q    Type
REMARK                         _______ _______ _______ _____ _____    ______ ____
ROOT
ATOM      1  O   UNL     1     111.427 129.092 137.374  0.00  0.00    +0.000 OA
ATOM      2  O   UNL     1     111.633 128.471 139.760  0.00  0.00    +0.000 OA
ATOM      3  O   UNL     1     111.713 127.072 139.420  0.00  0.00    +0.000 OA
ATOM      4  C   UNL     1     111.492 129.471 138.750  0.00  0.00    +0.000 A 
ATOM      5  C   UNL     1     111.423 129.678 137.955  0.00  0.00    +0.000 A 
ATOM      6  C   UNL     1     111.565 128.678 138.965  0.00  0.00    +0.000 A 
ATOM      7  C   UNL     1     111.569 128.092 138.385  0.00  0.00    +0.000 A 
ATOM      8  C   UNL     1     111.579 126.870 137.193  0.00  0.00    +0.000 A 
ATOM      9  C   UNL     1     111.500 128.299 137.589  0.00  0.00    +0.000 A 
ATOM     10  C   UNL     1     111.503 127.698 136.975  0.00  0.00    +0.000 A 
ATOM     11  C   UNL     1     111.645 127.270 138.621  0.00  0.00    +0.000 A 
ATOM     12  C   UNL     1     111.650 126.654 138.021  0.00  0.00    +0.000 A 
ENDROOT
BRANCH   5  13
ATOM     13  C   UNL     1     111.350 130.471 137.739  0.00  0.00    +0.000 A 
ATOM     14  C   UNL     1     111.987 130.863 137.390  0.00  0.00    +0.000 A 
ATOM     15  C   UNL     1     110.642 130.872 137.871  0.00  0.00    +0.000 A 
ATOM     16  C   UNL     1     111.915 131.656 137.174  0.00  0.00    +0.000 A 
ATOM     17  C   UNL     1     110.569 131.665 137.655  0.00  0.00    +0.000 A 
ATOM     18  C   UNL     1     111.206 132.057 137.307  0.00  0.00    +0.000 A 
BRANCH  18  19
ATOM     19  O   UNL     1     111.134 132.850 137.091  0.00  0.00    +0.000 OA
ATOM     20  C   UNL     1     110.576 133.074 136.526  0.00  0.00    +0.000 C 
ENDBRANCH  18  19
ENDBRANCH   5  13
BRANCH   4  21
ATOM     21  O   UNL     1     111.488 130.057 139.330  0.00  0.00    +0.000 OA
BRANCH  21  28
ATOM     22  O   UNL     1     112.887 129.897 139.570  0.00  0.00    +0.000 OA
ATOM     23  O   UNL     1     111.321 130.790 140.799  0.00  0.00    +0.000 OA
ATOM     24  C   UNL     1     112.720 130.630 141.038  0.00  0.00    +0.000 C 
ATOM     25  C   UNL     1     113.462 130.367 140.791  0.00  0.00    +0.000 C 
ATOM     26  C   UNL     1     112.063 130.527 140.552  0.00  0.00    +0.000 C 
ATOM     27  C   UNL     1     113.546 130.000 140.057  0.00  0.00    +0.000 C 
ATOM     28  C   UNL     1     112.146 130.160 139.818  0.00  0.00    +0.000 C 
ATOM     29  C   UNL     1     114.287 129.736 139.809  0.00  0.00    +0.000 C 
BRANCH  24  30
ATOM     30  O   UNL     1     112.637 130.997 141.772  0.00  0.00    +0.000 OA
BRANCH  30  34
ATOM     31  O   UNL     1     112.293 129.753 142.387  0.00  0.00    +0.000 OA
ATOM     32  O   UNL     1     112.068 131.806 143.093  0.00  0.00    +0.000 OA
ATOM     33  O   UNL     1     111.380 129.319 144.321  0.00  0.00    +0.000 OA
ATOM     34  C   UNL     1     112.322 130.577 142.410  0.00  0.00    +0.000 C 
ATOM     35  C   UNL     1     112.038 130.982 143.071  0.00  0.00    +0.000 C 
ATOM     36  C   UNL     1     111.724 130.563 143.707  0.00  0.00    +0.000 C 
ATOM     37  C   UNL     1     111.694 129.739 143.684  0.00  0.00    +0.000 C 
ATOM     38  C   UNL     1     111.979 129.334 143.024  0.00  0.00    +0.000 C 
BRANCH  36  39
ATOM     39  O   UNL     1     111.440 130.967 144.367  0.00  0.00    +0.000 OA
BRANCH  39  41
ATOM     40  O   UNL     1     110.232 131.559 143.884  0.00  0.00    +0.000 OA
ATOM     41  C   UNL     1     110.631 131.108 144.449  0.00  0.00    +0.000 C 
ATOM     42  C   UNL     1     110.221 130.797 145.094  0.00  0.00    +0.000 C 
ENDBRANCH  39  41
ENDBRANCH  36  39
ENDBRANCH  30  34
ENDBRANCH  24  30
BRANCH  25  43
ATOM     43  O   UNL     1     114.120 130.470 141.277  0.00  0.00    +0.000 OA
BRANCH  43  45
ATOM     44  O   UNL     1     114.650 131.762 140.978  0.00  0.00    +0.000 OA
ATOM     45  C   UNL     1     114.747 130.944 141.029  0.00  0.00    +0.000 C 
ATOM     46  C   UNL     1     115.471 130.602 140.830  0.00  0.00    +0.000 C 
ENDBRANCH  43  45
ENDBRANCH  25  43
ENDBRANCH  21  28
ENDBRANCH   4  21
BRANCH   8  47
ATOM     47  O   UNL     1     111.583 126.286 136.610  0.00  0.00    +0.000 OA
BRANCH  47  56
ATOM     48  O   UNL     1     112.916 125.791 136.746  0.00  0.00    +0.000 OA
ATOM     49  O   UNL     1     112.060 123.469 136.675  0.00  0.00    +0.000 OA
ATOM     50  O   UNL     1     113.679 123.747 136.834  0.00  0.00    +0.000 OA
ATOM     51  O   UNL     1     111.013 124.739 136.563  0.00  0.00    +0.000 OA
ATOM     52  C   UNL     1     112.346 124.243 136.699  0.00  0.00    +0.000 C 
ATOM     53  C   UNL     1     113.155 124.382 136.778  0.00  0.00    +0.000 C 
ATOM     54  C   UNL     1     111.822 124.877 136.643  0.00  0.00    +0.000 C 
ATOM     55  C   UNL     1     113.440 125.156 136.802  0.00  0.00    +0.000 C 
ATOM     56  C   UNL     1     112.107 125.651 136.666  0.00  0.00    +0.000 C 
BRANCH  55  58
ATOM     57  O   UNL     1     114.636 125.794 136.351  0.00  0.00    +0.000 OA
ATOM     58  C   UNL     1     114.250 125.295 136.881  0.00  0.00    +0.000 C 
ENDBRANCH  55  58
ENDBRANCH  47  56
ENDBRANCH   8  47
BRANCH  10  59
ATOM     59  C   UNL     1     111.434 127.914 136.182  0.00  0.00    +0.000 C 
BRANCH  59  60
ATOM     60  C   UNL     1     110.693 127.921 135.819  0.00  0.00    +0.000 C 
ATOM     61  C   UNL     1     110.620 128.165 135.035  0.00  0.00    +0.000 C 
ATOM     62  C   UNL     1     109.879 128.172 134.672  0.00  0.00    +0.000 C 
ATOM     63  C   UNL     1     111.288 128.403 134.612  0.00  0.00    +0.000 C 
ENDBRANCH  59  60
ENDBRANCH  10  59
TORSDOF 15
ENDMDL
MODEL 2
REMARK VINA RESULT:      -9.9      2.183      2.774
REMARK  Name = 44259074
REMARK  15 active torsions:
REMARK  status: ('A' for Active; 'I' for Inactive)
REMARK    1  A    between atoms: O_1  and  C_22
REMARK    2  A    between atoms: O_1  and  C_27
REMARK    3  A    between atoms: O_4  and  C_23
REMARK    4  A    between atoms: O_4  and  C_39
REMARK    5  A    between atoms: O_5  and  C_26
REMARK    6  A    between atoms: O_5  and  C_38
REMARK    7  A    between atoms: O_7  and  C_29
REMARK    8  A    between atoms: O_7  and  C_47
REMARK    9  A    between atoms: O_11  and  C_37
REMARK   10  A    between atoms: O_11  and  C_44
REMARK   11  A    between atoms: O_21  and  C_60
REMARK   12  A    between atoms: C_36  and  C_40
REMARK   13  A    between atoms: C_41  and  C_51
REMARK   14  A    between atoms: C_46  and  C_52
REMARK   15  A    between atoms: C_52  and  C_56
REMARK                            x       y       z     vdW  Elec       q    Type
REMARK                         _______ _______ _______ _____ _____    ______ ____
ROOT
ATOM      1  O   UNL     1     111.597 129.460 137.142  0.00  0.00    +0.000 OA
ATOM      2  O   UNL     1     110.377 128.650 139.137  0.00  0.00    +0.000 OA
ATOM      3  O   UNL     1     110.928 127.328 138.974  0.00  0.00    +0.000 OA
ATOM      4  C   UNL     1     110.707 129.705 138.232  0.00  0.00    +0.000 A 
ATOM      5  C   UNL     1     111.113 129.975 137.567  0.00  0.00    +0.000 A 
ATOM      6  C   UNL     1     110.783 128.920 138.472  0.00  0.00    +0.000 A 
ATOM      7  C   UNL     1     111.267 128.404 138.047  0.00  0.00    +0.000 A 
ATOM      8  C   UNL     1     112.265 127.328 137.176  0.00  0.00    +0.000 A 
ATOM      9  C   UNL     1     111.674 128.674 137.382  0.00  0.00    +0.000 A 
ATOM     10  C   UNL     1     112.181 128.147 136.931  0.00  0.00    +0.000 A 
ATOM     11  C   UNL     1     111.339 127.589 138.307  0.00  0.00    +0.000 A 
ATOM     12  C   UNL     1     111.842 127.046 137.869  0.00  0.00    +0.000 A 
ENDROOT
BRANCH   5  13
ATOM     13  C   UNL     1     111.036 130.761 137.326  0.00  0.00    +0.000 A 
ATOM     14  C   UNL     1     111.633 131.304 137.497  0.00  0.00    +0.000 A 
ATOM     15  C   UNL     1     110.364 131.003 136.915  0.00  0.00    +0.000 A 
ATOM     16  C   UNL     1     111.558 132.090 137.257  0.00  0.00    +0.000 A 
ATOM     17  C   UNL     1     110.287 131.789 136.675  0.00  0.00    +0.000 A 
ATOM     18  C   UNL     1     110.884 132.332 136.846  0.00  0.00    +0.000 A 
BRANCH  18  19
ATOM     19  O   UNL     1     110.809 133.117 136.606  0.00  0.00    +0.000 OA
ATOM     20  C   UNL     1     110.388 133.652 137.072  0.00  0.00    +0.000 C 
ENDBRANCH  18  19
ENDBRANCH   5  13
BRANCH   4  21
ATOM     21  O   UNL     1     110.223 130.221 138.657  0.00  0.00    +0.000 OA
BRANCH  21  28
ATOM     22  O   UNL     1     111.131 130.277 139.759  0.00  0.00    +0.000 OA
ATOM     23  O   UNL     1     108.982 130.648 139.657  0.00  0.00    +0.000 OA
ATOM     24  C   UNL     1     109.890 130.704 140.759  0.00  0.00    +0.000 C 
ATOM     25  C   UNL     1     110.654 130.626 141.061  0.00  0.00    +0.000 C 
ATOM     26  C   UNL     1     109.746 130.570 139.959  0.00  0.00    +0.000 C 
ATOM     27  C   UNL     1     111.275 130.412 140.560  0.00  0.00    +0.000 C 
ATOM     28  C   UNL     1     110.367 130.356 139.458  0.00  0.00    +0.000 C 
ATOM     29  C   UNL     1     112.039 130.333 140.861  0.00  0.00    +0.000 C 
BRANCH  24  30
ATOM     30  O   UNL     1     109.270 130.918 141.259  0.00  0.00    +0.000 OA
BRANCH  30  34
ATOM     31  O   UNL     1     108.979 129.548 141.545  0.00  0.00    +0.000 OA
ATOM     32  O   UNL     1     107.784 131.352 141.830  0.00  0.00    +0.000 OA
ATOM     33  O   UNL     1     107.202 128.613 142.401  0.00  0.00    +0.000 OA
ATOM     34  C   UNL     1     108.752 130.341 141.545  0.00  0.00    +0.000 C 
ATOM     35  C   UNL     1     108.009 130.559 141.830  0.00  0.00    +0.000 C 
ATOM     36  C   UNL     1     107.493 129.983 142.115  0.00  0.00    +0.000 C 
ATOM     37  C   UNL     1     107.719 129.190 142.115  0.00  0.00    +0.000 C 
ATOM     38  C   UNL     1     108.462 128.973 141.830  0.00  0.00    +0.000 C 
BRANCH  36  39
ATOM     39  O   UNL     1     106.750 130.200 142.400  0.00  0.00    +0.000 OA
BRANCH  39  41
ATOM     40  O   UNL     1     105.955 129.761 141.297  0.00  0.00    +0.000 OA
ATOM     41  C   UNL     1     106.126 130.325 141.875  0.00  0.00    +0.000 C 
ATOM     42  C   UNL     1     105.674 131.013 141.927  0.00  0.00    +0.000 C 
ENDBRANCH  39  41
ENDBRANCH  36  39
ENDBRANCH  30  34
ENDBRANCH  24  30
BRANCH  25  43
ATOM     43  O   UNL     1     110.798 130.760 141.861  0.00  0.00    +0.000 OA
BRANCH  43  45
ATOM     44  O   UNL     1     111.176 132.137 141.831  0.00  0.00    +0.000 OA
ATOM     45  C   UNL     1     111.307 131.366 142.093  0.00  0.00    +0.000 C 
ATOM     46  C   UNL     1     111.948 131.202 142.586  0.00  0.00    +0.000 C 
ENDBRANCH  43  45
ENDBRANCH  25  43
ENDBRANCH  21  28
ENDBRANCH   4  21
BRANCH   8  47
ATOM     47  O   UNL     1     112.750 126.814 136.750  0.00  0.00    +0.000 OA
BRANCH  47  56
ATOM     48  O   UNL     1     111.762 125.926 136.224  0.00  0.00    +0.000 OA
ATOM     49  O   UNL     1     113.190 123.991 136.810  0.00  0.00    +0.000 OA
ATOM     50  O   UNL     1     111.726 123.747 136.090  0.00  0.00    +0.000 OA
ATOM     51  O   UNL     1     113.702 125.525 137.140  0.00  0.00    +0.000 OA
ATOM     52  C   UNL     1     112.714 124.637 136.615  0.00  0.00    +0.000 C 
ATOM     53  C   UNL     1     111.982 124.514 136.255  0.00  0.00    +0.000 C 
ATOM     54  C   UNL     1     112.970 125.402 136.780  0.00  0.00    +0.000 C 
ATOM     55  C   UNL     1     111.505 125.159 136.059  0.00  0.00    +0.000 C 
ATOM     56  C   UNL     1     112.494 126.047 136.585  0.00  0.00    +0.000 C 
BRANCH  55  58
ATOM     57  O   UNL     1     110.563 125.477 135.034  0.00  0.00    +0.000 OA
ATOM     58  C   UNL     1     110.773 125.037 135.699  0.00  0.00    +0.000 C 
ENDBRANCH  55  58
ENDBRANCH  47  56
ENDBRANCH   8  47
BRANCH  10  59
ATOM     59  C   UNL     1     112.584 128.425 136.268  0.00  0.00    +0.000 C 
BRANCH  59  60
ATOM     60  C   UNL     1     113.361 128.693 136.339  0.00  0.00    +0.000 C 
ATOM     61  C   UNL     1     113.752 129.004 135.682  0.00  0.00    +0.000 C 
ATOM     62  C   UNL     1     114.529 129.272 135.754  0.00  0.00    +0.000 C 
ATOM     63  C   UNL     1     113.367 129.048 134.954  0.00  0.00    +0.000 C 
ENDBRANCH  59  60
ENDBRANCH  10  59
TORSDOF 15
ENDMDL
MODEL 3
REMARK VINA RESULT:      -9.8      6.488     10.286
REMARK  Name = 44259074
REMARK  15 active torsions:
REMARK  status: ('A' for Active; 'I' for Inactive)
REMARK    1  A    between atoms: O_1  and  C_22
REMARK    2  A    between atoms: O_1  and  C_27
REMARK    3  A    between atoms: O_4  and  C_23
REMARK    4  A    between atoms: O_4  and  C_39
REMARK    5  A    between atoms: O_5  and  C_26
REMARK    6  A    between atoms: O_5  and  C_38
REMARK    7  A    between atoms: O_7  and  C_29
REMARK    8  A    between atoms: O_7  and  C_47
REMARK    9  A    between atoms: O_11  and  C_37
REMARK   10  A    between atoms: O_11  and  C_44
REMARK   11  A    between atoms: O_21  and  C_60
REMARK   12  A    between atoms: C_36  and  C_40
REMARK   13  A    between atoms: C_41  and  C_51
REMARK   14  A    between atoms: C_46  and  C_52
REMARK   15  A    between atoms: C_52  and  C_56
REMARK                            x       y       z     vdW  Elec       q    Type
REMARK                         _______ _______ _______ _____ _____    ______ ____
ROOT
ATOM      1  O   UNL     1     105.489 127.975 144.947  0.00  0.00    +0.000 OA
ATOM      2  O   UNL     1     105.310 125.842 143.706  0.00  0.00    +0.000 OA
ATOM      3  O   UNL     1     105.370 125.088 144.933  0.00  0.00    +0.000 OA
ATOM      4  C   UNL     1     105.369 127.270 143.711  0.00  0.00    +0.000 A 
ATOM      5  C   UNL     1     105.428 127.981 144.124  0.00  0.00    +0.000 A 
ATOM      6  C   UNL     1     105.370 126.553 144.119  0.00  0.00    +0.000 A 
ATOM      7  C   UNL     1     105.430 126.547 144.942  0.00  0.00    +0.000 A 
ATOM      8  C   UNL     1     105.556 126.523 146.644  0.00  0.00    +0.000 A 
ATOM      9  C   UNL     1     105.490 127.259 145.356  0.00  0.00    +0.000 A 
ATOM     10  C   UNL     1     105.554 127.266 146.213  0.00  0.00    +0.000 A 
ATOM     11  C   UNL     1     105.430 125.795 145.356  0.00  0.00    +0.000 A 
ATOM     12  C   UNL     1     105.493 125.782 146.213  0.00  0.00    +0.000 A 
ENDROOT
BRANCH   5  13
ATOM     13  C   UNL     1     105.427 128.698 143.716  0.00  0.00    +0.000 A 
ATOM     14  C   UNL     1     106.130 129.119 143.622  0.00  0.00    +0.000 A 
ATOM     15  C   UNL     1     104.725 128.994 143.403  0.00  0.00    +0.000 A 
ATOM     16  C   UNL     1     106.131 129.836 143.214  0.00  0.00    +0.000 A 
ATOM     17  C   UNL     1     104.724 129.711 142.995  0.00  0.00    +0.000 A 
ATOM     18  C   UNL     1     105.427 130.132 142.900  0.00  0.00    +0.000 A 
BRANCH  18  19
ATOM     19  O   UNL     1     105.427 130.849 142.492  0.00  0.00    +0.000 OA
ATOM     20  C   UNL     1     106.005 130.998 141.921  0.00  0.00    +0.000 C 
ENDBRANCH  18  19
ENDBRANCH   5  13
BRANCH   4  21
ATOM     21  O   UNL     1     105.308 127.276 142.888  0.00  0.00    +0.000 OA
BRANCH  21  28
ATOM     22  O   UNL     1     106.662 126.874 142.673  0.00  0.00    +0.000 OA
ATOM     23  O   UNL     1     104.864 126.529 141.486  0.00  0.00    +0.000 OA
ATOM     24  C   UNL     1     106.218 126.127 141.271  0.00  0.00    +0.000 C 
ATOM     25  C   UNL     1     107.007 126.112 141.513  0.00  0.00    +0.000 C 
ATOM     26  C   UNL     1     105.652 126.514 141.728  0.00  0.00    +0.000 C 
ATOM     27  C   UNL     1     107.229 126.485 142.215  0.00  0.00    +0.000 C 
ATOM     28  C   UNL     1     105.874 126.887 142.430  0.00  0.00    +0.000 C 
ATOM     29  C   UNL     1     108.017 126.471 142.458  0.00  0.00    +0.000 C 
BRANCH  24  30
ATOM     30  O   UNL     1     105.996 125.753 140.569  0.00  0.00    +0.000 OA
BRANCH  30  34
ATOM     31  O   UNL     1     105.767 124.507 141.230  0.00  0.00    +0.000 OA
ATOM     32  O   UNL     1     104.993 125.288 139.345  0.00  0.00    +0.000 OA
ATOM     33  O   UNL     1     104.534 122.796 140.666  0.00  0.00    +0.000 OA
ATOM     34  C   UNL     1     105.630 125.013 140.593  0.00  0.00    +0.000 C 
ATOM     35  C   UNL     1     105.129 124.781 139.981  0.00  0.00    +0.000 C 
ATOM     36  C   UNL     1     104.763 124.042 140.005  0.00  0.00    +0.000 C 
ATOM     37  C   UNL     1     104.899 123.536 140.641  0.00  0.00    +0.000 C 
ATOM     38  C   UNL     1     105.401 123.768 141.254  0.00  0.00    +0.000 C 
BRANCH  36  39
ATOM     39  O   UNL     1     104.262 123.810 139.393  0.00  0.00    +0.000 OA
BRANCH  39  41
ATOM     40  O   UNL     1     105.201 122.933 138.767  0.00  0.00    +0.000 OA
ATOM     41  C   UNL     1     104.574 123.468 138.710  0.00  0.00    +0.000 C 
ATOM     42  C   UNL     1     104.261 123.659 137.972  0.00  0.00    +0.000 C 
ENDBRANCH  39  41
ENDBRANCH  36  39
ENDBRANCH  30  34
ENDBRANCH  24  30
BRANCH  25  43
ATOM     43  O   UNL     1     107.572 125.725 141.056  0.00  0.00    +0.000 OA
BRANCH  43  45
ATOM     44  O   UNL     1     108.124 126.849 140.369  0.00  0.00    +0.000 OA
ATOM     45  C   UNL     1     108.228 126.137 140.773  0.00  0.00    +0.000 C 
ATOM     46  C   UNL     1     108.988 125.840 140.895  0.00  0.00    +0.000 C 
ENDBRANCH  43  45
ENDBRANCH  25  43
ENDBRANCH  21  28
ENDBRANCH   4  21
BRANCH   8  47
ATOM     47  O   UNL     1     105.616 126.520 147.467  0.00  0.00    +0.000 OA
BRANCH  47  56
ATOM     48  O   UNL     1     106.855 125.828 147.631  0.00  0.00    +0.000 OA
ATOM     49  O   UNL     1     105.840 124.433 149.407  0.00  0.00    +0.000 OA
ATOM     50  O   UNL     1     107.417 124.206 148.980  0.00  0.00    +0.000 OA
ATOM     51  O   UNL     1     104.940 125.591 148.650  0.00  0.00    +0.000 OA
ATOM     52  C   UNL     1     106.178 124.899 148.814  0.00  0.00    +0.000 C 
ATOM     53  C   UNL     1     106.967 124.784 148.601  0.00  0.00    +0.000 C 
ATOM     54  C   UNL     1     105.729 125.477 148.437  0.00  0.00    +0.000 C 
ATOM     55  C   UNL     1     107.306 125.249 148.010  0.00  0.00    +0.000 C 
ATOM     56  C   UNL     1     106.066 125.941 147.845  0.00  0.00    +0.000 C 
BRANCH  55  58
ATOM     57  O   UNL     1     108.511 125.740 147.422  0.00  0.00    +0.000 OA
ATOM     58  C   UNL     1     108.095 125.135 147.796  0.00  0.00    +0.000 C 
ENDBRANCH  55  58
ENDBRANCH  47  56
ENDBRANCH   8  47
BRANCH  10  59
ATOM     59  C   UNL     1     105.613 127.982 146.619  0.00  0.00    +0.000 C 
BRANCH  59  60
ATOM     60  C   UNL     1     104.937 128.335 146.933  0.00  0.00    +0.000 C 
ATOM     61  C   UNL     1     104.990 129.072 147.300  0.00  0.00    +0.000 C 
ATOM     62  C   UNL     1     104.314 129.426 147.614  0.00  0.00    +0.000 C 
ATOM     63  C   UNL     1     105.718 129.456 147.353  0.00  0.00    +0.000 C 
ENDBRANCH  59  60
ENDBRANCH  10  59
TORSDOF 15
ENDMDL
MODEL 4
REMARK VINA RESULT:      -9.6      1.482      2.492
REMARK  Name = 44259074
REMARK  15 active torsions:
REMARK  status: ('A' for Active; 'I' for Inactive)
REMARK    1  A    between atoms: O_1  and  C_22
REMARK    2  A    between atoms: O_1  and  C_27
REMARK    3  A    between atoms: O_4  and  C_23
REMARK    4  A    between atoms: O_4  and  C_39
REMARK    5  A    between atoms: O_5  and  C_26
REMARK    6  A    between atoms: O_5  and  C_38
REMARK    7  A    between atoms: O_7  and  C_29
REMARK    8  A    between atoms: O_7  and  C_47
REMARK    9  A    between atoms: O_11  and  C_37
REMARK   10  A    between atoms: O_11  and  C_44
REMARK   11  A    between atoms: O_21  and  C_60
REMARK   12  A    between atoms: C_36  and  C_40
REMARK   13  A    between atoms: C_41  and  C_51
REMARK   14  A    between atoms: C_46  and  C_52
REMARK   15  A    between atoms: C_52  and  C_56
REMARK                            x       y       z     vdW  Elec       q    Type
REMARK                         _______ _______ _______ _____ _____    ______ ____
ROOT
ATOM      1  O   UNL     1     111.930 129.490 137.341  0.00  0.00    +0.000 OA
ATOM      2  O   UNL     1     112.153 129.056 139.767  0.00  0.00    +0.000 OA
ATOM      3  O   UNL     1     112.845 127.816 139.511  0.00  0.00    +0.000 OA
ATOM      4  C   UNL     1     111.700 129.884 138.694  0.00  0.00    +0.000 A 
ATOM      5  C   UNL     1     111.626 130.029 137.886  0.00  0.00    +0.000 A 
ATOM      6  C   UNL     1     112.079 129.200 138.959  0.00  0.00    +0.000 A 
ATOM      7  C   UNL     1     112.383 128.661 138.413  0.00  0.00    +0.000 A 
ATOM      8  C   UNL     1     113.017 127.538 137.295  0.00  0.00    +0.000 A 
ATOM      9  C   UNL     1     112.309 128.806 137.604  0.00  0.00    +0.000 A 
ATOM     10  C   UNL     1     112.622 128.252 137.027  0.00  0.00    +0.000 A 
ATOM     11  C   UNL     1     112.775 127.953 138.700  0.00  0.00    +0.000 A 
ATOM     12  C   UNL     1     113.095 127.387 138.137  0.00  0.00    +0.000 A 
ENDROOT
BRANCH   5  13
ATOM     13  C   UNL     1     111.247 130.713 137.622  0.00  0.00    +0.000 A 
ATOM     14  C   UNL     1     111.640 131.438 137.649  0.00  0.00    +0.000 A 
ATOM     15  C   UNL     1     110.477 130.672 137.331  0.00  0.00    +0.000 A 
ATOM     16  C   UNL     1     111.262 132.122 137.385  0.00  0.00    +0.000 A 
ATOM     17  C   UNL     1     110.098 131.356 137.066  0.00  0.00    +0.000 A 
ATOM     18  C   UNL     1     110.491 132.081 137.094  0.00  0.00    +0.000 A 
BRANCH  18  19
ATOM     19  O   UNL     1     110.113 132.765 136.830  0.00  0.00    +0.000 OA
ATOM     20  C   UNL     1     110.561 133.406 136.564  0.00  0.00    +0.000 C 
ENDBRANCH  18  19
ENDBRANCH   5  13
BRANCH   4  21
ATOM     21  O   UNL     1     111.396 130.423 139.240  0.00  0.00    +0.000 OA
BRANCH  21  28
ATOM     22  O   UNL     1     110.292 129.577 139.567  0.00  0.00    +0.000 OA
ATOM     23  O   UNL     1     111.254 131.174 140.702  0.00  0.00    +0.000 OA
ATOM     24  C   UNL     1     110.150 130.327 141.030  0.00  0.00    +0.000 C 
ATOM     25  C   UNL     1     109.634 129.716 140.828  0.00  0.00    +0.000 C 
ATOM     26  C   UNL     1     110.737 130.563 140.501  0.00  0.00    +0.000 C 
ATOM     27  C   UNL     1     109.705 129.341 140.097  0.00  0.00    +0.000 C 
ATOM     28  C   UNL     1     110.808 130.188 139.770  0.00  0.00    +0.000 C 
ATOM     29  C   UNL     1     109.189 128.730 139.895  0.00  0.00    +0.000 C 
BRANCH  24  30
ATOM     30  O   UNL     1     110.079 130.703 141.761  0.00  0.00    +0.000 OA
BRANCH  30  34
ATOM     31  O   UNL     1     110.993 129.771 142.343  0.00  0.00    +0.000 OA
ATOM     32  O   UNL     1     110.153 131.627 143.126  0.00  0.00    +0.000 OA
ATOM     33  O   UNL     1     111.981 129.764 144.289  0.00  0.00    +0.000 OA
ATOM     34  C   UNL     1     110.555 130.468 142.394  0.00  0.00    +0.000 C 
ATOM     35  C   UNL     1     110.592 130.930 143.076  0.00  0.00    +0.000 C 
ATOM     36  C   UNL     1     111.067 130.696 143.707  0.00  0.00    +0.000 C 
ATOM     37  C   UNL     1     111.505 129.999 143.657  0.00  0.00    +0.000 C 
ATOM     38  C   UNL     1     111.468 129.537 142.975  0.00  0.00    +0.000 C 
BRANCH  36  39
ATOM     39  O   UNL     1     111.103 131.158 144.390  0.00  0.00    +0.000 OA
BRANCH  39  41
ATOM     40  O   UNL     1     112.331 131.797 144.032  0.00  0.00    +0.000 OA
ATOM     41  C   UNL     1     111.600 131.816 144.417  0.00  0.00    +0.000 C 
ATOM     42  C   UNL     1     111.368 132.492 144.828  0.00  0.00    +0.000 C 
ENDBRANCH  39  41
ENDBRANCH  36  39
ENDBRANCH  30  34
ENDBRANCH  24  30
BRANCH  25  43
ATOM     43  O   UNL     1     109.047 129.481 141.357  0.00  0.00    +0.000 OA
BRANCH  43  45
ATOM     44  O   UNL     1     107.998 130.230 140.741  0.00  0.00    +0.000 OA
ATOM     45  C   UNL     1     108.252 129.562 141.155  0.00  0.00    +0.000 C 
ATOM     46  C   UNL     1     107.709 128.977 141.365  0.00  0.00    +0.000 C 
ENDBRANCH  43  45
ENDBRANCH  25  43
ENDBRANCH  21  28
ENDBRANCH   4  21
BRANCH   8  47
ATOM     47  O   UNL     1     113.321 127.000 136.748  0.00  0.00    +0.000 OA
BRANCH  47  56
ATOM     48  O   UNL     1     112.379 125.935 136.883  0.00  0.00    +0.000 OA
ATOM     49  O   UNL     1     114.238 124.302 136.957  0.00  0.00    +0.000 OA
ATOM     50  O   UNL     1     112.676 123.780 137.067  0.00  0.00    +0.000 OA
ATOM     51  O   UNL     1     114.559 125.912 136.797  0.00  0.00    +0.000 OA
ATOM     52  C   UNL     1     113.618 124.847 136.932  0.00  0.00    +0.000 C 
ATOM     53  C   UNL     1     112.837 124.585 136.987  0.00  0.00    +0.000 C 
ATOM     54  C   UNL     1     113.779 125.651 136.852  0.00  0.00    +0.000 C 
ATOM     55  C   UNL     1     112.217 125.129 136.963  0.00  0.00    +0.000 C 
ATOM     56  C   UNL     1     113.160 126.195 136.828  0.00  0.00    +0.000 C 
BRANCH  55  58
ATOM     57  O   UNL     1     110.862 125.178 136.514  0.00  0.00    +0.000 OA
ATOM     58  C   UNL     1     111.436 124.868 137.018  0.00  0.00    +0.000 C 
ENDBRANCH  55  58
ENDBRANCH  47  56
ENDBRANCH   8  47
BRANCH  10  59
ATOM     59  C   UNL     1     112.543 128.405 136.220  0.00  0.00    +0.000 C 
BRANCH  59  60
ATOM     60  C   UNL     1     113.146 128.793 135.812  0.00  0.00    +0.000 C 
ATOM     61  C   UNL     1     113.044 128.997 135.020  0.00  0.00    +0.000 C 
ATOM     62  C   UNL     1     113.647 129.385 134.612  0.00  0.00    +0.000 C 
ATOM     63  C   UNL     1     112.338 128.814 134.634  0.00  0.00    +0.000 C 
ENDBRANCH  59  60
ENDBRANCH  10  59
TORSDOF 15
ENDMDL
MODEL 5
REMARK VINA RESULT:      -9.4      2.600      4.880
REMARK  Name = 44259074
REMARK  15 active torsions:
REMARK  status: ('A' for Active; 'I' for Inactive)
REMARK    1  A    between atoms: O_1  and  C_22
REMARK    2  A    between atoms: O_1  and  C_27
REMARK    3  A    between atoms: O_4  and  C_23
REMARK    4  A    between atoms: O_4  and  C_39
REMARK    5  A    between atoms: O_5  and  C_26
REMARK    6  A    between atoms: O_5  and  C_38
REMARK    7  A    between atoms: O_7  and  C_29
REMARK    8  A    between atoms: O_7  and  C_47
REMARK    9  A    between atoms: O_11  and  C_37
REMARK   10  A    between atoms: O_11  and  C_44
REMARK   11  A    between atoms: O_21  and  C_60
REMARK   12  A    between atoms: C_36  and  C_40
REMARK   13  A    between atoms: C_41  and  C_51
REMARK   14  A    between atoms: C_46  and  C_52
REMARK   15  A    between atoms: C_52  and  C_56
REMARK                            x       y       z     vdW  Elec       q    Type
REMARK                         _______ _______ _______ _____ _____    ______ ____
ROOT
ATOM      1  O   UNL     1     111.845 130.210 138.638  0.00  0.00    +0.000 OA
ATOM      2  O   UNL     1     110.632 131.815 140.079  0.00  0.00    +0.000 OA
ATOM      3  O   UNL     1     109.969 132.387 138.934  0.00  0.00    +0.000 OA
ATOM      4  C   UNL     1     111.561 130.738 139.934  0.00  0.00    +0.000 A 
ATOM      5  C   UNL     1     111.965 130.204 139.454  0.00  0.00    +0.000 A 
ATOM      6  C   UNL     1     111.037 131.280 139.599  0.00  0.00    +0.000 A 
ATOM      7  C   UNL     1     110.917 131.287 138.783  0.00  0.00    +0.000 A 
ATOM      8  C   UNL     1     110.660 131.311 137.095  0.00  0.00    +0.000 A 
ATOM      9  C   UNL     1     111.321 130.752 138.302  0.00  0.00    +0.000 A 
ATOM     10  C   UNL     1     111.205 130.749 137.451  0.00  0.00    +0.000 A 
ATOM     11  C   UNL     1     110.369 131.855 138.446  0.00  0.00    +0.000 A 
ATOM     12  C   UNL     1     110.239 131.868 137.595  0.00  0.00    +0.000 A 
ENDROOT
BRANCH   5  13
ATOM     13  C   UNL     1     112.489 129.662 139.789  0.00  0.00    +0.000 A 
ATOM     14  C   UNL     1     112.270 128.870 139.867  0.00  0.00    +0.000 A 
ATOM     15  C   UNL     1     113.232 129.910 140.046  0.00  0.00    +0.000 A 
ATOM     16  C   UNL     1     112.793 128.328 140.202  0.00  0.00    +0.000 A 
ATOM     17  C   UNL     1     113.757 129.368 140.381  0.00  0.00    +0.000 A 
ATOM     18  C   UNL     1     113.537 128.577 140.459  0.00  0.00    +0.000 A 
BRANCH  18  19
ATOM     19  O   UNL     1     114.060 128.034 140.794  0.00  0.00    +0.000 OA
ATOM     20  C   UNL     1     113.975 127.228 140.636  0.00  0.00    +0.000 C 
ENDBRANCH  18  19
ENDBRANCH   5  13
BRANCH   4  21
ATOM     21  O   UNL     1     111.681 130.732 140.751  0.00  0.00    +0.000 OA
BRANCH  21  28
ATOM     22  O   UNL     1     110.428 130.120 141.063  0.00  0.00    +0.000 OA
ATOM     23  O   UNL     1     111.621 131.577 142.166  0.00  0.00    +0.000 OA
ATOM     24  C   UNL     1     110.368 130.965 142.479  0.00  0.00    +0.000 C 
ATOM     25  C   UNL     1     109.756 130.448 142.282  0.00  0.00    +0.000 C 
ATOM     26  C   UNL     1     111.009 131.060 141.969  0.00  0.00    +0.000 C 
ATOM     27  C   UNL     1     109.786 130.025 141.574  0.00  0.00    +0.000 C 
ATOM     28  C   UNL     1     111.039 130.637 141.261  0.00  0.00    +0.000 C 
ATOM     29  C   UNL     1     109.175 129.508 141.376  0.00  0.00    +0.000 C 
BRANCH  24  30
ATOM     30  O   UNL     1     110.338 131.388 143.187  0.00  0.00    +0.000 OA
BRANCH  30  34
ATOM     31  O   UNL     1     111.097 130.373 143.847  0.00  0.00    +0.000 OA
ATOM     32  O   UNL     1     110.567 132.396 144.473  0.00  0.00    +0.000 OA
ATOM     33  O   UNL     1     112.084 130.365 145.794  0.00  0.00    +0.000 OA
ATOM     34  C   UNL     1     110.775 131.132 143.839  0.00  0.00    +0.000 C 
ATOM     35  C   UNL     1     110.890 131.636 144.482  0.00  0.00    +0.000 C 
ATOM     36  C   UNL     1     111.326 131.380 145.134  0.00  0.00    +0.000 C 
ATOM     37  C   UNL     1     111.648 130.622 145.142  0.00  0.00    +0.000 C 
ATOM     38  C   UNL     1     111.533 130.118 144.499  0.00  0.00    +0.000 C 
BRANCH  36  39
ATOM     39  O   UNL     1     111.440 131.884 145.777  0.00  0.00    +0.000 OA
BRANCH  39  41
ATOM     40  O   UNL     1     112.473 132.714 145.242  0.00  0.00    +0.000 OA
ATOM     41  C   UNL     1     112.158 132.279 145.869  0.00  0.00    +0.000 C 
ATOM     42  C   UNL     1     112.562 132.240 146.588  0.00  0.00    +0.000 C 
ENDBRANCH  39  41
ENDBRANCH  36  39
ENDBRANCH  30  34
ENDBRANCH  24  30
BRANCH  25  43
ATOM     43  O   UNL     1     109.115 130.353 142.792  0.00  0.00    +0.000 OA
BRANCH  43  45
ATOM     44  O   UNL     1     108.235 131.314 142.207  0.00  0.00    +0.000 OA
ATOM     45  C   UNL     1     108.359 130.573 142.549  0.00  0.00    +0.000 C 
ATOM     46  C   UNL     1     107.726 130.054 142.647  0.00  0.00    +0.000 C 
ENDBRANCH  43  45
ENDBRANCH  25  43
ENDBRANCH  21  28
ENDBRANCH   4  21
BRANCH   8  47
ATOM     47  O   UNL     1     110.543 131.315 136.279  0.00  0.00    +0.000 OA
BRANCH  47  56
ATOM     48  O   UNL     1     109.235 130.758 136.136  0.00  0.00    +0.000 OA
ATOM     49  O   UNL     1     108.569 132.684 134.730  0.00  0.00    +0.000 OA
ATOM     50  O   UNL     1     107.483 131.485 135.055  0.00  0.00    +0.000 OA
ATOM     51  O   UNL     1     110.099 132.598 135.342  0.00  0.00    +0.000 OA
ATOM     52  C   UNL     1     108.791 132.041 135.199  0.00  0.00    +0.000 C 
ATOM     53  C   UNL     1     108.248 131.442 135.361  0.00  0.00    +0.000 C 
ATOM     54  C   UNL     1     109.556 131.999 135.504  0.00  0.00    +0.000 C 
ATOM     55  C   UNL     1     108.469 130.800 135.830  0.00  0.00    +0.000 C 
ATOM     56  C   UNL     1     109.778 131.358 135.973  0.00  0.00    +0.000 C 
BRANCH  55  58
ATOM     57  O   UNL     1     108.170 129.414 135.995  0.00  0.00    +0.000 OA
ATOM     58  C   UNL     1     107.926 130.201 135.993  0.00  0.00    +0.000 C 
ENDBRANCH  55  58
ENDBRANCH  47  56
ENDBRANCH   8  47
BRANCH  10  59
ATOM     59  C   UNL     1     111.614 130.210 136.978  0.00  0.00    +0.000 C 
BRANCH  59  60
ATOM     60  C   UNL     1     112.340 130.420 136.647  0.00  0.00    +0.000 C 
ATOM     61  C   UNL     1     112.760 129.873 136.195  0.00  0.00    +0.000 C 
ATOM     62  C   UNL     1     113.486 130.082 135.864  0.00  0.00    +0.000 C 
ATOM     63  C   UNL     1     112.455 129.116 136.073  0.00  0.00    +0.000 C 
ENDBRANCH  59  60
ENDBRANCH  10  59
TORSDOF 15
ENDMDL
MODEL 6
REMARK VINA RESULT:      -9.4      2.374      7.947
REMARK  Name = 44259074
REMARK  15 active torsions:
REMARK  status: ('A' for Active; 'I' for Inactive)
REMARK    1  A    between atoms: O_1  and  C_22
REMARK    2  A    between atoms: O_1  and  C_27
REMARK    3  A    between atoms: O_4  and  C_23
REMARK    4  A    between atoms: O_4  and  C_39
REMARK    5  A    between atoms: O_5  and  C_26
REMARK    6  A    between atoms: O_5  and  C_38
REMARK    7  A    between atoms: O_7  and  C_29
REMARK    8  A    between atoms: O_7  and  C_47
REMARK    9  A    between atoms: O_11  and  C_37
REMARK   10  A    between atoms: O_11  and  C_44
REMARK   11  A    between atoms: O_21  and  C_60
REMARK   12  A    between atoms: C_36  and  C_40
REMARK   13  A    between atoms: C_41  and  C_51
REMARK   14  A    between atoms: C_46  and  C_52
REMARK   15  A    between atoms: C_52  and  C_56
REMARK                            x       y       z     vdW  Elec       q    Type
REMARK                         _______ _______ _______ _____ _____    ______ ____
ROOT
ATOM      1  O   UNL     1     111.746 129.557 143.051  0.00  0.00    +0.000 OA
ATOM      2  O   UNL     1     112.283 131.448 141.548  0.00  0.00    +0.000 OA
ATOM      3  O   UNL     1     112.134 132.389 142.631  0.00  0.00    +0.000 OA
ATOM      4  C   UNL     1     112.092 130.047 141.754  0.00  0.00    +0.000 A 
ATOM      5  C   UNL     1     111.913 129.417 142.255  0.00  0.00    +0.000 A 
ATOM      6  C   UNL     1     112.104 130.818 142.049  0.00  0.00    +0.000 A 
ATOM      7  C   UNL     1     111.938 130.958 142.845  0.00  0.00    +0.000 A 
ATOM      8  C   UNL     1     111.595 131.260 144.489  0.00  0.00    +0.000 A 
ATOM      9  C   UNL     1     111.759 130.327 143.346  0.00  0.00    +0.000 A 
ATOM     10  C   UNL     1     111.584 130.460 144.177  0.00  0.00    +0.000 A 
ATOM     11  C   UNL     1     111.954 131.764 143.140  0.00  0.00    +0.000 A 
ATOM     12  C   UNL     1     111.782 131.917 143.968  0.00  0.00    +0.000 A 
ENDROOT
BRANCH   5  13
ATOM     13  C   UNL     1     111.900 128.646 141.960  0.00  0.00    +0.000 A 
ATOM     14  C   UNL     1     112.608 128.264 141.776  0.00  0.00    +0.000 A 
ATOM     15  C   UNL     1     111.181 128.258 141.850  0.00  0.00    +0.000 A 
ATOM     16  C   UNL     1     112.596 127.494 141.482  0.00  0.00    +0.000 A 
ATOM     17  C   UNL     1     111.169 127.487 141.556  0.00  0.00    +0.000 A 
ATOM     18  C   UNL     1     111.876 127.105 141.372  0.00  0.00    +0.000 A 
BRANCH  18  19
ATOM     19  O   UNL     1     111.865 126.334 141.077  0.00  0.00    +0.000 OA
ATOM     20  C   UNL     1     111.396 126.150 140.423  0.00  0.00    +0.000 C 
ENDBRANCH  18  19
ENDBRANCH   5  13
BRANCH   4  21
ATOM     21  O   UNL     1     112.258 129.907 140.958  0.00  0.00    +0.000 OA
BRANCH  21  28
ATOM     22  O   UNL     1     110.974 130.343 140.507  0.00  0.00    +0.000 OA
ATOM     23  O   UNL     1     112.920 130.368 139.519  0.00  0.00    +0.000 OA
ATOM     24  C   UNL     1     111.636 130.803 139.068  0.00  0.00    +0.000 C 
ATOM     25  C   UNL     1     110.829 130.906 139.201  0.00  0.00    +0.000 C 
ATOM     26  C   UNL     1     112.113 130.471 139.653  0.00  0.00    +0.000 C 
ATOM     27  C   UNL     1     110.497 130.676 139.921  0.00  0.00    +0.000 C 
ATOM     28  C   UNL     1     111.781 130.241 140.372  0.00  0.00    +0.000 C 
ATOM     29  C   UNL     1     109.690 130.778 140.055  0.00  0.00    +0.000 C 
BRANCH  24  30
ATOM     30  O   UNL     1     111.968 131.034 138.348  0.00  0.00    +0.000 OA
BRANCH  30  34
ATOM     31  O   UNL     1     111.778 129.722 137.814  0.00  0.00    +0.000 OA
ATOM     32  O   UNL     1     112.969 131.402 137.089  0.00  0.00    +0.000 OA
ATOM     33  O   UNL     1     112.589 128.778 136.020  0.00  0.00    +0.000 OA
ATOM     34  C   UNL     1     112.123 130.470 137.765  0.00  0.00    +0.000 C 
ATOM     35  C   UNL     1     112.624 130.654 137.136  0.00  0.00    +0.000 C 
ATOM     36  C   UNL     1     112.779 130.090 136.555  0.00  0.00    +0.000 C 
ATOM     37  C   UNL     1     112.434 129.343 136.602  0.00  0.00    +0.000 C 
ATOM     38  C   UNL     1     111.933 129.159 137.231  0.00  0.00    +0.000 C 
BRANCH  36  39
ATOM     39  O   UNL     1     113.279 130.274 135.925  0.00  0.00    +0.000 OA
BRANCH  39  41
ATOM     40  O   UNL     1     114.411 129.449 136.208  0.00  0.00    +0.000 OA
ATOM     41  C   UNL     1     114.095 130.184 136.007  0.00  0.00    +0.000 C 
ATOM     42  C   UNL     1     114.596 130.829 135.887  0.00  0.00    +0.000 C 
ENDBRANCH  39  41
ENDBRANCH  36  39
ENDBRANCH  30  34
ENDBRANCH  24  30
BRANCH  25  43
ATOM     43  O   UNL     1     110.352 131.239 138.616  0.00  0.00    +0.000 OA
BRANCH  43  45
ATOM     44  O   UNL     1     110.378 132.560 139.157  0.00  0.00    +0.000 OA
ATOM     45  C   UNL     1     109.982 131.963 138.748  0.00  0.00    +0.000 C 
ATOM     46  C   UNL     1     109.215 132.092 138.471  0.00  0.00    +0.000 C 
ENDBRANCH  43  45
ENDBRANCH  25  43
ENDBRANCH  21  28
ENDBRANCH   4  21
BRANCH   8  47
ATOM     47  O   UNL     1     111.429 131.397 145.286  0.00  0.00    +0.000 OA
BRANCH  47  56
ATOM     48  O   UNL     1     110.149 132.022 145.181  0.00  0.00    +0.000 OA
ATOM     49  O   UNL     1     110.871 133.767 146.782  0.00  0.00    +0.000 OA
ATOM     50  O   UNL     1     109.350 133.811 146.144  0.00  0.00    +0.000 OA
ATOM     51  O   UNL     1     111.910 132.559 146.353  0.00  0.00    +0.000 OA
ATOM     52  C   UNL     1     110.630 133.185 146.248  0.00  0.00    +0.000 C 
ATOM     53  C   UNL     1     109.870 133.207 145.929  0.00  0.00    +0.000 C 
ATOM     54  C   UNL     1     111.149 132.582 146.034  0.00  0.00    +0.000 C 
ATOM     55  C   UNL     1     109.628 132.626 145.395  0.00  0.00    +0.000 C 
ATOM     56  C   UNL     1     110.909 132.000 145.500  0.00  0.00    +0.000 C 
BRANCH  55  58
ATOM     57  O   UNL     1     108.523 131.959 144.786  0.00  0.00    +0.000 OA
ATOM     58  C   UNL     1     108.868 132.649 145.076  0.00  0.00    +0.000 C 
ENDBRANCH  55  58
ENDBRANCH  47  56
ENDBRANCH   8  47
BRANCH  10  59
ATOM     59  C   UNL     1     111.406 129.823 144.670  0.00  0.00    +0.000 C 
BRANCH  59  60
ATOM     60  C   UNL     1     111.995 129.490 145.142  0.00  0.00    +0.000 C 
ATOM     61  C   UNL     1     111.826 128.831 145.609  0.00  0.00    +0.000 C 
ATOM     62  C   UNL     1     112.415 128.497 146.081  0.00  0.00    +0.000 C 
ATOM     63  C   UNL     1     111.068 128.504 145.604  0.00  0.00    +0.000 C 
ENDBRANCH  59  60
ENDBRANCH  10  59
TORSDOF 15
ENDMDL
MODEL 7
REMARK VINA RESULT:      -9.3      7.477     10.008
REMARK  Name = 44259074
REMARK  15 active torsions:
REMARK  status: ('A' for Active; 'I' for Inactive)
REMARK    1  A    between atoms: O_1  and  C_22
REMARK    2  A    between atoms: O_1  and  C_27
REMARK    3  A    between atoms: O_4  and  C_23
REMARK    4  A    between atoms: O_4  and  C_39
REMARK    5  A    between atoms: O_5  and  C_26
REMARK    6  A    between atoms: O_5  and  C_38
REMARK    7  A    between atoms: O_7  and  C_29
REMARK    8  A    between atoms: O_7  and  C_47
REMARK    9  A    between atoms: O_11  and  C_37
REMARK   10  A    between atoms: O_11  and  C_44
REMARK   11  A    between atoms: O_21  and  C_60
REMARK   12  A    between atoms: C_36  and  C_40
REMARK   13  A    between atoms: C_41  and  C_51
REMARK   14  A    between atoms: C_46  and  C_52
REMARK   15  A    between atoms: C_52  and  C_56
REMARK                            x       y       z     vdW  Elec       q    Type
REMARK                         _______ _______ _______ _____ _____    ______ ____
ROOT
ATOM      1  O   UNL     1     106.269 127.164 144.049  0.00  0.00    +0.000 OA
ATOM      2  O   UNL     1     105.033 125.316 145.136  0.00  0.00    +0.000 OA
ATOM      3  O   UNL     1     105.245 124.463 143.993  0.00  0.00    +0.000 OA
ATOM      4  C   UNL     1     105.539 126.652 145.165  0.00  0.00    +0.000 A 
ATOM      5  C   UNL     1     105.951 127.268 144.804  0.00  0.00    +0.000 A 
ATOM      6  C   UNL     1     105.445 125.932 144.774  0.00  0.00    +0.000 A 
ATOM      7  C   UNL     1     105.763 125.828 144.020  0.00  0.00    +0.000 A 
ATOM      8  C   UNL     1     106.416 125.601 142.459  0.00  0.00    +0.000 A 
ATOM      9  C   UNL     1     106.175 126.444 143.657  0.00  0.00    +0.000 A 
ATOM     10  C   UNL     1     106.511 126.348 142.872  0.00  0.00    +0.000 A 
ATOM     11  C   UNL     1     105.658 125.074 143.623  0.00  0.00    +0.000 A 
ATOM     12  C   UNL     1     105.987 124.959 142.836  0.00  0.00    +0.000 A 
ENDROOT
BRANCH   5  13
ATOM     13  C   UNL     1     106.045 127.988 145.195  0.00  0.00    +0.000 A 
ATOM     14  C   UNL     1     105.421 128.527 145.222  0.00  0.00    +0.000 A 
ATOM     15  C   UNL     1     106.763 128.170 145.558  0.00  0.00    +0.000 A 
ATOM     16  C   UNL     1     105.514 129.247 145.613  0.00  0.00    +0.000 A 
ATOM     17  C   UNL     1     106.857 128.890 145.949  0.00  0.00    +0.000 A 
ATOM     18  C   UNL     1     106.233 129.429 145.977  0.00  0.00    +0.000 A 
BRANCH  18  19
ATOM     19  O   UNL     1     106.326 130.149 146.368  0.00  0.00    +0.000 OA
ATOM     20  C   UNL     1     105.711 130.450 146.829  0.00  0.00    +0.000 C 
ENDBRANCH  18  19
ENDBRANCH   5  13
BRANCH   4  21
ATOM     21  O   UNL     1     105.221 126.756 145.920  0.00  0.00    +0.000 OA
BRANCH  21  28
ATOM     22  O   UNL     1     106.201 125.922 146.541  0.00  0.00    +0.000 OA
ATOM     23  O   UNL     1     104.160 126.417 147.137  0.00  0.00    +0.000 OA
ATOM     24  C   UNL     1     105.140 125.583 147.759  0.00  0.00    +0.000 C 
ATOM     25  C   UNL     1     105.895 125.251 147.766  0.00  0.00    +0.000 C 
ATOM     26  C   UNL     1     104.915 126.085 147.144  0.00  0.00    +0.000 C 
ATOM     27  C   UNL     1     106.426 125.420 147.157  0.00  0.00    +0.000 C 
ATOM     28  C   UNL     1     105.446 126.254 146.535  0.00  0.00    +0.000 C 
ATOM     29  C   UNL     1     107.181 125.088 147.163  0.00  0.00    +0.000 C 
BRANCH  24  30
ATOM     30  O   UNL     1     104.610 125.414 148.368  0.00  0.00    +0.000 OA
BRANCH  30  34
ATOM     31  O   UNL     1     104.036 124.351 147.604  0.00  0.00    +0.000 OA
ATOM     32  O   UNL     1     103.332 125.355 149.410  0.00  0.00    +0.000 OA
ATOM     33  O   UNL     1     102.184 123.230 147.883  0.00  0.00    +0.000 OA
ATOM     34  C   UNL     1     104.003 124.868 148.247  0.00  0.00    +0.000 C 
ATOM     35  C   UNL     1     103.364 124.838 148.768  0.00  0.00    +0.000 C 
ATOM     36  C   UNL     1     102.758 124.293 148.647  0.00  0.00    +0.000 C 
ATOM     37  C   UNL     1     102.790 123.776 148.005  0.00  0.00    +0.000 C 
ATOM     38  C   UNL     1     103.429 123.806 147.484  0.00  0.00    +0.000 C 
BRANCH  36  39
ATOM     39  O   UNL     1     102.119 124.263 149.168  0.00  0.00    +0.000 OA
BRANCH  39  41
ATOM     40  O   UNL     1     101.374 125.414 148.764  0.00  0.00    +0.000 OA
ATOM     41  C   UNL     1     101.401 124.612 148.961  0.00  0.00    +0.000 C 
ATOM     42  C   UNL     1     100.710 124.161 148.951  0.00  0.00    +0.000 C 
ENDBRANCH  39  41
ENDBRANCH  36  39
ENDBRANCH  30  34
ENDBRANCH  24  30
BRANCH  25  43
ATOM     43  O   UNL     1     106.120 124.749 148.380  0.00  0.00    +0.000 OA
BRANCH  43  45
ATOM     44  O   UNL     1     106.692 125.708 149.272  0.00  0.00    +0.000 OA
ATOM     45  C   UNL     1     106.722 124.974 148.896  0.00  0.00    +0.000 C 
ATOM     46  C   UNL     1     107.356 124.465 149.038  0.00  0.00    +0.000 C 
ENDBRANCH  43  45
ENDBRANCH  25  43
ENDBRANCH  21  28
ENDBRANCH   4  21
BRANCH   8  47
ATOM     47  O   UNL     1     106.736 125.499 141.705  0.00  0.00    +0.000 OA
BRANCH  47  56
ATOM     48  O   UNL     1     105.648 125.311 140.799  0.00  0.00    +0.000 OA
ATOM     49  O   UNL     1     106.545 123.086 140.186  0.00  0.00    +0.000 OA
ATOM     50  O   UNL     1     105.159 123.639 139.483  0.00  0.00    +0.000 OA
ATOM     51  O   UNL     1     107.333 124.017 141.297  0.00  0.00    +0.000 OA
ATOM     52  C   UNL     1     106.246 123.828 140.391  0.00  0.00    +0.000 C 
ATOM     53  C   UNL     1     105.553 124.104 140.039  0.00  0.00    +0.000 C 
ATOM     54  C   UNL     1     106.640 124.293 140.946  0.00  0.00    +0.000 C 
ATOM     55  C   UNL     1     105.253 124.846 140.243  0.00  0.00    +0.000 C 
ATOM     56  C   UNL     1     106.341 125.034 141.150  0.00  0.00    +0.000 C 
BRANCH  55  58
ATOM     57  O   UNL     1     104.537 125.879 139.565  0.00  0.00    +0.000 OA
ATOM     58  C   UNL     1     104.560 125.122 139.891  0.00  0.00    +0.000 C 
ENDBRANCH  55  58
ENDBRANCH  47  56
ENDBRANCH   8  47
BRANCH  10  59
ATOM     59  C   UNL     1     106.922 126.969 142.518  0.00  0.00    +0.000 C 
BRANCH  59  60
ATOM     60  C   UNL     1     107.746 126.959 142.493  0.00  0.00    +0.000 C 
ATOM     61  C   UNL     1     108.158 127.596 142.171  0.00  0.00    +0.000 C 
ATOM     62  C   UNL     1     108.982 127.585 142.146  0.00  0.00    +0.000 C 
ATOM     63  C   UNL     1     107.746 128.246 141.873  0.00  0.00    +0.000 C 
ENDBRANCH  59  60
ENDBRANCH  10  59
TORSDOF 15
ENDMDL
MODEL 8
REMARK VINA RESULT:      -9.3      3.290      6.934
REMARK  Name = 44259074
REMARK  15 active torsions:
REMARK  status: ('A' for Active; 'I' for Inactive)
REMARK    1  A    between atoms: O_1  and  C_22
REMARK    2  A    between atoms: O_1  and  C_27
REMARK    3  A    between atoms: O_4  and  C_23
REMARK    4  A    between atoms: O_4  and  C_39
REMARK    5  A    between atoms: O_5  and  C_26
REMARK    6  A    between atoms: O_5  and  C_38
REMARK    7  A    between atoms: O_7  and  C_29
REMARK    8  A    between atoms: O_7  and  C_47
REMARK    9  A    between atoms: O_11  and  C_37
REMARK   10  A    between atoms: O_11  and  C_44
REMARK   11  A    between atoms: O_21  and  C_60
REMARK   12  A    between atoms: C_36  and  C_40
REMARK   13  A    between atoms: C_41  and  C_51
REMARK   14  A    between atoms: C_46  and  C_52
REMARK   15  A    between atoms: C_52  and  C_56
REMARK                            x       y       z     vdW  Elec       q    Type
REMARK                         _______ _______ _______ _____ _____    ______ ____
ROOT
ATOM      1  O   UNL     1     109.428 128.696 140.287  0.00  0.00    +0.000 OA
ATOM      2  O   UNL     1     110.295 126.487 139.585  0.00  0.00    +0.000 OA
ATOM      3  O   UNL     1     109.443 125.817 140.536  0.00  0.00    +0.000 OA
ATOM      4  C   UNL     1     110.289 127.911 139.461  0.00  0.00    +0.000 A 
ATOM      5  C   UNL     1     110.000 128.647 139.695  0.00  0.00    +0.000 A 
ATOM      6  C   UNL     1     110.006 127.223 139.819  0.00  0.00    +0.000 A 
ATOM      7  C   UNL     1     109.434 127.272 140.411  0.00  0.00    +0.000 A 
ATOM      8  C   UNL     1     108.251 127.360 141.639  0.00  0.00    +0.000 A 
ATOM      9  C   UNL     1     109.145 128.009 140.646  0.00  0.00    +0.000 A 
ATOM     10  C   UNL     1     108.549 128.073 141.262  0.00  0.00    +0.000 A 
ATOM     11  C   UNL     1     109.148 126.550 140.777  0.00  0.00    +0.000 A 
ATOM     12  C   UNL     1     108.552 126.594 141.395  0.00  0.00    +0.000 A 
ENDROOT
BRANCH   5  13
ATOM     13  C   UNL     1     110.282 129.335 139.337  0.00  0.00    +0.000 A 
ATOM     14  C   UNL     1     111.035 129.616 139.521  0.00  0.00    +0.000 A 
ATOM     15  C   UNL     1     109.812 129.741 138.795  0.00  0.00    +0.000 A 
ATOM     16  C   UNL     1     111.319 130.303 139.164  0.00  0.00    +0.000 A 
ATOM     17  C   UNL     1     110.094 130.429 138.437  0.00  0.00    +0.000 A 
ATOM     18  C   UNL     1     110.847 130.710 138.622  0.00  0.00    +0.000 A 
BRANCH  18  19
ATOM     19  O   UNL     1     111.131 131.397 138.265  0.00  0.00    +0.000 OA
ATOM     20  C   UNL     1     111.653 131.346 137.627  0.00  0.00    +0.000 C 
ENDBRANCH  18  19
ENDBRANCH   5  13
BRANCH   4  21
ATOM     21  O   UNL     1     110.860 127.862 138.868  0.00  0.00    +0.000 OA
BRANCH  21  28
ATOM     22  O   UNL     1     109.907 127.406 137.906  0.00  0.00    +0.000 OA
ATOM     23  O   UNL     1     112.082 127.220 137.963  0.00  0.00    +0.000 OA
ATOM     24  C   UNL     1     111.129 126.764 137.001  0.00  0.00    +0.000 C 
ATOM     25  C   UNL     1     110.347 126.697 136.745  0.00  0.00    +0.000 C 
ATOM     26  C   UNL     1     111.300 127.152 137.708  0.00  0.00    +0.000 C 
ATOM     27  C   UNL     1     109.736 127.018 137.198  0.00  0.00    +0.000 C 
ATOM     28  C   UNL     1     110.689 127.473 138.160  0.00  0.00    +0.000 C 
ATOM     29  C   UNL     1     108.955 126.951 136.943  0.00  0.00    +0.000 C 
BRANCH  24  30
ATOM     30  O   UNL     1     111.739 126.443 136.548  0.00  0.00    +0.000 OA
BRANCH  30  34
ATOM     31  O   UNL     1     111.589 125.171 137.180  0.00  0.00    +0.000 OA
ATOM     32  O   UNL     1     113.233 125.999 136.008  0.00  0.00    +0.000 OA
ATOM     33  O   UNL     1     112.933 123.453 137.272  0.00  0.00    +0.000 OA
ATOM     34  C   UNL     1     112.038 125.695 136.729  0.00  0.00    +0.000 C 
ATOM     35  C   UNL     1     112.785 125.473 136.459  0.00  0.00    +0.000 C 
ATOM     36  C   UNL     1     113.083 124.726 136.640  0.00  0.00    +0.000 C 
ATOM     37  C   UNL     1     112.635 124.201 137.090  0.00  0.00    +0.000 C 
ATOM     38  C   UNL     1     111.888 124.423 137.361  0.00  0.00    +0.000 C 
BRANCH  36  39
ATOM     39  O   UNL     1     113.830 124.504 136.370  0.00  0.00    +0.000 OA
BRANCH  39  41
ATOM     40  O   UNL     1     114.616 124.624 137.557  0.00  0.00    +0.000 OA
ATOM     41  C   UNL     1     114.507 124.778 136.754  0.00  0.00    +0.000 C 
ATOM     42  C   UNL     1     115.074 125.206 136.335  0.00  0.00    +0.000 C 
ENDBRANCH  39  41
ENDBRANCH  36  39
ENDBRANCH  30  34
ENDBRANCH  24  30
BRANCH  25  43
ATOM     43  O   UNL     1     110.176 126.309 136.038  0.00  0.00    +0.000 OA
BRANCH  43  45
ATOM     44  O   UNL     1     110.154 127.455 135.186  0.00  0.00    +0.000 OA
ATOM     45  C   UNL     1     109.841 126.725 135.410  0.00  0.00    +0.000 C 
ATOM     46  C   UNL     1     109.194 126.411 135.005  0.00  0.00    +0.000 C 
ENDBRANCH  43  45
ENDBRANCH  25  43
ENDBRANCH  21  28
ENDBRANCH   4  21
BRANCH   8  47
ATOM     47  O   UNL     1     107.679 127.412 142.231  0.00  0.00    +0.000 OA
BRANCH  47  56
ATOM     48  O   UNL     1     106.626 126.657 141.631  0.00  0.00    +0.000 OA
ATOM     49  O   UNL     1     106.257 125.470 143.771  0.00  0.00    +0.000 OA
ATOM     50  O   UNL     1     105.327 125.110 142.457  0.00  0.00    +0.000 OA
ATOM     51  O   UNL     1     107.434 126.621 143.657  0.00  0.00    +0.000 OA
ATOM     52  C   UNL     1     106.380 125.866 143.057  0.00  0.00    +0.000 C 
ATOM     53  C   UNL     1     105.915 125.685 142.400  0.00  0.00    +0.000 C 
ATOM     54  C   UNL     1     106.968 126.441 143.001  0.00  0.00    +0.000 C 
ATOM     55  C   UNL     1     106.037 126.081 141.687  0.00  0.00    +0.000 C 
ATOM     56  C   UNL     1     107.091 126.836 142.288  0.00  0.00    +0.000 C 
BRANCH  55  58
ATOM     57  O   UNL     1     105.179 126.503 140.626  0.00  0.00    +0.000 OA
ATOM     58  C   UNL     1     105.571 125.901 141.030  0.00  0.00    +0.000 C 
ENDBRANCH  55  58
ENDBRANCH  47  56
ENDBRANCH   8  47
BRANCH  10  59
ATOM     59  C   UNL     1     108.266 128.813 141.490  0.00  0.00    +0.000 C 
BRANCH  59  60
ATOM     60  C   UNL     1     108.608 129.207 142.129  0.00  0.00    +0.000 C 
ATOM     61  C   UNL     1     108.341 129.958 142.341  0.00  0.00    +0.000 C 
ATOM     62  C   UNL     1     108.683 130.353 142.980  0.00  0.00    +0.000 C 
ATOM     63  C   UNL     1     107.733 130.316 141.914  0.00  0.00    +0.000 C 
ENDBRANCH  59  60
ENDBRANCH  10  59
TORSDOF 15
ENDMDL
MODEL 9
REMARK VINA RESULT:      -9.2      2.696      3.288
REMARK  Name = 44259074
REMARK  15 active torsions:
REMARK  status: ('A' for Active; 'I' for Inactive)
REMARK    1  A    between atoms: O_1  and  C_22
REMARK    2  A    between atoms: O_1  and  C_27
REMARK    3  A    between atoms: O_4  and  C_23
REMARK    4  A    between atoms: O_4  and  C_39
REMARK    5  A    between atoms: O_5  and  C_26
REMARK    6  A    between atoms: O_5  and  C_38
REMARK    7  A    between atoms: O_7  and  C_29
REMARK    8  A    between atoms: O_7  and  C_47
REMARK    9  A    between atoms: O_11  and  C_37
REMARK   10  A    between atoms: O_11  and  C_44
REMARK   11  A    between atoms: O_21  and  C_60
REMARK   12  A    between atoms: C_36  and  C_40
REMARK   13  A    between atoms: C_41  and  C_51
REMARK   14  A    between atoms: C_46  and  C_52
REMARK   15  A    between atoms: C_52  and  C_56
REMARK                            x       y       z     vdW  Elec       q    Type
REMARK                         _______ _______ _______ _____ _____    ______ ____
ROOT
ATOM      1  O   UNL     1     110.429 128.734 137.822  0.00  0.00    +0.000 OA
ATOM      2  O   UNL     1     109.263 127.371 139.527  0.00  0.00    +0.000 OA
ATOM      3  O   UNL     1     109.653 126.153 138.862  0.00  0.00    +0.000 OA
ATOM      4  C   UNL     1     109.646 128.649 139.013  0.00  0.00    +0.000 A 
ATOM      5  C   UNL     1     110.034 129.103 138.445  0.00  0.00    +0.000 A 
ATOM      6  C   UNL     1     109.651 127.825 138.959  0.00  0.00    +0.000 A 
ATOM      7  C   UNL     1     110.046 127.456 138.335  0.00  0.00    +0.000 A 
ATOM      8  C   UNL     1     110.858 126.681 137.049  0.00  0.00    +0.000 A 
ATOM      9  C   UNL     1     110.435 127.911 137.766  0.00  0.00    +0.000 A 
ATOM     10  C   UNL     1     110.849 127.538 137.112  0.00  0.00    +0.000 A 
ATOM     11  C   UNL     1     110.044 126.599 138.289  0.00  0.00    +0.000 A 
ATOM     12  C   UNL     1     110.453 126.208 137.641  0.00  0.00    +0.000 A 
ENDROOT
BRANCH   5  13
ATOM     13  C   UNL     1     110.029 129.926 138.500  0.00  0.00    +0.000 A 
ATOM     14  C   UNL     1     109.342 130.346 138.322  0.00  0.00    +0.000 A 
ATOM     15  C   UNL     1     110.710 130.329 138.732  0.00  0.00    +0.000 A 
ATOM     16  C   UNL     1     109.335 131.169 138.376  0.00  0.00    +0.000 A 
ATOM     17  C   UNL     1     110.705 131.152 138.786  0.00  0.00    +0.000 A 
ATOM     18  C   UNL     1     110.017 131.572 138.608  0.00  0.00    +0.000 A 
BRANCH  18  19
ATOM     19  O   UNL     1     110.011 132.396 138.662  0.00  0.00    +0.000 OA
ATOM     20  C   UNL     1     110.177 132.854 137.996  0.00  0.00    +0.000 C 
ENDBRANCH  18  19
ENDBRANCH   5  13
BRANCH   4  21
ATOM     21  O   UNL     1     109.252 129.018 139.637  0.00  0.00    +0.000 OA
BRANCH  21  28
ATOM     22  O   UNL     1     110.279 128.718 140.584  0.00  0.00    +0.000 OA
ATOM     23  O   UNL     1     108.139 129.053 140.855  0.00  0.00    +0.000 OA
ATOM     24  C   UNL     1     109.167 128.753 141.802  0.00  0.00    +0.000 C 
ATOM     25  C   UNL     1     109.958 128.595 141.972  0.00  0.00    +0.000 C 
ATOM     26  C   UNL     1     108.931 128.894 141.025  0.00  0.00    +0.000 C 
ATOM     27  C   UNL     1     110.515 128.577 141.363  0.00  0.00    +0.000 C 
ATOM     28  C   UNL     1     109.487 128.877 140.416  0.00  0.00    +0.000 C 
ATOM     29  C   UNL     1     111.306 128.419 141.531  0.00  0.00    +0.000 C 
BRANCH  24  30
ATOM     30  O   UNL     1     108.610 128.771 142.411  0.00  0.00    +0.000 OA
BRANCH  30  34
ATOM     31  O   UNL     1     108.305 127.392 142.194  0.00  0.00    +0.000 OA
ATOM     32  O   UNL     1     107.293 128.907 143.395  0.00  0.00    +0.000 OA
ATOM     33  O   UNL     1     106.683 126.149 142.961  0.00  0.00    +0.000 OA
ATOM     34  C   UNL     1     108.128 128.115 142.549  0.00  0.00    +0.000 C 
ATOM     35  C   UNL     1     107.469 128.183 143.041  0.00  0.00    +0.000 C 
ATOM     36  C   UNL     1     106.988 127.528 143.178  0.00  0.00    +0.000 C 
ATOM     37  C   UNL     1     107.164 126.805 142.824  0.00  0.00    +0.000 C 
ATOM     38  C   UNL     1     107.823 126.737 142.332  0.00  0.00    +0.000 C 
BRANCH  36  39
ATOM     39  O   UNL     1     106.329 127.596 143.670  0.00  0.00    +0.000 OA
BRANCH  39  41
ATOM     40  O   UNL     1     105.350 127.624 142.630  0.00  0.00    +0.000 OA
ATOM     41  C   UNL     1     105.616 127.880 143.368  0.00  0.00    +0.000 C 
ATOM     42  C   UNL     1     105.168 128.418 143.804  0.00  0.00    +0.000 C 
ENDBRANCH  39  41
ENDBRANCH  36  39
ENDBRANCH  30  34
ENDBRANCH  24  30
BRANCH  25  43
ATOM     43  O   UNL     1     110.194 128.454 142.749  0.00  0.00    +0.000 OA
BRANCH  43  45
ATOM     44  O   UNL     1     110.540 129.767 143.192  0.00  0.00    +0.000 OA
ATOM     45  C   UNL     1     110.723 128.966 143.119  0.00  0.00    +0.000 C 
ATOM     46  C   UNL     1     111.437 128.678 143.416  0.00  0.00    +0.000 C 
ENDBRANCH  43  45
ENDBRANCH  25  43
ENDBRANCH  21  28
ENDBRANCH   4  21
BRANCH   8  47
ATOM     47  O   UNL     1     111.253 126.315 136.425  0.00  0.00    +0.000 OA
BRANCH  47  56
ATOM     48  O   UNL     1     112.391 125.728 137.059  0.00  0.00    +0.000 OA
ATOM     49  O   UNL     1     111.849 123.550 136.015  0.00  0.00    +0.000 OA
ATOM     50  O   UNL     1     113.167 123.689 136.997  0.00  0.00    +0.000 OA
ATOM     51  O   UNL     1     110.892 124.863 135.729  0.00  0.00    +0.000 OA
ATOM     52  C   UNL     1     112.030 124.277 136.364  0.00  0.00    +0.000 C 
ATOM     53  C   UNL     1     112.689 124.346 136.854  0.00  0.00    +0.000 C 
ATOM     54  C   UNL     1     111.551 124.932 136.220  0.00  0.00    +0.000 C 
ATOM     55  C   UNL     1     112.870 125.072 137.202  0.00  0.00    +0.000 C 
ATOM     56  C   UNL     1     111.731 125.658 136.568  0.00  0.00    +0.000 C 
BRANCH  55  58
ATOM     57  O   UNL     1     113.985 125.828 137.676  0.00  0.00    +0.000 OA
ATOM     58  C   UNL     1     113.529 125.141 137.693  0.00  0.00    +0.000 C 
ENDBRANCH  55  58
ENDBRANCH  47  56
ENDBRANCH   8  47
BRANCH  10  59
ATOM     59  C   UNL     1     111.234 128.000 136.548  0.00  0.00    +0.000 C 
BRANCH  59  60
ATOM     60  C   UNL     1     110.843 128.220 135.856  0.00  0.00    +0.000 C 
ATOM     61  C   UNL     1     111.219 128.704 135.304  0.00  0.00    +0.000 C 
ATOM     62  C   UNL     1     110.827 128.923 134.612  0.00  0.00    +0.000 C 
ATOM     63  C   UNL     1     111.988 128.968 135.444  0.00  0.00    +0.000 C 
ENDBRANCH  59  60
ENDBRANCH  10  59
TORSDOF 15
ENDMDL
MODEL 10
REMARK VINA RESULT:      -9.2      5.164      7.559
REMARK  Name = 44259074
REMARK  15 active torsions:
REMARK  status: ('A' for Active; 'I' for Inactive)
REMARK    1  A    between atoms: O_1  and  C_22
REMARK    2  A    between atoms: O_1  and  C_27
REMARK    3  A    between atoms: O_4  and  C_23
REMARK    4  A    between atoms: O_4  and  C_39
REMARK    5  A    between atoms: O_5  and  C_26
REMARK    6  A    between atoms: O_5  and  C_38
REMARK    7  A    between atoms: O_7  and  C_29
REMARK    8  A    between atoms: O_7  and  C_47
REMARK    9  A    between atoms: O_11  and  C_37
REMARK   10  A    between atoms: O_11  and  C_44
REMARK   11  A    between atoms: O_21  and  C_60
REMARK   12  A    between atoms: C_36  and  C_40
REMARK   13  A    between atoms: C_41  and  C_51
REMARK   14  A    between atoms: C_46  and  C_52
REMARK   15  A    between atoms: C_52  and  C_56
REMARK                            x       y       z     vdW  Elec       q    Type
REMARK                         _______ _______ _______ _____ _____    ______ ____
ROOT
ATOM      1  O   UNL     1     108.377 126.392 140.679  0.00  0.00    +0.000 OA
ATOM      2  O   UNL     1     108.190 127.400 142.931  0.00  0.00    +0.000 OA
ATOM      3  O   UNL     1     109.160 128.412 142.591  0.00  0.00    +0.000 OA
ATOM      4  C   UNL     1     107.802 126.401 141.987  0.00  0.00    +0.000 A 
ATOM      5  C   UNL     1     107.864 126.065 141.236  0.00  0.00    +0.000 A 
ATOM      6  C   UNL     1     108.253 127.064 142.181  0.00  0.00    +0.000 A 
ATOM      7  C   UNL     1     108.765 127.392 141.624  0.00  0.00    +0.000 A 
ATOM      8  C   UNL     1     109.829 128.079 140.479  0.00  0.00    +0.000 A 
ATOM      9  C   UNL     1     108.828 127.056 140.872  0.00  0.00    +0.000 A 
ATOM     10  C   UNL     1     109.358 127.388 140.283  0.00  0.00    +0.000 A 
ATOM     11  C   UNL     1     109.229 128.082 141.837  0.00  0.00    +0.000 A 
ATOM     12  C   UNL     1     109.765 128.429 141.261  0.00  0.00    +0.000 A 
ENDROOT
BRANCH   5  13
ATOM     13  C   UNL     1     107.414 125.401 141.042  0.00  0.00    +0.000 A 
ATOM     14  C   UNL     1     106.753 125.480 140.555  0.00  0.00    +0.000 A 
ATOM     15  C   UNL     1     107.624 124.659 141.334  0.00  0.00    +0.000 A 
ATOM     16  C   UNL     1     106.302 124.817 140.360  0.00  0.00    +0.000 A 
ATOM     17  C   UNL     1     107.174 123.996 141.140  0.00  0.00    +0.000 A 
ATOM     18  C   UNL     1     106.513 124.075 140.653  0.00  0.00    +0.000 A 
BRANCH  18  19
ATOM     19  O   UNL     1     106.062 123.412 140.458  0.00  0.00    +0.000 OA
ATOM     20  C   UNL     1     105.285 123.347 140.730  0.00  0.00    +0.000 C 
ENDBRANCH  18  19
ENDBRANCH   5  13
BRANCH   4  21
ATOM     21  O   UNL     1     107.290 126.073 142.544  0.00  0.00    +0.000 OA
BRANCH  21  28
ATOM     22  O   UNL     1     106.238 127.034 142.428  0.00  0.00    +0.000 OA
ATOM     23  O   UNL     1     107.065 126.024 144.178  0.00  0.00    +0.000 OA
ATOM     24  C   UNL     1     106.014 126.985 144.062  0.00  0.00    +0.000 C 
ATOM     25  C   UNL     1     105.543 127.478 143.596  0.00  0.00    +0.000 C 
ATOM     26  C   UNL     1     106.595 126.517 143.712  0.00  0.00    +0.000 C 
ATOM     27  C   UNL     1     105.656 127.502 142.779  0.00  0.00    +0.000 C 
ATOM     28  C   UNL     1     106.707 126.542 142.895  0.00  0.00    +0.000 C 
ATOM     29  C   UNL     1     105.186 127.994 142.312  0.00  0.00    +0.000 C 
BRANCH  24  30
ATOM     30  O   UNL     1     105.901 126.961 144.879  0.00  0.00    +0.000 OA
BRANCH  30  34
ATOM     31  O   UNL     1     105.134 125.761 144.755  0.00  0.00    +0.000 OA
ATOM     32  O   UNL     1     105.970 126.748 146.514  0.00  0.00    +0.000 OA
ATOM     33  O   UNL     1     104.436 124.349 146.266  0.00  0.00    +0.000 OA
ATOM     34  C   UNL     1     105.535 126.307 145.226  0.00  0.00    +0.000 C 
ATOM     35  C   UNL     1     105.569 126.201 146.044  0.00  0.00    +0.000 C 
ATOM     36  C   UNL     1     105.203 125.548 146.390  0.00  0.00    +0.000 C 
ATOM     37  C   UNL     1     104.803 125.002 145.920  0.00  0.00    +0.000 C 
ATOM     38  C   UNL     1     104.768 125.109 145.102  0.00  0.00    +0.000 C 
BRANCH  36  39
ATOM     39  O   UNL     1     105.238 125.442 147.207  0.00  0.00    +0.000 OA
BRANCH  39  41
ATOM     40  O   UNL     1     106.141 124.339 147.305  0.00  0.00    +0.000 OA
ATOM     41  C   UNL     1     105.900 125.090 147.550  0.00  0.00    +0.000 C 
ATOM     42  C   UNL     1     106.321 125.487 148.138  0.00  0.00    +0.000 C 
ENDBRANCH  39  41
ENDBRANCH  36  39
ENDBRANCH  30  34
ENDBRANCH  24  30
BRANCH  25  43
ATOM     43  O   UNL     1     104.962 127.946 143.946  0.00  0.00    +0.000 OA
BRANCH  43  45
ATOM     44  O   UNL     1     105.709 129.137 144.199  0.00  0.00    +0.000 OA
ATOM     45  C   UNL     1     105.024 128.767 143.923  0.00  0.00    +0.000 C 
ATOM     46  C   UNL     1     104.403 129.221 143.625  0.00  0.00    +0.000 C 
ENDBRANCH  43  45
ENDBRANCH  25  43
ENDBRANCH  21  28
ENDBRANCH   4  21
BRANCH   8  47
ATOM     47  O   UNL     1     110.341 128.404 139.920  0.00  0.00    +0.000 OA
BRANCH  47  56
ATOM     48  O   UNL     1     109.677 129.638 139.641  0.00  0.00    +0.000 OA
ATOM     49  O   UNL     1     111.832 130.841 139.833  0.00  0.00    +0.000 OA
ATOM     50  O   UNL     1     110.450 131.674 139.490  0.00  0.00    +0.000 OA
ATOM     51  O   UNL     1     111.777 129.206 140.048  0.00  0.00    +0.000 OA
ATOM     52  C   UNL     1     111.113 130.439 139.769  0.00  0.00    +0.000 C 
ATOM     53  C   UNL     1     110.422 130.856 139.597  0.00  0.00    +0.000 C 
ATOM     54  C   UNL     1     111.086 129.623 139.876  0.00  0.00    +0.000 C 
ATOM     55  C   UNL     1     109.704 130.456 139.533  0.00  0.00    +0.000 C 
ATOM     56  C   UNL     1     110.369 129.222 139.813  0.00  0.00    +0.000 C 
BRANCH  55  58
ATOM     57  O   UNL     1     108.443 130.539 138.868  0.00  0.00    +0.000 OA
ATOM     58  C   UNL     1     109.013 130.872 139.362  0.00  0.00    +0.000 C 
ENDBRANCH  55  58
ENDBRANCH  47  56
ENDBRANCH   8  47
BRANCH  10  59
ATOM     59  C   UNL     1     109.414 127.045 139.535  0.00  0.00    +0.000 C 
BRANCH  59  60
ATOM     60  C   UNL     1     110.009 126.497 139.375  0.00  0.00    +0.000 C 
ATOM     61  C   UNL     1     110.064 126.154 138.628  0.00  0.00    +0.000 C 
ATOM     62  C   UNL     1     110.660 125.606 138.468  0.00  0.00    +0.000 C 
ATOM     63  C   UNL     1     109.524 126.357 138.039  0.00  0.00    +0.000 C 
ENDBRANCH  59  60
ENDBRANCH  10  59
TORSDOF 15
ENDMDL
