MODEL 1
REMARK VINA RESULT:     -10.1      0.000      0.000
REMARK  Name = 44259426
REMARK  4 active torsions:
REMARK  status: ('A' for Active; 'I' for Inactive)
REMARK    1  A    between atoms: O_2  and  C_18
REMARK    2  A    between atoms: O_2  and  C_20
REMARK    3  A    between atoms: C_17  and  C_19
REMARK    4  A    between atoms: C_21  and  C_25
REMARK                            x       y       z     vdW  Elec       q    Type
REMARK                         _______ _______ _______ _____ _____    ______ ____
ROOT
ATOM      1  O   UNL     1     105.665 124.428 147.781  0.00  0.00    +0.000 OA
ATOM      2  O   UNL     1     107.025 125.646 146.110  0.00  0.00    +0.000 OA
ATOM      3  O   UNL     1     108.170 125.632 146.989  0.00  0.00    +0.000 OA
ATOM      4  O   UNL     1     107.932 124.362 149.608  0.00  0.00    +0.000 OA
ATOM      5  C   UNL     1     105.786 125.052 146.500  0.00  0.00    +0.000 A 
ATOM      6  C   UNL     1     105.333 124.645 147.058  0.00  0.00    +0.000 A 
ATOM      7  C   UNL     1     106.572 125.240 146.667  0.00  0.00    +0.000 A 
ATOM      8  C   UNL     1     106.904 125.023 147.391  0.00  0.00    +0.000 A 
ATOM      9  C   UNL     1     106.451 124.618 147.947  0.00  0.00    +0.000 A 
ATOM     10  C   UNL     1     107.723 125.226 147.552  0.00  0.00    +0.000 A 
ATOM     11  C   UNL     1     106.784 124.386 148.704  0.00  0.00    +0.000 A 
ATOM     12  C   UNL     1     108.074 125.003 148.304  0.00  0.00    +0.000 A 
ATOM     13  C   UNL     1     107.602 124.580 148.884  0.00  0.00    +0.000 A 
ENDROOT
BRANCH   6  17
ATOM     14  O   UNL     1     103.411 123.050 145.669  0.00  0.00    +0.000 OA
ATOM     15  O   UNL     1     102.540 125.111 147.447  0.00  0.00    +0.000 OA
ATOM     16  O   UNL     1     102.189 123.892 146.391  0.00  0.00    +0.000 OA
ATOM     17  C   UNL     1     104.547 124.457 146.891  0.00  0.00    +0.000 A 
ATOM     18  C   UNL     1     103.936 124.878 147.252  0.00  0.00    +0.000 A 
ATOM     19  C   UNL     1     104.372 123.847 146.363  0.00  0.00    +0.000 A 
ATOM     20  C   UNL     1     103.586 123.659 146.197  0.00  0.00    +0.000 A 
ATOM     21  C   UNL     1     103.151 124.690 147.085  0.00  0.00    +0.000 A 
ATOM     22  C   UNL     1     102.976 124.080 146.558  0.00  0.00    +0.000 A 
ENDBRANCH   6  17
BRANCH   5  23
ATOM     23  O   UNL     1     105.454 125.268 145.777  0.00  0.00    +0.000 OA
BRANCH  23  32
ATOM     24  O   UNL     1     105.343 126.652 146.118  0.00  0.00    +0.000 OA
ATOM     25  O   UNL     1     105.604 127.260 143.733  0.00  0.00    +0.000 OA
ATOM     26  O   UNL     1     105.406 128.440 144.868  0.00  0.00    +0.000 OA
ATOM     27  O   UNL     1     105.628 125.674 144.187  0.00  0.00    +0.000 OA
ATOM     28  C   UNL     1     105.517 127.057 144.528  0.00  0.00    +0.000 C 
ATOM     29  C   UNL     1     105.418 127.647 145.096  0.00  0.00    +0.000 C 
ATOM     30  C   UNL     1     105.529 126.264 144.755  0.00  0.00    +0.000 C 
ATOM     31  C   UNL     1     105.331 127.444 145.891  0.00  0.00    +0.000 C 
ATOM     32  C   UNL     1     105.442 126.061 145.550  0.00  0.00    +0.000 C 
BRANCH  31  34
ATOM     33  O   UNL     1     104.570 128.027 146.951  0.00  0.00    +0.000 OA
ATOM     34  C   UNL     1     105.232 128.034 146.458  0.00  0.00    +0.000 C 
ENDBRANCH  31  34
ENDBRANCH  23  32
ENDBRANCH   5  23
TORSDOF 4
ENDMDL
MODEL 2
REMARK VINA RESULT:      -9.5     11.017     12.543
REMARK  Name = 44259426
REMARK  4 active torsions:
REMARK  status: ('A' for Active; 'I' for Inactive)
REMARK    1  A    between atoms: O_2  and  C_18
REMARK    2  A    between atoms: O_2  and  C_20
REMARK    3  A    between atoms: C_17  and  C_19
REMARK    4  A    between atoms: C_21  and  C_25
REMARK                            x       y       z     vdW  Elec       q    Type
REMARK                         _______ _______ _______ _____ _____    ______ ____
ROOT
ATOM      1  O   UNL     1     111.787 129.551 135.870  0.00  0.00    +0.000 OA
ATOM      2  O   UNL     1     112.302 130.871 137.901  0.00  0.00    +0.000 OA
ATOM      3  O   UNL     1     113.697 130.937 137.538  0.00  0.00    +0.000 OA
ATOM      4  O   UNL     1     114.587 129.643 135.076  0.00  0.00    +0.000 OA
ATOM      5  C   UNL     1     111.356 130.186 137.077  0.00  0.00    +0.000 A 
ATOM      6  C   UNL     1     111.185 129.745 136.400  0.00  0.00    +0.000 A 
ATOM      7  C   UNL     1     112.130 130.431 137.223  0.00  0.00    +0.000 A 
ATOM      8  C   UNL     1     112.732 130.236 136.694  0.00  0.00    +0.000 A 
ATOM      9  C   UNL     1     112.560 129.796 136.018  0.00  0.00    +0.000 A 
ATOM     10  C   UNL     1     113.534 130.497 136.859  0.00  0.00    +0.000 A 
ATOM     11  C   UNL     1     113.178 129.587 135.459  0.00  0.00    +0.000 A 
ATOM     12  C   UNL     1     114.165 130.297 136.311  0.00  0.00    +0.000 A 
ATOM     13  C   UNL     1     113.987 129.839 135.607  0.00  0.00    +0.000 A 
ENDROOT
BRANCH   6  17
ATOM     14  O   UNL     1     108.999 127.987 136.944  0.00  0.00    +0.000 OA
ATOM     15  O   UNL     1     108.726 130.038 134.973  0.00  0.00    +0.000 OA
ATOM     16  O   UNL     1     108.088 128.768 135.811  0.00  0.00    +0.000 OA
ATOM     17  C   UNL     1     110.411 129.501 136.253  0.00  0.00    +0.000 A 
ATOM     18  C   UNL     1     109.955 129.892 135.686  0.00  0.00    +0.000 A 
ATOM     19  C   UNL     1     110.092 128.866 136.672  0.00  0.00    +0.000 A 
ATOM     20  C   UNL     1     109.317 128.622 136.525  0.00  0.00    +0.000 A 
ATOM     21  C   UNL     1     109.181 129.647 135.540  0.00  0.00    +0.000 A 
ATOM     22  C   UNL     1     108.862 129.012 135.959  0.00  0.00    +0.000 A 
ENDBRANCH   6  17
BRANCH   5  23
ATOM     23  O   UNL     1     110.754 130.381 137.606  0.00  0.00    +0.000 OA
BRANCH  23  32
ATOM     24  O   UNL     1     110.663 131.747 137.199  0.00  0.00    +0.000 OA
ATOM     25  O   UNL     1     110.031 132.392 139.503  0.00  0.00    +0.000 OA
ATOM     26  O   UNL     1     110.151 133.543 138.328  0.00  0.00    +0.000 OA
ATOM     27  O   UNL     1     110.332 130.810 139.142  0.00  0.00    +0.000 OA
ATOM     28  C   UNL     1     110.241 132.177 138.735  0.00  0.00    +0.000 C 
ATOM     29  C   UNL     1     110.302 132.752 138.147  0.00  0.00    +0.000 C 
ATOM     30  C   UNL     1     110.392 131.386 138.554  0.00  0.00    +0.000 C 
ATOM     31  C   UNL     1     110.513 132.537 137.379  0.00  0.00    +0.000 C 
ATOM     32  C   UNL     1     110.603 131.171 137.786  0.00  0.00    +0.000 C 
BRANCH  31  34
ATOM     33  O   UNL     1     110.054 133.105 136.150  0.00  0.00    +0.000 OA
ATOM     34  C   UNL     1     110.573 133.113 136.792  0.00  0.00    +0.000 C 
ENDBRANCH  31  34
ENDBRANCH  23  32
ENDBRANCH   5  23
TORSDOF 4
ENDMDL
MODEL 3
REMARK VINA RESULT:      -9.4      1.210      4.036
REMARK  Name = 44259426
REMARK  4 active torsions:
REMARK  status: ('A' for Active; 'I' for Inactive)
REMARK    1  A    between atoms: O_2  and  C_18
REMARK    2  A    between atoms: O_2  and  C_20
REMARK    3  A    between atoms: C_17  and  C_19
REMARK    4  A    between atoms: C_21  and  C_25
REMARK                            x       y       z     vdW  Elec       q    Type
REMARK                         _______ _______ _______ _____ _____    ______ ____
ROOT
ATOM      1  O   UNL     1     105.139 124.132 147.180  0.00  0.00    +0.000 OA
ATOM      2  O   UNL     1     103.568 125.840 148.043  0.00  0.00    +0.000 OA
ATOM      3  O   UNL     1     102.466 125.218 147.349  0.00  0.00    +0.000 OA
ATOM      4  O   UNL     1     102.965 122.825 145.751  0.00  0.00    +0.000 OA
ATOM      5  C   UNL     1     104.890 125.304 147.961  0.00  0.00    +0.000 A 
ATOM      6  C   UNL     1     105.414 124.734 147.673  0.00  0.00    +0.000 A 
ATOM      7  C   UNL     1     104.092 125.270 147.756  0.00  0.00    +0.000 A 
ATOM      8  C   UNL     1     103.817 124.668 147.263  0.00  0.00    +0.000 A 
ATOM      9  C   UNL     1     104.341 124.100 146.975  0.00  0.00    +0.000 A 
ATOM     10  C   UNL     1     102.983 124.645 147.056  0.00  0.00    +0.000 A 
ATOM     11  C   UNL     1     104.068 123.468 146.461  0.00  0.00    +0.000 A 
ATOM     12  C   UNL     1     102.692 124.020 146.543  0.00  0.00    +0.000 A 
ATOM     13  C   UNL     1     103.237 123.428 146.244  0.00  0.00    +0.000 A 
ENDROOT
BRANCH   6  17
ATOM     14  O   UNL     1     107.497 124.327 149.587  0.00  0.00    +0.000 OA
ATOM     15  O   UNL     1     108.121 125.344 146.990  0.00  0.00    +0.000 OA
ATOM     16  O   UNL     1     108.608 124.869 148.493  0.00  0.00    +0.000 OA
ATOM     17  C   UNL     1     106.212 124.768 147.879  0.00  0.00    +0.000 A 
ATOM     18  C   UNL     1     106.768 125.039 147.331  0.00  0.00    +0.000 A 
ATOM     19  C   UNL     1     106.455 124.531 148.631  0.00  0.00    +0.000 A 
ATOM     20  C   UNL     1     107.254 124.565 148.835  0.00  0.00    +0.000 A 
ATOM     21  C   UNL     1     107.566 125.072 147.537  0.00  0.00    +0.000 A 
ATOM     22  C   UNL     1     107.809 124.835 148.289  0.00  0.00    +0.000 A 
ENDBRANCH   6  17
BRANCH   5  23
ATOM     23  O   UNL     1     105.165 125.905 148.454  0.00  0.00    +0.000 OA
BRANCH  23  32
ATOM     24  O   UNL     1     105.120 126.920 147.449  0.00  0.00    +0.000 OA
ATOM     25  O   UNL     1     104.610 128.613 149.180  0.00  0.00    +0.000 OA
ATOM     26  O   UNL     1     104.736 129.063 147.599  0.00  0.00    +0.000 OA
ATOM     27  O   UNL     1     104.825 127.034 149.608  0.00  0.00    +0.000 OA
ATOM     28  C   UNL     1     104.780 128.049 148.603  0.00  0.00    +0.000 C 
ATOM     29  C   UNL     1     104.843 128.273 147.812  0.00  0.00    +0.000 C 
ATOM     30  C   UNL     1     104.888 127.259 148.817  0.00  0.00    +0.000 C 
ATOM     31  C   UNL     1     105.013 127.709 147.235  0.00  0.00    +0.000 C 
ATOM     32  C   UNL     1     105.058 126.694 148.240  0.00  0.00    +0.000 C 
BRANCH  31  34
ATOM     33  O   UNL     1     105.806 127.901 146.061  0.00  0.00    +0.000 OA
ATOM     34  C   UNL     1     105.076 127.934 146.444  0.00  0.00    +0.000 C 
ENDBRANCH  31  34
ENDBRANCH  23  32
ENDBRANCH   5  23
TORSDOF 4
ENDMDL
MODEL 4
REMARK VINA RESULT:      -9.4      1.384      4.192
REMARK  Name = 44259426
REMARK  4 active torsions:
REMARK  status: ('A' for Active; 'I' for Inactive)
REMARK    1  A    between atoms: O_2  and  C_18
REMARK    2  A    between atoms: O_2  and  C_20
REMARK    3  A    between atoms: C_17  and  C_19
REMARK    4  A    between atoms: C_21  and  C_25
REMARK                            x       y       z     vdW  Elec       q    Type
REMARK                         _______ _______ _______ _____ _____    ______ ____
ROOT
ATOM      1  O   UNL     1     103.753 125.790 147.347  0.00  0.00    +0.000 OA
ATOM      2  O   UNL     1     105.668 124.437 146.551  0.00  0.00    +0.000 OA
ATOM      3  O   UNL     1     104.790 123.344 146.209  0.00  0.00    +0.000 OA
ATOM      4  O   UNL     1     101.921 123.626 146.682  0.00  0.00    +0.000 OA
ATOM      5  C   UNL     1     105.156 125.647 147.113  0.00  0.00    +0.000 A 
ATOM      6  C   UNL     1     104.518 126.098 147.379  0.00  0.00    +0.000 A 
ATOM      7  C   UNL     1     105.029 124.888 146.816  0.00  0.00    +0.000 A 
ATOM      8  C   UNL     1     104.264 124.580 146.784  0.00  0.00    +0.000 A 
ATOM      9  C   UNL     1     103.627 125.031 147.049  0.00  0.00    +0.000 A 
ATOM     10  C   UNL     1     104.146 123.788 146.472  0.00  0.00    +0.000 A 
ATOM     11  C   UNL     1     102.826 124.722 147.021  0.00  0.00    +0.000 A 
ATOM     12  C   UNL     1     103.352 123.462 146.437  0.00  0.00    +0.000 A 
ATOM     13  C   UNL     1     102.687 123.931 146.713  0.00  0.00    +0.000 A 
ENDROOT
BRANCH   6  17
ATOM     14  O   UNL     1     104.705 127.890 149.598  0.00  0.00    +0.000 OA
ATOM     15  O   UNL     1     105.095 128.863 146.939  0.00  0.00    +0.000 OA
ATOM     16  O   UNL     1     105.027 129.135 148.565  0.00  0.00    +0.000 OA
ATOM     17  C   UNL     1     104.645 126.857 147.676  0.00  0.00    +0.000 A 
ATOM     18  C   UNL     1     104.806 127.480 147.159  0.00  0.00    +0.000 A 
ATOM     19  C   UNL     1     104.611 126.994 148.489  0.00  0.00    +0.000 A 
ATOM     20  C   UNL     1     104.738 127.753 148.785  0.00  0.00    +0.000 A 
ATOM     21  C   UNL     1     104.934 128.239 147.456  0.00  0.00    +0.000 A 
ATOM     22  C   UNL     1     104.900 128.376 148.269  0.00  0.00    +0.000 A 
ENDBRANCH   6  17
BRANCH   5  23
ATOM     23  O   UNL     1     105.921 125.955 147.145  0.00  0.00    +0.000 OA
BRANCH  23  32
ATOM     24  O   UNL     1     106.301 125.249 148.328  0.00  0.00    +0.000 OA
ATOM     25  O   UNL     1     108.628 125.108 147.496  0.00  0.00    +0.000 OA
ATOM     26  O   UNL     1     108.232 124.450 148.955  0.00  0.00    +0.000 OA
ATOM     27  O   UNL     1     107.472 125.861 146.591  0.00  0.00    +0.000 OA
ATOM     28  C   UNL     1     107.852 125.155 147.773  0.00  0.00    +0.000 C 
ATOM     29  C   UNL     1     107.654 124.826 148.503  0.00  0.00    +0.000 C 
ATOM     30  C   UNL     1     107.274 125.532 147.320  0.00  0.00    +0.000 C 
ATOM     31  C   UNL     1     106.878 124.873 148.781  0.00  0.00    +0.000 C 
ATOM     32  C   UNL     1     106.498 125.579 147.598  0.00  0.00    +0.000 C 
BRANCH  31  34
ATOM     33  O   UNL     1     106.119 123.941 149.553  0.00  0.00    +0.000 OA
ATOM     34  C   UNL     1     106.681 124.544 149.510  0.00  0.00    +0.000 C 
ENDBRANCH  31  34
ENDBRANCH  23  32
ENDBRANCH   5  23
TORSDOF 4
ENDMDL
MODEL 5
REMARK VINA RESULT:      -9.3     10.256     12.481
REMARK  Name = 44259426
REMARK  4 active torsions:
REMARK  status: ('A' for Active; 'I' for Inactive)
REMARK    1  A    between atoms: O_2  and  C_18
REMARK    2  A    between atoms: O_2  and  C_20
REMARK    3  A    between atoms: C_17  and  C_19
REMARK    4  A    between atoms: C_21  and  C_25
REMARK                            x       y       z     vdW  Elec       q    Type
REMARK                         _______ _______ _______ _____ _____    ______ ____
ROOT
ATOM      1  O   UNL     1     113.550 126.760 136.779  0.00  0.00    +0.000 OA
ATOM      2  O   UNL     1     111.588 125.452 136.024  0.00  0.00    +0.000 OA
ATOM      3  O   UNL     1     112.243 124.215 136.371  0.00  0.00    +0.000 OA
ATOM      4  O   UNL     1     114.934 124.302 137.504  0.00  0.00    +0.000 OA
ATOM      5  C   UNL     1     112.233 126.712 136.225  0.00  0.00    +0.000 A 
ATOM      6  C   UNL     1     112.887 127.148 136.477  0.00  0.00    +0.000 A 
ATOM      7  C   UNL     1     112.242 125.888 136.276  0.00  0.00    +0.000 A 
ATOM      8  C   UNL     1     112.905 125.501 136.578  0.00  0.00    +0.000 A 
ATOM      9  C   UNL     1     113.558 125.936 136.829  0.00  0.00    +0.000 A 
ATOM     10  C   UNL     1     112.902 124.643 136.626  0.00  0.00    +0.000 A 
ATOM     11  C   UNL     1     114.254 125.545 137.146  0.00  0.00    +0.000 A 
ATOM     12  C   UNL     1     113.589 124.234 136.939  0.00  0.00    +0.000 A 
ATOM     13  C   UNL     1     114.270 124.687 137.202  0.00  0.00    +0.000 A 
ENDROOT
BRANCH   6  17
ATOM     14  O   UNL     1     112.640 129.703 137.732  0.00  0.00    +0.000 OA
ATOM     15  O   UNL     1     113.078 129.532 134.913  0.00  0.00    +0.000 OA
ATOM     16  O   UNL     1     112.850 130.441 136.271  0.00  0.00    +0.000 OA
ATOM     17  C   UNL     1     112.878 127.971 136.426  0.00  0.00    +0.000 A 
ATOM     18  C   UNL     1     112.983 128.340 135.695  0.00  0.00    +0.000 A 
ATOM     19  C   UNL     1     112.763 128.425 137.105  0.00  0.00    +0.000 A 
ATOM     20  C   UNL     1     112.754 129.249 137.053  0.00  0.00    +0.000 A 
ATOM     21  C   UNL     1     112.973 129.163 135.644  0.00  0.00    +0.000 A 
ATOM     22  C   UNL     1     112.859 129.617 136.323  0.00  0.00    +0.000 A 
ENDBRANCH   6  17
BRANCH   5  23
ATOM     23  O   UNL     1     111.570 127.099 135.923  0.00  0.00    +0.000 OA
BRANCH  23  32
ATOM     24  O   UNL     1     110.776 126.888 137.092  0.00  0.00    +0.000 OA
ATOM     25  O   UNL     1     108.730 126.868 135.699  0.00  0.00    +0.000 OA
ATOM     26  O   UNL     1     108.619 126.664 137.332  0.00  0.00    +0.000 OA
ATOM     27  O   UNL     1     110.206 127.086 134.994  0.00  0.00    +0.000 OA
ATOM     28  C   UNL     1     109.412 126.875 136.163  0.00  0.00    +0.000 C 
ATOM     29  C   UNL     1     109.357 126.773 136.980  0.00  0.00    +0.000 C 
ATOM     30  C   UNL     1     110.151 126.984 135.811  0.00  0.00    +0.000 C 
ATOM     31  C   UNL     1     110.039 126.779 137.444  0.00  0.00    +0.000 C 
ATOM     32  C   UNL     1     110.833 126.990 136.275  0.00  0.00    +0.000 C 
BRANCH  31  34
ATOM     33  O   UNL     1     110.224 127.280 138.770  0.00  0.00    +0.000 OA
ATOM     34  C   UNL     1     109.983 126.677 138.260  0.00  0.00    +0.000 C 
ENDBRANCH  31  34
ENDBRANCH  23  32
ENDBRANCH   5  23
TORSDOF 4
ENDMDL
MODEL 6
REMARK VINA RESULT:      -9.3      0.867      3.494
REMARK  Name = 44259426
REMARK  4 active torsions:
REMARK  status: ('A' for Active; 'I' for Inactive)
REMARK    1  A    between atoms: O_2  and  C_18
REMARK    2  A    between atoms: O_2  and  C_20
REMARK    3  A    between atoms: C_17  and  C_19
REMARK    4  A    between atoms: C_21  and  C_25
REMARK                            x       y       z     vdW  Elec       q    Type
REMARK                         _______ _______ _______ _____ _____    ______ ____
ROOT
ATOM      1  O   UNL     1     106.722 125.439 146.815  0.00  0.00    +0.000 OA
ATOM      2  O   UNL     1     104.744 124.785 148.152  0.00  0.00    +0.000 OA
ATOM      3  O   UNL     1     105.588 124.310 149.221  0.00  0.00    +0.000 OA
ATOM      4  O   UNL     1     108.488 124.500 148.931  0.00  0.00    +0.000 OA
ATOM      5  C   UNL     1     105.303 125.344 146.961  0.00  0.00    +0.000 A 
ATOM      6  C   UNL     1     105.963 125.562 146.516  0.00  0.00    +0.000 A 
ATOM      7  C   UNL     1     105.403 125.003 147.706  0.00  0.00    +0.000 A 
ATOM      8  C   UNL     1     106.163 124.881 148.005  0.00  0.00    +0.000 A 
ATOM      9  C   UNL     1     106.821 125.099 147.560  0.00  0.00    +0.000 A 
ATOM     10  C   UNL     1     106.253 124.525 148.782  0.00  0.00    +0.000 A 
ATOM     11  C   UNL     1     107.617 124.976 147.859  0.00  0.00    +0.000 A 
ATOM     12  C   UNL     1     107.041 124.395 149.098  0.00  0.00    +0.000 A 
ATOM     13  C   UNL     1     107.728 124.622 148.635  0.00  0.00    +0.000 A 
ENDROOT
BRANCH   6  17
ATOM     14  O   UNL     1     106.111 125.377 143.667  0.00  0.00    +0.000 OA
ATOM     15  O   UNL     1     105.210 127.794 144.898  0.00  0.00    +0.000 OA
ATOM     16  O   UNL     1     105.560 126.927 143.538  0.00  0.00    +0.000 OA
ATOM     17  C   UNL     1     105.862 125.903 145.771  0.00  0.00    +0.000 A 
ATOM     18  C   UNL     1     105.586 126.678 145.707  0.00  0.00    +0.000 A 
ATOM     19  C   UNL     1     106.037 125.469 145.091  0.00  0.00    +0.000 A 
ATOM     20  C   UNL     1     105.936 125.811 144.347  0.00  0.00    +0.000 A 
ATOM     21  C   UNL     1     105.486 127.019 144.962  0.00  0.00    +0.000 A 
ATOM     22  C   UNL     1     105.661 126.585 144.282  0.00  0.00    +0.000 A 
ENDBRANCH   6  17
BRANCH   5  23
ATOM     23  O   UNL     1     104.544 125.466 146.662  0.00  0.00    +0.000 OA
BRANCH  23  32
ATOM     24  O   UNL     1     104.280 124.118 146.271  0.00  0.00    +0.000 OA
ATOM     25  O   UNL     1     101.934 124.359 147.021  0.00  0.00    +0.000 OA
ATOM     26  O   UNL     1     102.452 122.930 146.380  0.00  0.00    +0.000 OA
ATOM     27  O   UNL     1     102.980 125.627 147.163  0.00  0.00    +0.000 OA
ATOM     28  C   UNL     1     102.716 124.278 146.771  0.00  0.00    +0.000 C 
ATOM     29  C   UNL     1     102.976 123.564 146.451  0.00  0.00    +0.000 C 
ATOM     30  C   UNL     1     103.239 124.913 146.842  0.00  0.00    +0.000 C 
ATOM     31  C   UNL     1     103.758 123.484 146.200  0.00  0.00    +0.000 C 
ATOM     32  C   UNL     1     104.022 124.833 146.592  0.00  0.00    +0.000 C 
BRANCH  31  34
ATOM     33  O   UNL     1     104.326 122.748 145.115  0.00  0.00    +0.000 OA
ATOM     34  C   UNL     1     104.016 122.770 145.880  0.00  0.00    +0.000 C 
ENDBRANCH  31  34
ENDBRANCH  23  32
ENDBRANCH   5  23
TORSDOF 4
ENDMDL
MODEL 7
REMARK VINA RESULT:      -9.3      9.996     12.117
REMARK  Name = 44259426
REMARK  4 active torsions:
REMARK  status: ('A' for Active; 'I' for Inactive)
REMARK    1  A    between atoms: O_2  and  C_18
REMARK    2  A    between atoms: O_2  and  C_20
REMARK    3  A    between atoms: C_17  and  C_19
REMARK    4  A    between atoms: C_21  and  C_25
REMARK                            x       y       z     vdW  Elec       q    Type
REMARK                         _______ _______ _______ _____ _____    ______ ____
ROOT
ATOM      1  O   UNL     1     113.518 127.278 136.597  0.00  0.00    +0.000 OA
ATOM      2  O   UNL     1     112.151 128.243 138.422  0.00  0.00    +0.000 OA
ATOM      3  O   UNL     1     112.423 129.581 137.956  0.00  0.00    +0.000 OA
ATOM      4  O   UNL     1     114.110 129.949 135.600  0.00  0.00    +0.000 OA
ATOM      5  C   UNL     1     112.691 127.103 137.751  0.00  0.00    +0.000 A 
ATOM      6  C   UNL     1     113.147 126.781 137.142  0.00  0.00    +0.000 A 
ATOM      7  C   UNL     1     112.607 127.921 137.813  0.00  0.00    +0.000 A 
ATOM      8  C   UNL     1     112.977 128.418 137.268  0.00  0.00    +0.000 A 
ATOM      9  C   UNL     1     113.432 128.096 136.661  0.00  0.00    +0.000 A 
ATOM     10  C   UNL     1     112.880 129.268 137.345  0.00  0.00    +0.000 A 
ATOM     11  C   UNL     1     113.823 128.602 136.087  0.00  0.00    +0.000 A 
ATOM     12  C   UNL     1     113.264 129.790 136.780  0.00  0.00    +0.000 A 
ATOM     13  C   UNL     1     113.738 129.455 136.147  0.00  0.00    +0.000 A 
ENDROOT
BRANCH   6  17
ATOM     14  O   UNL     1     114.725 124.423 137.480  0.00  0.00    +0.000 OA
ATOM     15  O   UNL     1     112.074 124.230 136.429  0.00  0.00    +0.000 OA
ATOM     16  O   UNL     1     113.484 123.508 136.892  0.00  0.00    +0.000 OA
ATOM     17  C   UNL     1     113.232 125.963 137.080  0.00  0.00    +0.000 A 
ATOM     18  C   UNL     1     112.611 125.506 136.786  0.00  0.00    +0.000 A 
ATOM     19  C   UNL     1     113.937 125.602 137.311  0.00  0.00    +0.000 A 
ATOM     20  C   UNL     1     114.020 124.784 137.248  0.00  0.00    +0.000 A 
ATOM     21  C   UNL     1     112.695 124.688 136.724  0.00  0.00    +0.000 A 
ATOM     22  C   UNL     1     113.400 124.327 136.955  0.00  0.00    +0.000 A 
ENDBRANCH   6  17
BRANCH   5  23
ATOM     23  O   UNL     1     112.321 126.607 138.296  0.00  0.00    +0.000 OA
BRANCH  23  32
ATOM     24  O   UNL     1     113.234 126.918 139.350  0.00  0.00    +0.000 OA
ATOM     25  O   UNL     1     111.466 126.451 141.019  0.00  0.00    +0.000 OA
ATOM     26  O   UNL     1     112.968 126.917 141.516  0.00  0.00    +0.000 OA
ATOM     27  O   UNL     1     111.143 126.296 139.408  0.00  0.00    +0.000 OA
ATOM     28  C   UNL     1     112.056 126.607 140.463  0.00  0.00    +0.000 C 
ATOM     29  C   UNL     1     112.807 126.840 140.711  0.00  0.00    +0.000 C 
ATOM     30  C   UNL     1     111.894 126.529 139.657  0.00  0.00    +0.000 C 
ATOM     31  C   UNL     1     113.396 126.995 140.155  0.00  0.00    +0.000 C 
ATOM     32  C   UNL     1     112.483 126.684 139.100  0.00  0.00    +0.000 C 
BRANCH  31  34
ATOM     33  O   UNL     1     114.793 126.728 140.292  0.00  0.00    +0.000 OA
ATOM     34  C   UNL     1     114.146 127.228 140.404  0.00  0.00    +0.000 C 
ENDBRANCH  31  34
ENDBRANCH  23  32
ENDBRANCH   5  23
TORSDOF 4
ENDMDL
MODEL 8
REMARK VINA RESULT:      -9.2      9.200     11.233
REMARK  Name = 44259426
REMARK  4 active torsions:
REMARK  status: ('A' for Active; 'I' for Inactive)
REMARK    1  A    between atoms: O_2  and  C_18
REMARK    2  A    between atoms: O_2  and  C_20
REMARK    3  A    between atoms: C_17  and  C_19
REMARK    4  A    between atoms: C_21  and  C_25
REMARK                            x       y       z     vdW  Elec       q    Type
REMARK                         _______ _______ _______ _____ _____    ______ ____
ROOT
ATOM      1  O   UNL     1     113.806 126.236 138.224  0.00  0.00    +0.000 OA
ATOM      2  O   UNL     1     111.716 124.971 137.818  0.00  0.00    +0.000 OA
ATOM      3  O   UNL     1     112.330 124.251 136.729  0.00  0.00    +0.000 OA
ATOM      4  O   UNL     1     115.109 124.821 136.037  0.00  0.00    +0.000 OA
ATOM      5  C   UNL     1     112.445 125.953 138.558  0.00  0.00    +0.000 A 
ATOM      6  C   UNL     1     113.142 126.374 138.693  0.00  0.00    +0.000 A 
ATOM      7  C   UNL     1     112.413 125.393 137.953  0.00  0.00    +0.000 A 
ATOM      8  C   UNL     1     113.077 125.254 137.484  0.00  0.00    +0.000 A 
ATOM      9  C   UNL     1     113.773 125.675 137.619  0.00  0.00    +0.000 A 
ATOM     10  C   UNL     1     113.030 124.668 136.857  0.00  0.00    +0.000 A 
ATOM     11  C   UNL     1     114.471 125.540 137.137  0.00  0.00    +0.000 A 
ATOM     12  C   UNL     1     113.719 124.519 136.365  0.00  0.00    +0.000 A 
ATOM     13  C   UNL     1     114.444 124.958 136.505  0.00  0.00    +0.000 A 
ENDROOT
BRANCH   6  17
ATOM     14  O   UNL     1     113.153 129.103 139.544  0.00  0.00    +0.000 OA
ATOM     15  O   UNL     1     113.321 127.003 141.476  0.00  0.00    +0.000 OA
ATOM     16  O   UNL     1     113.269 128.612 141.115  0.00  0.00    +0.000 OA
ATOM     17  C   UNL     1     113.174 126.934 139.298  0.00  0.00    +0.000 A 
ATOM     18  C   UNL     1     113.231 126.689 140.084  0.00  0.00    +0.000 A 
ATOM     19  C   UNL     1     113.147 127.739 139.118  0.00  0.00    +0.000 A 
ATOM     20  C   UNL     1     113.179 128.298 139.724  0.00  0.00    +0.000 A 
ATOM     21  C   UNL     1     113.263 127.249 140.689  0.00  0.00    +0.000 A 
ATOM     22  C   UNL     1     113.237 128.053 140.509  0.00  0.00    +0.000 A 
ENDBRANCH   6  17
BRANCH   5  23
ATOM     23  O   UNL     1     111.781 126.091 139.028  0.00  0.00    +0.000 OA
BRANCH  23  32
ATOM     24  O   UNL     1     111.081 126.817 138.015  0.00  0.00    +0.000 OA
ATOM     25  O   UNL     1     108.924 126.060 138.964  0.00  0.00    +0.000 OA
ATOM     26  O   UNL     1     108.943 127.037 137.636  0.00  0.00    +0.000 OA
ATOM     27  O   UNL     1     110.343 125.587 139.661  0.00  0.00    +0.000 OA
ATOM     28  C   UNL     1     109.643 126.312 138.648  0.00  0.00    +0.000 C 
ATOM     29  C   UNL     1     109.653 126.801 137.984  0.00  0.00    +0.000 C 
ATOM     30  C   UNL     1     110.353 126.076 138.996  0.00  0.00    +0.000 C 
ATOM     31  C   UNL     1     110.372 127.053 137.667  0.00  0.00    +0.000 C 
ATOM     32  C   UNL     1     111.072 126.328 138.680  0.00  0.00    +0.000 C 
BRANCH  31  34
ATOM     33  O   UNL     1     110.704 128.300 137.052  0.00  0.00    +0.000 OA
ATOM     34  C   UNL     1     110.381 127.542 137.003  0.00  0.00    +0.000 C 
ENDBRANCH  31  34
ENDBRANCH  23  32
ENDBRANCH   5  23
TORSDOF 4
ENDMDL
MODEL 9
REMARK VINA RESULT:      -9.2     11.339     12.978
REMARK  Name = 44259426
REMARK  4 active torsions:
REMARK  status: ('A' for Active; 'I' for Inactive)
REMARK    1  A    between atoms: O_2  and  C_18
REMARK    2  A    between atoms: O_2  and  C_20
REMARK    3  A    between atoms: C_17  and  C_19
REMARK    4  A    between atoms: C_21  and  C_25
REMARK                            x       y       z     vdW  Elec       q    Type
REMARK                         _______ _______ _______ _____ _____    ______ ____
ROOT
ATOM      1  O   UNL     1     111.812 125.993 136.115  0.00  0.00    +0.000 OA
ATOM      2  O   UNL     1     111.999 128.312 135.268  0.00  0.00    +0.000 OA
ATOM      3  O   UNL     1     110.718 128.205 134.612  0.00  0.00    +0.000 OA
ATOM      4  O   UNL     1     109.221 125.706 134.818  0.00  0.00    +0.000 OA
ATOM      5  C   UNL     1     112.541 127.218 136.012  0.00  0.00    +0.000 A 
ATOM      6  C   UNL     1     112.479 126.445 136.294  0.00  0.00    +0.000 A 
ATOM      7  C   UNL     1     111.936 127.538 135.551  0.00  0.00    +0.000 A 
ATOM      8  C   UNL     1     111.270 127.086 135.372  0.00  0.00    +0.000 A 
ATOM      9  C   UNL     1     111.208 126.314 135.654  0.00  0.00    +0.000 A 
ATOM     10  C   UNL     1     110.647 127.431 134.890  0.00  0.00    +0.000 A 
ATOM     11  C   UNL     1     110.520 125.832 135.475  0.00  0.00    +0.000 A 
ATOM     12  C   UNL     1     109.951 126.965 134.701  0.00  0.00    +0.000 A 
ATOM     13  C   UNL     1     109.886 126.160 134.995  0.00  0.00    +0.000 A 
ENDROOT
BRANCH   6  17
ATOM     14  O   UNL     1     113.536 125.752 138.858  0.00  0.00    +0.000 OA
ATOM     15  O   UNL     1     115.052 125.218 136.495  0.00  0.00    +0.000 OA
ATOM     16  O   UNL     1     114.899 125.165 138.137  0.00  0.00    +0.000 OA
ATOM     17  C   UNL     1     113.083 126.125 136.755  0.00  0.00    +0.000 A 
ATOM     18  C   UNL     1     113.765 125.832 136.395  0.00  0.00    +0.000 A 
ATOM     19  C   UNL     1     113.007 126.099 137.576  0.00  0.00    +0.000 A 
ATOM     20  C   UNL     1     113.612 125.779 138.037  0.00  0.00    +0.000 A 
ATOM     21  C   UNL     1     114.370 125.512 136.856  0.00  0.00    +0.000 A 
ATOM     22  C   UNL     1     114.293 125.485 137.677  0.00  0.00    +0.000 A 
ENDBRANCH   6  17
BRANCH   5  23
ATOM     23  O   UNL     1     113.207 127.671 136.191  0.00  0.00    +0.000 OA
BRANCH  23  32
ATOM     24  O   UNL     1     112.553 128.495 137.157  0.00  0.00    +0.000 OA
ATOM     25  O   UNL     1     114.006 130.395 136.522  0.00  0.00    +0.000 OA
ATOM     26  O   UNL     1     112.867 130.585 137.700  0.00  0.00    +0.000 OA
ATOM     27  O   UNL     1     114.176 128.938 135.767  0.00  0.00    +0.000 OA
ATOM     28  C   UNL     1     113.521 129.761 136.734  0.00  0.00    +0.000 C 
ATOM     29  C   UNL     1     112.952 129.856 137.323  0.00  0.00    +0.000 C 
ATOM     30  C   UNL     1     113.606 129.032 136.356  0.00  0.00    +0.000 C 
ATOM     31  C   UNL     1     112.467 129.223 137.535  0.00  0.00    +0.000 C 
ATOM     32  C   UNL     1     113.122 128.399 136.568  0.00  0.00    +0.000 C 
BRANCH  31  34
ATOM     33  O   UNL     1     111.927 128.854 138.805  0.00  0.00    +0.000 OA
ATOM     34  C   UNL     1     111.898 129.318 138.124  0.00  0.00    +0.000 C 
ENDBRANCH  31  34
ENDBRANCH  23  32
ENDBRANCH   5  23
TORSDOF 4
ENDMDL
MODEL 10
REMARK VINA RESULT:      -9.2     10.236     12.369
REMARK  Name = 44259426
REMARK  4 active torsions:
REMARK  status: ('A' for Active; 'I' for Inactive)
REMARK    1  A    between atoms: O_2  and  C_18
REMARK    2  A    between atoms: O_2  and  C_20
REMARK    3  A    between atoms: C_17  and  C_19
REMARK    4  A    between atoms: C_21  and  C_25
REMARK                            x       y       z     vdW  Elec       q    Type
REMARK                         _______ _______ _______ _____ _____    ______ ____
ROOT
ATOM      1  O   UNL     1     113.174 128.267 138.335  0.00  0.00    +0.000 OA
ATOM      2  O   UNL     1     112.015 126.100 138.630  0.00  0.00    +0.000 OA
ATOM      3  O   UNL     1     112.246 126.137 140.054  0.00  0.00    +0.000 OA
ATOM      4  O   UNL     1     113.677 128.411 141.200  0.00  0.00    +0.000 OA
ATOM      5  C   UNL     1     112.474 127.152 137.779  0.00  0.00    +0.000 A 
ATOM      6  C   UNL     1     112.860 127.875 137.681  0.00  0.00    +0.000 A 
ATOM      7  C   UNL     1     112.402 126.823 138.532  0.00  0.00    +0.000 A 
ATOM      8  C   UNL     1     112.716 127.215 139.186  0.00  0.00    +0.000 A 
ATOM      9  C   UNL     1     113.102 127.936 139.088  0.00  0.00    +0.000 A 
ATOM     10  C   UNL     1     112.634 126.860 139.965  0.00  0.00    +0.000 A 
ATOM     11  C   UNL     1     113.433 128.355 139.761  0.00  0.00    +0.000 A 
ATOM     12  C   UNL     1     112.959 127.264 140.650  0.00  0.00    +0.000 A 
ATOM     13  C   UNL     1     113.362 128.016 140.548  0.00  0.00    +0.000 A 
ENDROOT
BRANCH   6  17
ATOM     14  O   UNL     1     114.451 128.485 135.386  0.00  0.00    +0.000 OA
ATOM     15  O   UNL     1     111.697 129.244 135.458  0.00  0.00    +0.000 OA
ATOM     16  O   UNL     1     113.145 129.194 134.669  0.00  0.00    +0.000 OA
ATOM     17  C   UNL     1     112.932 128.205 136.928  0.00  0.00    +0.000 A 
ATOM     18  C   UNL     1     112.279 128.560 136.570  0.00  0.00    +0.000 A 
ATOM     19  C   UNL     1     113.656 128.180 136.534  0.00  0.00    +0.000 A 
ATOM     20  C   UNL     1     113.727 128.510 135.781  0.00  0.00    +0.000 A 
ATOM     21  C   UNL     1     112.351 128.889 135.817  0.00  0.00    +0.000 A 
ATOM     22  C   UNL     1     113.075 128.864 135.422  0.00  0.00    +0.000 A 
ENDBRANCH   6  17
BRANCH   5  23
ATOM     23  O   UNL     1     112.159 126.760 137.125  0.00  0.00    +0.000 OA
BRANCH  23  32
ATOM     24  O   UNL     1     113.184 125.765 137.077  0.00  0.00    +0.000 OA
ATOM     25  O   UNL     1     111.559 124.134 136.169  0.00  0.00    +0.000 OA
ATOM     26  O   UNL     1     113.124 123.684 136.425  0.00  0.00    +0.000 OA
ATOM     27  O   UNL     1     111.076 125.673 136.519  0.00  0.00    +0.000 OA
ATOM     28  C   UNL     1     112.100 124.678 136.472  0.00  0.00    +0.000 C 
ATOM     29  C   UNL     1     112.884 124.453 136.600  0.00  0.00    +0.000 C 
ATOM     30  C   UNL     1     111.859 125.448 136.647  0.00  0.00    +0.000 C 
ATOM     31  C   UNL     1     113.425 124.997 136.903  0.00  0.00    +0.000 C 
ATOM     32  C   UNL     1     112.401 125.991 136.950  0.00  0.00    +0.000 C 
BRANCH  31  34
ATOM     33  O   UNL     1     114.819 125.150 136.625  0.00  0.00    +0.000 OA
ATOM     34  C   UNL     1     114.208 124.771 137.030  0.00  0.00    +0.000 C 
ENDBRANCH  31  34
ENDBRANCH  23  32
ENDBRANCH   5  23
TORSDOF 4
ENDMDL
