MODEL 1
REMARK VINA RESULT:      -8.9      0.000      0.000
REMARK  Name = 13942681
REMARK  3 active torsions:
REMARK  status: ('A' for Active; 'I' for Inactive)
REMARK    1  A    between atoms: O_2  and  C_13
REMARK    2  A    between atoms: O_3  and  C_15
REMARK    3  A    between atoms: C_9  and  C_11
REMARK                            x       y       z     vdW  Elec       q    Type
REMARK                         _______ _______ _______ _____ _____    ______ ____
ROOT
ATOM      1  O   UNL     1     105.554 124.416 147.786  0.00  0.00    +0.000 OA
ATOM      2  O   UNL     1     108.066 125.585 146.964  0.00  0.00    +0.000 OA
ATOM      3  O   UNL     1     106.921 125.586 146.087  0.00  0.00    +0.000 OA
ATOM      4  O   UNL     1     107.822 124.376 149.612  0.00  0.00    +0.000 OA
ATOM      5  C   UNL     1     105.222 124.618 147.058  0.00  0.00    +0.000 A 
ATOM      6  C   UNL     1     106.796 124.994 147.381  0.00  0.00    +0.000 A 
ATOM      7  C   UNL     1     106.341 124.603 147.947  0.00  0.00    +0.000 A 
ATOM      8  C   UNL     1     105.678 125.008 146.492  0.00  0.00    +0.000 A 
ATOM      9  C   UNL     1     106.466 125.196 146.653  0.00  0.00    +0.000 A 
ATOM     10  C   UNL     1     107.618 125.195 147.537  0.00  0.00    +0.000 A 
ATOM     11  C   UNL     1     106.675 124.387 148.709  0.00  0.00    +0.000 A 
ATOM     12  C   UNL     1     107.494 124.580 148.883  0.00  0.00    +0.000 A 
ATOM     13  C   UNL     1     107.968 124.987 148.293  0.00  0.00    +0.000 A 
ENDROOT
BRANCH   5  16
ATOM     14  O   UNL     1     103.289 122.971 145.747  0.00  0.00    +0.000 OA
ATOM     15  O   UNL     1     102.074 123.868 146.412  0.00  0.00    +0.000 OA
ATOM     16  C   UNL     1     104.436 124.431 146.897  0.00  0.00    +0.000 A 
ATOM     17  C   UNL     1     103.829 124.879 147.229  0.00  0.00    +0.000 A 
ATOM     18  C   UNL     1     104.256 123.795 146.402  0.00  0.00    +0.000 A 
ATOM     19  C   UNL     1     103.041 124.691 147.067  0.00  0.00    +0.000 A 
ATOM     20  C   UNL     1     103.469 123.607 146.241  0.00  0.00    +0.000 A 
ATOM     21  C   UNL     1     102.862 124.055 146.573  0.00  0.00    +0.000 A 
BRANCH  17  22
ATOM     22  O   UNL     1     104.007 125.515 147.723  0.00  0.00    +0.000 OA
ATOM     23  C   UNL     1     103.401 125.938 148.087  0.00  0.00    +0.000 C 
ENDBRANCH  17  22
ENDBRANCH   5  16
BRANCH   8  24
ATOM     24  O   UNL     1     105.347 125.211 145.764  0.00  0.00    +0.000 OA
ATOM     25  C   UNL     1     105.833 125.449 145.141  0.00  0.00    +0.000 C 
ENDBRANCH   8  24
TORSDOF 3
ENDMDL
MODEL 2
REMARK VINA RESULT:      -8.1      0.774      4.169
REMARK  Name = 13942681
REMARK  3 active torsions:
REMARK  status: ('A' for Active; 'I' for Inactive)
REMARK    1  A    between atoms: O_2  and  C_13
REMARK    2  A    between atoms: O_3  and  C_15
REMARK    3  A    between atoms: C_9  and  C_11
REMARK                            x       y       z     vdW  Elec       q    Type
REMARK                         _______ _______ _______ _____ _____    ______ ____
ROOT
ATOM      1  O   UNL     1     104.875 124.173 146.730  0.00  0.00    +0.000 OA
ATOM      2  O   UNL     1     102.132 124.673 147.489  0.00  0.00    +0.000 OA
ATOM      3  O   UNL     1     103.221 125.364 148.134  0.00  0.00    +0.000 OA
ATOM      4  O   UNL     1     102.728 122.740 145.383  0.00  0.00    +0.000 OA
ATOM      5  C   UNL     1     105.130 124.721 147.292  0.00  0.00    +0.000 A 
ATOM      6  C   UNL     1     103.519 124.419 147.104  0.00  0.00    +0.000 A 
ATOM      7  C   UNL     1     104.070 124.022 146.636  0.00  0.00    +0.000 A 
ATOM      8  C   UNL     1     104.579 125.118 147.760  0.00  0.00    +0.000 A 
ATOM      9  C   UNL     1     103.772 124.967 147.666  0.00  0.00    +0.000 A 
ATOM     10  C   UNL     1     102.676 124.271 147.016  0.00  0.00    +0.000 A 
ATOM     11  C   UNL     1     103.817 123.449 146.047  0.00  0.00    +0.000 A 
ATOM     12  C   UNL     1     102.980 123.288 145.945  0.00  0.00    +0.000 A 
ATOM     13  C   UNL     1     102.405 123.702 146.433  0.00  0.00    +0.000 A 
ENDROOT
BRANCH   5  16
ATOM     14  O   UNL     1     107.548 124.414 148.784  0.00  0.00    +0.000 OA
ATOM     15  O   UNL     1     108.352 125.325 147.668  0.00  0.00    +0.000 OA
ATOM     16  C   UNL     1     105.935 124.872 147.386  0.00  0.00    +0.000 A 
ATOM     17  C   UNL     1     106.337 125.328 146.828  0.00  0.00    +0.000 A 
ATOM     18  C   UNL     1     106.339 124.567 148.038  0.00  0.00    +0.000 A 
ATOM     19  C   UNL     1     107.143 125.479 146.922  0.00  0.00    +0.000 A 
ATOM     20  C   UNL     1     107.144 124.718 148.132  0.00  0.00    +0.000 A 
ATOM     21  C   UNL     1     107.546 125.174 147.574  0.00  0.00    +0.000 A 
BRANCH  17  22
ATOM     22  O   UNL     1     105.934 125.633 146.176  0.00  0.00    +0.000 OA
ATOM     23  C   UNL     1     106.338 126.076 145.611  0.00  0.00    +0.000 C 
ENDBRANCH  17  22
ENDBRANCH   5  16
BRANCH   8  24
ATOM     24  O   UNL     1     104.832 125.666 148.322  0.00  0.00    +0.000 OA
ATOM     25  C   UNL     1     104.301 125.961 148.880  0.00  0.00    +0.000 C 
ENDBRANCH   8  24
TORSDOF 3
ENDMDL
MODEL 3
REMARK VINA RESULT:      -8.0     11.373     13.375
REMARK  Name = 13942681
REMARK  3 active torsions:
REMARK  status: ('A' for Active; 'I' for Inactive)
REMARK    1  A    between atoms: O_2  and  C_13
REMARK    2  A    between atoms: O_3  and  C_15
REMARK    3  A    between atoms: C_9  and  C_11
REMARK                            x       y       z     vdW  Elec       q    Type
REMARK                         _______ _______ _______ _____ _____    ______ ____
ROOT
ATOM      1  O   UNL     1     112.182 126.706 136.153  0.00  0.00    +0.000 OA
ATOM      2  O   UNL     1     109.856 125.689 134.773  0.00  0.00    +0.000 OA
ATOM      3  O   UNL     1     110.705 124.816 135.545  0.00  0.00    +0.000 OA
ATOM      4  O   UNL     1     110.515 128.530 134.612  0.00  0.00    +0.000 OA
ATOM      5  C   UNL     1     112.348 125.948 136.431  0.00  0.00    +0.000 A 
ATOM      6  C   UNL     1     111.032 126.205 135.470  0.00  0.00    +0.000 A 
ATOM      7  C   UNL     1     111.524 126.835 135.673  0.00  0.00    +0.000 A 
ATOM      8  C   UNL     1     111.856 125.317 136.229  0.00  0.00    +0.000 A 
ATOM      9  C   UNL     1     111.197 125.446 135.748  0.00  0.00    +0.000 A 
ATOM     10  C   UNL     1     110.342 126.326 134.970  0.00  0.00    +0.000 A 
ATOM     11  C   UNL     1     111.362 127.630 135.389  0.00  0.00    +0.000 A 
ATOM     12  C   UNL     1     110.678 127.770 134.889  0.00  0.00    +0.000 A 
ATOM     13  C   UNL     1     110.165 127.114 134.678  0.00  0.00    +0.000 A 
ENDROOT
BRANCH   5  16
ATOM     14  O   UNL     1     115.037 125.032 136.754  0.00  0.00    +0.000 OA
ATOM     15  O   UNL     1     114.981 125.432 138.354  0.00  0.00    +0.000 OA
ATOM     16  C   UNL     1     113.006 125.819 136.911  0.00  0.00    +0.000 A 
ATOM     17  C   UNL     1     112.978 126.019 137.711  0.00  0.00    +0.000 A 
ATOM     18  C   UNL     1     113.692 125.490 136.592  0.00  0.00    +0.000 A 
ATOM     19  C   UNL     1     113.637 125.890 138.192  0.00  0.00    +0.000 A 
ATOM     20  C   UNL     1     114.350 125.361 137.072  0.00  0.00    +0.000 A 
ATOM     21  C   UNL     1     114.322 125.561 137.872  0.00  0.00    +0.000 A 
BRANCH  17  22
ATOM     22  O   UNL     1     112.292 126.347 138.031  0.00  0.00    +0.000 OA
ATOM     23  C   UNL     1     112.280 126.590 138.818  0.00  0.00    +0.000 C 
ENDBRANCH  17  22
ENDBRANCH   5  16
BRANCH   8  24
ATOM     24  O   UNL     1     112.021 124.558 136.506  0.00  0.00    +0.000 OA
ATOM     25  C   UNL     1     111.641 123.905 136.174  0.00  0.00    +0.000 C 
ENDBRANCH   8  24
TORSDOF 3
ENDMDL
MODEL 4
REMARK VINA RESULT:      -7.9      1.147      4.127
REMARK  Name = 13942681
REMARK  3 active torsions:
REMARK  status: ('A' for Active; 'I' for Inactive)
REMARK    1  A    between atoms: O_2  and  C_13
REMARK    2  A    between atoms: O_3  and  C_15
REMARK    3  A    between atoms: C_9  and  C_11
REMARK                            x       y       z     vdW  Elec       q    Type
REMARK                         _______ _______ _______ _____ _____    ______ ____
ROOT
ATOM      1  O   UNL     1     103.617 124.870 147.094  0.00  0.00    +0.000 OA
ATOM      2  O   UNL     1     101.598 122.825 146.789  0.00  0.00    +0.000 OA
ATOM      3  O   UNL     1     102.856 122.740 146.089  0.00  0.00    +0.000 OA
ATOM      4  O   UNL     1     101.100 125.109 148.540  0.00  0.00    +0.000 OA
ATOM      5  C   UNL     1     104.109 124.461 146.574  0.00  0.00    +0.000 A 
ATOM      6  C   UNL     1     102.618 123.860 146.944  0.00  0.00    +0.000 A 
ATOM      7  C   UNL     1     102.872 124.570 147.280  0.00  0.00    +0.000 A 
ATOM      8  C   UNL     1     103.856 123.751 146.239  0.00  0.00    +0.000 A 
ATOM      9  C   UNL     1     103.110 123.450 146.424  0.00  0.00    +0.000 A 
ATOM     10  C   UNL     1     101.843 123.536 147.129  0.00  0.00    +0.000 A 
ATOM     11  C   UNL     1     102.368 125.006 147.823  0.00  0.00    +0.000 A 
ATOM     12  C   UNL     1     101.590 124.698 148.020  0.00  0.00    +0.000 A 
ATOM     13  C   UNL     1     101.326 123.958 147.670  0.00  0.00    +0.000 A 
ENDROOT
BRANCH   5  16
ATOM     14  O   UNL     1     105.863 125.774 144.739  0.00  0.00    +0.000 OA
ATOM     15  O   UNL     1     107.093 125.663 145.834  0.00  0.00    +0.000 OA
ATOM     16  C   UNL     1     104.855 124.761 146.389  0.00  0.00    +0.000 A 
ATOM     17  C   UNL     1     105.469 124.705 146.936  0.00  0.00    +0.000 A 
ATOM     18  C   UNL     1     104.986 125.118 145.656  0.00  0.00    +0.000 A 
ATOM     19  C   UNL     1     106.216 125.006 146.751  0.00  0.00    +0.000 A 
ATOM     20  C   UNL     1     105.731 125.418 145.471  0.00  0.00    +0.000 A 
ATOM     21  C   UNL     1     106.346 125.362 146.019  0.00  0.00    +0.000 A 
BRANCH  17  22
ATOM     22  O   UNL     1     105.339 124.350 147.669  0.00  0.00    +0.000 OA
ATOM     23  C   UNL     1     105.931 124.355 148.242  0.00  0.00    +0.000 C 
ENDBRANCH  17  22
ENDBRANCH   5  16
BRANCH   8  24
ATOM     24  O   UNL     1     104.348 123.341 145.718  0.00  0.00    +0.000 OA
ATOM     25  C   UNL     1     104.034 122.758 145.227  0.00  0.00    +0.000 C 
ENDBRANCH   8  24
TORSDOF 3
ENDMDL
MODEL 5
REMARK VINA RESULT:      -7.8     11.743     13.207
REMARK  Name = 13942681
REMARK  3 active torsions:
REMARK  status: ('A' for Active; 'I' for Inactive)
REMARK    1  A    between atoms: O_2  and  C_13
REMARK    2  A    between atoms: O_3  and  C_15
REMARK    3  A    between atoms: C_9  and  C_11
REMARK                            x       y       z     vdW  Elec       q    Type
REMARK                         _______ _______ _______ _____ _____    ______ ____
ROOT
ATOM      1  O   UNL     1     113.016 126.620 136.612  0.00  0.00    +0.000 OA
ATOM      2  O   UNL     1     112.344 123.818 136.389  0.00  0.00    +0.000 OA
ATOM      3  O   UNL     1     111.411 124.842 135.988  0.00  0.00    +0.000 OA
ATOM      4  O   UNL     1     114.951 124.608 137.442  0.00  0.00    +0.000 OA
ATOM      5  C   UNL     1     112.277 126.821 136.306  0.00  0.00    +0.000 A 
ATOM      6  C   UNL     1     112.685 125.235 136.503  0.00  0.00    +0.000 A 
ATOM      7  C   UNL     1     113.220 125.827 136.711  0.00  0.00    +0.000 A 
ATOM      8  C   UNL     1     111.742 126.229 136.098  0.00  0.00    +0.000 A 
ATOM      9  C   UNL     1     111.946 125.435 136.196  0.00  0.00    +0.000 A 
ATOM     10  C   UNL     1     112.886 124.404 136.600  0.00  0.00    +0.000 A 
ATOM     11  C   UNL     1     113.993 125.631 137.031  0.00  0.00    +0.000 A 
ATOM     12  C   UNL     1     114.211 124.806 137.136  0.00  0.00    +0.000 A 
ATOM     13  C   UNL     1     113.654 124.189 136.919  0.00  0.00    +0.000 A 
ENDROOT
BRANCH   5  16
ATOM     14  O   UNL     1     111.939 129.099 134.612  0.00  0.00    +0.000 OA
ATOM     15  O   UNL     1     111.460 129.994 135.912  0.00  0.00    +0.000 OA
ATOM     16  C   UNL     1     112.073 127.614 136.207  0.00  0.00    +0.000 A 
ATOM     17  C   UNL     1     111.833 128.062 136.857  0.00  0.00    +0.000 A 
ATOM     18  C   UNL     1     112.108 127.960 135.459  0.00  0.00    +0.000 A 
ATOM     19  C   UNL     1     111.628 128.856 136.759  0.00  0.00    +0.000 A 
ATOM     20  C   UNL     1     111.904 128.753 135.361  0.00  0.00    +0.000 A 
ATOM     21  C   UNL     1     111.664 129.201 136.011  0.00  0.00    +0.000 A 
BRANCH  17  22
ATOM     22  O   UNL     1     111.797 127.717 137.606  0.00  0.00    +0.000 OA
ATOM     23  C   UNL     1     111.587 128.172 138.260  0.00  0.00    +0.000 C 
ENDBRANCH  17  22
ENDBRANCH   5  16
BRANCH   8  24
ATOM     24  O   UNL     1     111.003 126.429 135.791  0.00  0.00    +0.000 OA
ATOM     25  C   UNL     1     110.558 125.866 135.384  0.00  0.00    +0.000 C 
ENDBRANCH   8  24
TORSDOF 3
ENDMDL
MODEL 6
REMARK VINA RESULT:      -7.8      1.219      2.666
REMARK  Name = 13942681
REMARK  3 active torsions:
REMARK  status: ('A' for Active; 'I' for Inactive)
REMARK    1  A    between atoms: O_2  and  C_13
REMARK    2  A    between atoms: O_3  and  C_15
REMARK    3  A    between atoms: C_9  and  C_11
REMARK                            x       y       z     vdW  Elec       q    Type
REMARK                         _______ _______ _______ _____ _____    ______ ____
ROOT
ATOM      1  O   UNL     1     106.698 125.061 147.016  0.00  0.00    +0.000 OA
ATOM      2  O   UNL     1     105.387 124.553 149.541  0.00  0.00    +0.000 OA
ATOM      3  O   UNL     1     104.626 124.861 148.355  0.00  0.00    +0.000 OA
ATOM      4  O   UNL     1     108.301 124.446 149.368  0.00  0.00    +0.000 OA
ATOM      5  C   UNL     1     105.963 125.179 146.659  0.00  0.00    +0.000 A 
ATOM      6  C   UNL     1     106.051 124.810 148.265  0.00  0.00    +0.000 A 
ATOM      7  C   UNL     1     106.742 124.876 147.818  0.00  0.00    +0.000 A 
ATOM      8  C   UNL     1     105.273 125.113 147.105  0.00  0.00    +0.000 A 
ATOM      9  C   UNL     1     105.317 124.928 147.909  0.00  0.00    +0.000 A 
ATOM     10  C   UNL     1     106.083 124.618 149.103  0.00  0.00    +0.000 A 
ATOM     11  C   UNL     1     107.513 124.756 148.179  0.00  0.00    +0.000 A 
ATOM     12  C   UNL     1     107.565 124.563 149.014  0.00  0.00    +0.000 A 
ATOM     13  C   UNL     1     106.845 124.494 149.479  0.00  0.00    +0.000 A 
ENDROOT
BRANCH   5  16
ATOM     14  O   UNL     1     105.422 124.395 143.965  0.00  0.00    +0.000 OA
ATOM     15  O   UNL     1     105.787 125.919 143.448  0.00  0.00    +0.000 OA
ATOM     16  C   UNL     1     105.919 125.364 145.857  0.00  0.00    +0.000 A 
ATOM     17  C   UNL     1     106.102 126.126 145.598  0.00  0.00    +0.000 A 
ATOM     18  C   UNL     1     105.693 124.787 145.312  0.00  0.00    +0.000 A 
ATOM     19  C   UNL     1     106.058 126.311 144.795  0.00  0.00    +0.000 A 
ATOM     20  C   UNL     1     105.648 124.972 144.510  0.00  0.00    +0.000 A 
ATOM     21  C   UNL     1     105.831 125.734 144.251  0.00  0.00    +0.000 A 
BRANCH  17  22
ATOM     22  O   UNL     1     106.329 126.703 146.142  0.00  0.00    +0.000 OA
ATOM     23  C   UNL     1     106.539 127.456 145.881  0.00  0.00    +0.000 C 
ENDBRANCH  17  22
ENDBRANCH   5  16
BRANCH   8  24
ATOM     24  O   UNL     1     104.538 125.230 146.750  0.00  0.00    +0.000 OA
ATOM     25  C   UNL     1     103.850 124.979 147.129  0.00  0.00    +0.000 C 
ENDBRANCH   8  24
TORSDOF 3
ENDMDL
MODEL 7
REMARK VINA RESULT:      -7.7     11.389     13.339
REMARK  Name = 13942681
REMARK  3 active torsions:
REMARK  status: ('A' for Active; 'I' for Inactive)
REMARK    1  A    between atoms: O_2  and  C_13
REMARK    2  A    between atoms: O_3  and  C_15
REMARK    3  A    between atoms: C_9  and  C_11
REMARK                            x       y       z     vdW  Elec       q    Type
REMARK                         _______ _______ _______ _____ _____    ______ ____
ROOT
ATOM      1  O   UNL     1     113.346 127.116 136.195  0.00  0.00    +0.000 OA
ATOM      2  O   UNL     1     113.015 129.620 137.598  0.00  0.00    +0.000 OA
ATOM      3  O   UNL     1     112.387 128.412 138.073  0.00  0.00    +0.000 OA
ATOM      4  O   UNL     1     114.645 129.515 135.177  0.00  0.00    +0.000 OA
ATOM      5  C   UNL     1     112.869 126.740 136.754  0.00  0.00    +0.000 A 
ATOM      6  C   UNL     1     113.183 128.355 136.887  0.00  0.00    +0.000 A 
ATOM      7  C   UNL     1     113.503 127.923 136.261  0.00  0.00    +0.000 A 
ATOM      8  C   UNL     1     112.549 127.172 137.380  0.00  0.00    +0.000 A 
ATOM      9  C   UNL     1     112.706 127.980 137.447  0.00  0.00    +0.000 A 
ATOM     10  C   UNL     1     113.339 129.197 136.969  0.00  0.00    +0.000 A 
ATOM     11  C   UNL     1     114.001 128.302 135.673  0.00  0.00    +0.000 A 
ATOM     12  C   UNL     1     114.168 129.143 135.737  0.00  0.00    +0.000 A 
ATOM     13  C   UNL     1     113.835 129.593 136.390  0.00  0.00    +0.000 A 
ENDROOT
BRANCH   5  16
ATOM     14  O   UNL     1     111.105 124.614 136.023  0.00  0.00    +0.000 OA
ATOM     15  O   UNL     1     112.241 123.511 136.487  0.00  0.00    +0.000 OA
ATOM     16  C   UNL     1     112.712 125.934 136.687  0.00  0.00    +0.000 A 
ATOM     17  C   UNL     1     113.280 125.383 136.919  0.00  0.00    +0.000 A 
ATOM     18  C   UNL     1     111.987 125.677 136.388  0.00  0.00    +0.000 A 
ATOM     19  C   UNL     1     113.123 124.575 136.853  0.00  0.00    +0.000 A 
ATOM     20  C   UNL     1     111.830 124.871 136.321  0.00  0.00    +0.000 A 
ATOM     21  C   UNL     1     112.398 124.319 136.554  0.00  0.00    +0.000 A 
BRANCH  17  22
ATOM     22  O   UNL     1     114.005 125.638 137.218  0.00  0.00    +0.000 OA
ATOM     23  C   UNL     1     114.585 125.088 137.420  0.00  0.00    +0.000 C 
ENDBRANCH  17  22
ENDBRANCH   5  16
BRANCH   8  24
ATOM     24  O   UNL     1     112.073 126.798 137.939  0.00  0.00    +0.000 OA
ATOM     25  C   UNL     1     111.592 127.245 138.438  0.00  0.00    +0.000 C 
ENDBRANCH   8  24
TORSDOF 3
ENDMDL
MODEL 8
REMARK VINA RESULT:      -7.6      1.078      3.983
REMARK  Name = 13942681
REMARK  3 active torsions:
REMARK  status: ('A' for Active; 'I' for Inactive)
REMARK    1  A    between atoms: O_2  and  C_13
REMARK    2  A    between atoms: O_3  and  C_15
REMARK    3  A    between atoms: C_9  and  C_11
REMARK                            x       y       z     vdW  Elec       q    Type
REMARK                         _______ _______ _______ _____ _____    ______ ____
ROOT
ATOM      1  O   UNL     1     104.893 125.605 148.419  0.00  0.00    +0.000 OA
ATOM      2  O   UNL     1     102.377 124.560 147.455  0.00  0.00    +0.000 OA
ATOM      3  O   UNL     1     103.630 124.123 146.890  0.00  0.00    +0.000 OA
ATOM      4  O   UNL     1     102.403 126.533 149.609  0.00  0.00    +0.000 OA
ATOM      5  C   UNL     1     105.297 125.133 147.875  0.00  0.00    +0.000 A 
ATOM      6  C   UNL     1     103.649 125.089 147.943  0.00  0.00    +0.000 A 
ATOM      7  C   UNL     1     104.070 125.583 148.453  0.00  0.00    +0.000 A 
ATOM      8  C   UNL     1     104.876 124.640 147.365  0.00  0.00    +0.000 A 
ATOM      9  C   UNL     1     104.051 124.617 147.400  0.00  0.00    +0.000 A 
ATOM     10  C   UNL     1     102.790 125.057 147.969  0.00  0.00    +0.000 A 
ATOM     11  C   UNL     1     103.661 126.079 149.024  0.00  0.00    +0.000 A 
ATOM     12  C   UNL     1     102.803 126.060 149.064  0.00  0.00    +0.000 A 
ATOM     13  C   UNL     1     102.364 125.546 148.533  0.00  0.00    +0.000 A 
ENDROOT
BRANCH   5  16
ATOM     14  O   UNL     1     107.699 126.015 146.601  0.00  0.00    +0.000 OA
ATOM     15  O   UNL     1     108.593 125.221 147.738  0.00  0.00    +0.000 OA
ATOM     16  C   UNL     1     106.120 125.155 147.841  0.00  0.00    +0.000 A 
ATOM     17  C   UNL     1     106.567 124.758 148.409  0.00  0.00    +0.000 A 
ATOM     18  C   UNL     1     106.498 125.574 147.238  0.00  0.00    +0.000 A 
ATOM     19  C   UNL     1     107.392 124.780 148.375  0.00  0.00    +0.000 A 
ATOM     20  C   UNL     1     107.321 125.596 147.204  0.00  0.00    +0.000 A 
ATOM     21  C   UNL     1     107.768 125.199 147.772  0.00  0.00    +0.000 A 
BRANCH  17  22
ATOM     22  O   UNL     1     106.191 124.339 149.012  0.00  0.00    +0.000 OA
ATOM     23  C   UNL     1     106.636 123.991 149.612  0.00  0.00    +0.000 C 
ENDBRANCH  17  22
ENDBRANCH   5  16
BRANCH   8  24
ATOM     24  O   UNL     1     105.278 124.168 146.822  0.00  0.00    +0.000 OA
ATOM     25  C   UNL     1     104.892 123.895 146.145  0.00  0.00    +0.000 C 
ENDBRANCH   8  24
TORSDOF 3
ENDMDL
MODEL 9
REMARK VINA RESULT:      -7.6     12.398     13.782
REMARK  Name = 13942681
REMARK  3 active torsions:
REMARK  status: ('A' for Active; 'I' for Inactive)
REMARK    1  A    between atoms: O_2  and  C_13
REMARK    2  A    between atoms: O_3  and  C_15
REMARK    3  A    between atoms: C_9  and  C_11
REMARK                            x       y       z     vdW  Elec       q    Type
REMARK                         _______ _______ _______ _____ _____    ______ ____
ROOT
ATOM      1  O   UNL     1     111.803 127.351 135.707  0.00  0.00    +0.000 OA
ATOM      2  O   UNL     1     111.521 124.529 136.264  0.00  0.00    +0.000 OA
ATOM      3  O   UNL     1     112.632 125.285 136.788  0.00  0.00    +0.000 OA
ATOM      4  O   UNL     1     109.533 125.891 134.612  0.00  0.00    +0.000 OA
ATOM      5  C   UNL     1     112.497 127.369 136.153  0.00  0.00    +0.000 A 
ATOM      6  C   UNL     1     111.663 125.956 135.981  0.00  0.00    +0.000 A 
ATOM      7  C   UNL     1     111.386 126.645 135.621  0.00  0.00    +0.000 A 
ATOM      8  C   UNL     1     112.773 126.681 136.514  0.00  0.00    +0.000 A 
ATOM      9  C   UNL     1     112.356 125.973 136.428  0.00  0.00    +0.000 A 
ATOM     10  C   UNL     1     111.237 125.213 135.899  0.00  0.00    +0.000 A 
ATOM     11  C   UNL     1     110.665 126.639 135.153  0.00  0.00    +0.000 A 
ATOM     12  C   UNL     1     110.227 125.906 135.060  0.00  0.00    +0.000 A 
ATOM     13  C   UNL     1     110.515 125.188 135.435  0.00  0.00    +0.000 A 
ENDROOT
BRANCH   5  16
ATOM     14  O   UNL     1     114.683 129.058 135.421  0.00  0.00    +0.000 OA
ATOM     15  O   UNL     1     114.165 130.196 136.498  0.00  0.00    +0.000 OA
ATOM     16  C   UNL     1     112.914 128.075 136.239  0.00  0.00    +0.000 A 
ATOM     17  C   UNL     1     112.655 128.644 136.778  0.00  0.00    +0.000 A 
ATOM     18  C   UNL     1     113.590 128.214 135.787  0.00  0.00    +0.000 A 
ATOM     19  C   UNL     1     113.072 129.351 136.864  0.00  0.00    +0.000 A 
ATOM     20  C   UNL     1     114.007 128.920 135.873  0.00  0.00    +0.000 A 
ATOM     21  C   UNL     1     113.748 129.488 136.412  0.00  0.00    +0.000 A 
BRANCH  17  22
ATOM     22  O   UNL     1     111.979 128.507 137.231  0.00  0.00    +0.000 OA
ATOM     23  C   UNL     1     111.700 129.089 137.743  0.00  0.00    +0.000 C 
ENDBRANCH  17  22
ENDBRANCH   5  16
BRANCH   8  24
ATOM     24  O   UNL     1     113.466 126.698 136.961  0.00  0.00    +0.000 OA
ATOM     25  C   UNL     1     113.863 125.996 137.135  0.00  0.00    +0.000 C 
ENDBRANCH   8  24
TORSDOF 3
ENDMDL
MODEL 10
REMARK VINA RESULT:      -7.6      1.312      3.985
REMARK  Name = 13942681
REMARK  3 active torsions:
REMARK  status: ('A' for Active; 'I' for Inactive)
REMARK    1  A    between atoms: O_2  and  C_13
REMARK    2  A    between atoms: O_3  and  C_15
REMARK    3  A    between atoms: C_9  and  C_11
REMARK                            x       y       z     vdW  Elec       q    Type
REMARK                         _______ _______ _______ _____ _____    ______ ____
ROOT
ATOM      1  O   UNL     1     103.517 124.045 147.455  0.00  0.00    +0.000 OA
ATOM      2  O   UNL     1     102.701 122.991 144.892  0.00  0.00    +0.000 OA
ATOM      3  O   UNL     1     103.976 123.643 145.056  0.00  0.00    +0.000 OA
ATOM      4  O   UNL     1     100.927 122.739 147.198  0.00  0.00    +0.000 OA
ATOM      5  C   UNL     1     104.229 124.299 147.123  0.00  0.00    +0.000 A 
ATOM      6  C   UNL     1     103.113 123.523 146.188  0.00  0.00    +0.000 A 
ATOM      7  C   UNL     1     102.960 123.657 146.988  0.00  0.00    +0.000 A 
ATOM      8  C   UNL     1     104.382 124.165 146.324  0.00  0.00    +0.000 A 
ATOM      9  C   UNL     1     103.823 123.777 145.856  0.00  0.00    +0.000 A 
ATOM     10  C   UNL     1     102.539 123.120 145.690  0.00  0.00    +0.000 A 
ATOM     11  C   UNL     1     102.222 123.397 147.345  0.00  0.00    +0.000 A 
ATOM     12  C   UNL     1     101.637 122.992 146.864  0.00  0.00    +0.000 A 
ATOM     13  C   UNL     1     101.797 122.853 146.030  0.00  0.00    +0.000 A 
ENDROOT
BRANCH   5  16
ATOM     14  O   UNL     1     106.704 124.280 148.552  0.00  0.00    +0.000 OA
ATOM     15  O   UNL     1     106.462 125.852 148.993  0.00  0.00    +0.000 OA
ATOM     16  C   UNL     1     104.787 124.687 147.590  0.00  0.00    +0.000 A 
ATOM     17  C   UNL     1     104.666 125.473 147.811  0.00  0.00    +0.000 A 
ATOM     18  C   UNL     1     105.467 124.290 147.838  0.00  0.00    +0.000 A 
ATOM     19  C   UNL     1     105.224 125.861 148.278  0.00  0.00    +0.000 A 
ATOM     20  C   UNL     1     106.024 124.678 148.305  0.00  0.00    +0.000 A 
ATOM     21  C   UNL     1     105.903 125.463 148.525  0.00  0.00    +0.000 A 
BRANCH  17  22
ATOM     22  O   UNL     1     103.987 125.871 147.564  0.00  0.00    +0.000 OA
ATOM     23  C   UNL     1     103.851 126.646 147.809  0.00  0.00    +0.000 C 
ENDBRANCH  17  22
ENDBRANCH   5  16
BRANCH   8  24
ATOM     24  O   UNL     1     105.093 124.419 145.991  0.00  0.00    +0.000 OA
ATOM     25  C   UNL     1     105.224 124.333 145.181  0.00  0.00    +0.000 C 
ENDBRANCH   8  24
TORSDOF 3
ENDMDL
