MODEL 1
REMARK VINA RESULT:     -11.2      0.000      0.000
REMARK  Name = 73822546
REMARK  9 active torsions:
REMARK  status: ('A' for Active; 'I' for Inactive)
REMARK    1  A    between atoms: O_2  and  C_26
REMARK    2  A    between atoms: O_2  and  C_30
REMARK    3  A    between atoms: O_5  and  C_29
REMARK    4  A    between atoms: O_5  and  C_39
REMARK    5  A    between atoms: O_12  and  C_37
REMARK    6  A    between atoms: O_12  and  C_41
REMARK    7  A    between atoms: O_18  and  C_45
REMARK    8  A    between atoms: C_21  and  C_30
REMARK    9  A    between atoms: C_40  and  C_43
REMARK                            x       y       z     vdW  Elec       q    Type
REMARK                         _______ _______ _______ _____ _____    ______ ____
ROOT
ATOM      1  O   UNL     1     110.401 129.271 137.469  0.00  0.00    +0.000 OA
ATOM      2  O   UNL     1     111.748 129.868 135.480  0.00  0.00    +0.000 OA
ATOM      3  O   UNL     1     110.616 129.651 134.613  0.00  0.00    +0.000 OA
ATOM      4  O   UNL     1     108.073 128.813 135.780  0.00  0.00    +0.000 OA
ATOM      5  C   UNL     1     111.643 129.681 136.893  0.00  0.00    +0.000 A 
ATOM      6  C   UNL     1     111.195 129.482 137.556  0.00  0.00    +0.000 A 
ATOM      7  C   UNL     1     111.299 129.669 136.143  0.00  0.00    +0.000 A 
ATOM      8  C   UNL     1     110.506 129.459 136.056  0.00  0.00    +0.000 A 
ATOM      9  C   UNL     1     110.058 129.259 136.719  0.00  0.00    +0.000 A 
ATOM     10  C   UNL     1     110.159 129.450 135.270  0.00  0.00    +0.000 A 
ATOM     11  C   UNL     1     109.231 129.038 136.642  0.00  0.00    +0.000 A 
ATOM     12  C   UNL     1     109.334 129.232 135.173  0.00  0.00    +0.000 A 
ATOM     13  C   UNL     1     108.866 129.024 135.864  0.00  0.00    +0.000 A 
ENDROOT
BRANCH   6  15
ATOM     14  C   UNL     1     112.225 129.517 139.806  0.00  0.00    +0.000 A 
ATOM     15  C   UNL     1     111.538 129.493 138.306  0.00  0.00    +0.000 A 
ATOM     16  C   UNL     1     112.051 128.798 139.443  0.00  0.00    +0.000 A 
ATOM     17  C   UNL     1     112.055 130.226 139.418  0.00  0.00    +0.000 A 
ATOM     18  C   UNL     1     111.708 128.785 138.693  0.00  0.00    +0.000 A 
ATOM     19  C   UNL     1     111.712 130.214 138.668  0.00  0.00    +0.000 A 
BRANCH  16  20
ATOM     20  O   UNL     1     112.221 128.089 139.831  0.00  0.00    +0.000 OA
ATOM     21  C   UNL     1     111.745 127.426 139.707  0.00  0.00    +0.000 C 
ENDBRANCH  16  20
BRANCH  14  22
ATOM     22  O   UNL     1     112.569 129.530 140.556  0.00  0.00    +0.000 OA
BRANCH  22  31
ATOM     23  O   UNL     1     113.881 129.965 140.197  0.00  0.00    +0.000 OA
ATOM     24  O   UNL     1     113.904 131.499 142.139  0.00  0.00    +0.000 OA
ATOM     25  O   UNL     1     115.209 131.424 141.132  0.00  0.00    +0.000 OA
ATOM     26  O   UNL     1     112.584 130.552 141.851  0.00  0.00    +0.000 OA
ATOM     27  C   UNL     1     113.896 130.988 141.492  0.00  0.00    +0.000 C 
ATOM     28  C   UNL     1     114.548 130.950 140.988  0.00  0.00    +0.000 C 
ATOM     29  C   UNL     1     113.236 130.515 141.347  0.00  0.00    +0.000 C 
ATOM     30  C   UNL     1     114.541 130.439 140.341  0.00  0.00    +0.000 C 
ATOM     31  C   UNL     1     113.228 130.003 140.700  0.00  0.00    +0.000 C 
ATOM     32  C   UNL     1     115.194 130.401 139.837  0.00  0.00    +0.000 C 
ENDBRANCH  22  31
ENDBRANCH  14  22
ENDBRANCH   6  15
BRANCH   5  33
ATOM     33  O   UNL     1     112.436 129.892 136.980  0.00  0.00    +0.000 OA
BRANCH  33  42
ATOM     34  O   UNL     1     112.935 128.657 136.460  0.00  0.00    +0.000 OA
ATOM     35  O   UNL     1     114.777 128.200 135.383  0.00  0.00    +0.000 OA
ATOM     36  O   UNL     1     114.950 129.823 135.623  0.00  0.00    +0.000 OA
ATOM     37  O   UNL     1     113.780 130.669 136.422  0.00  0.00    +0.000 OA
ATOM     38  C   UNL     1     113.520 128.234 136.061  0.00  0.00    +0.000 C 
ATOM     39  C   UNL     1     114.191 128.623 135.782  0.00  0.00    +0.000 C 
ATOM     40  C   UNL     1     114.279 129.435 135.902  0.00  0.00    +0.000 C 
ATOM     41  C   UNL     1     113.694 129.858 136.301  0.00  0.00    +0.000 C 
ATOM     42  C   UNL     1     113.021 129.469 136.580  0.00  0.00    +0.000 C 
BRANCH  38  43
ATOM     43  C   UNL     1     113.432 127.423 135.941  0.00  0.00    +0.000 C 
BRANCH  43  44
ATOM     44  O   UNL     1     113.307 126.922 136.585  0.00  0.00    +0.000 OA
BRANCH  44  50
ATOM     45  O   UNL     1     112.122 126.248 136.158  0.00  0.00    +0.000 OA
ATOM     46  O   UNL     1     113.959 125.480 137.052  0.00  0.00    +0.000 OA
ATOM     47  O   UNL     1     113.099 124.085 136.858  0.00  0.00    +0.000 OA
ATOM     48  O   UNL     1     111.588 124.132 136.197  0.00  0.00    +0.000 OA
ATOM     49  C   UNL     1     113.204 125.504 136.722  0.00  0.00    +0.000 C 
ATOM     50  C   UNL     1     112.878 126.225 136.488  0.00  0.00    +0.000 C 
ATOM     51  C   UNL     1     112.773 124.806 136.625  0.00  0.00    +0.000 C 
ATOM     52  C   UNL     1     112.018 124.830 136.295  0.00  0.00    +0.000 C 
ATOM     53  C   UNL     1     111.692 125.551 136.061  0.00  0.00    +0.000 C 
ATOM     54  C   UNL     1     110.936 125.574 135.731  0.00  0.00    +0.000 C 
ENDBRANCH  44  50
ENDBRANCH  43  44
ENDBRANCH  38  43
ENDBRANCH  33  42
ENDBRANCH   5  33
TORSDOF 9
ENDMDL
MODEL 2
REMARK VINA RESULT:     -10.6      2.359      4.989
REMARK  Name = 73822546
REMARK  9 active torsions:
REMARK  status: ('A' for Active; 'I' for Inactive)
REMARK    1  A    between atoms: O_2  and  C_26
REMARK    2  A    between atoms: O_2  and  C_30
REMARK    3  A    between atoms: O_5  and  C_29
REMARK    4  A    between atoms: O_5  and  C_39
REMARK    5  A    between atoms: O_12  and  C_37
REMARK    6  A    between atoms: O_12  and  C_41
REMARK    7  A    between atoms: O_18  and  C_45
REMARK    8  A    between atoms: C_21  and  C_30
REMARK    9  A    between atoms: C_40  and  C_43
REMARK                            x       y       z     vdW  Elec       q    Type
REMARK                         _______ _______ _______ _____ _____    ______ ____
ROOT
ATOM      1  O   UNL     1     113.468 126.786 136.837  0.00  0.00    +0.000 OA
ATOM      2  O   UNL     1     111.586 125.412 136.004  0.00  0.00    +0.000 OA
ATOM      3  O   UNL     1     112.288 124.197 136.335  0.00  0.00    +0.000 OA
ATOM      4  O   UNL     1     114.946 124.375 137.533  0.00  0.00    +0.000 OA
ATOM      5  C   UNL     1     112.168 126.694 136.251  0.00  0.00    +0.000 A 
ATOM      6  C   UNL     1     112.795 127.152 136.529  0.00  0.00    +0.000 A 
ATOM      7  C   UNL     1     112.213 125.870 136.281  0.00  0.00    +0.000 A 
ATOM      8  C   UNL     1     112.885 125.505 136.589  0.00  0.00    +0.000 A 
ATOM      9  C   UNL     1     113.513 125.963 136.867  0.00  0.00    +0.000 A 
ATOM     10  C   UNL     1     112.920 124.647 136.615  0.00  0.00    +0.000 A 
ATOM     11  C   UNL     1     114.219 125.594 137.190  0.00  0.00    +0.000 A 
ATOM     12  C   UNL     1     113.618 124.261 136.935  0.00  0.00    +0.000 A 
ATOM     13  C   UNL     1     114.272 124.738 137.225  0.00  0.00    +0.000 A 
ENDROOT
BRANCH   6  15
ATOM     14  C   UNL     1     112.661 129.621 136.440  0.00  0.00    +0.000 A 
ATOM     15  C   UNL     1     112.751 127.975 136.499  0.00  0.00    +0.000 A 
ATOM     16  C   UNL     1     112.883 129.196 135.770  0.00  0.00    +0.000 A 
ATOM     17  C   UNL     1     112.484 129.223 137.141  0.00  0.00    +0.000 A 
ATOM     18  C   UNL     1     112.928 128.373 135.798  0.00  0.00    +0.000 A 
ATOM     19  C   UNL     1     112.529 128.400 137.171  0.00  0.00    +0.000 A 
BRANCH  16  20
ATOM     20  O   UNL     1     113.060 129.594 135.069  0.00  0.00    +0.000 OA
ATOM     21  C   UNL     1     113.713 129.366 134.618  0.00  0.00    +0.000 C 
ENDBRANCH  16  20
BRANCH  14  22
ATOM     22  O   UNL     1     112.616 130.445 136.411  0.00  0.00    +0.000 OA
BRANCH  22  31
ATOM     23  O   UNL     1     111.197 130.556 136.302  0.00  0.00    +0.000 OA
ATOM     24  O   UNL     1     111.233 132.517 137.811  0.00  0.00    +0.000 OA
ATOM     25  O   UNL     1     109.800 131.975 137.198  0.00  0.00    +0.000 OA
ATOM     26  O   UNL     1     112.641 131.752 137.418  0.00  0.00    +0.000 OA
ATOM     27  C   UNL     1     111.221 131.863 137.308  0.00  0.00    +0.000 C 
ATOM     28  C   UNL     1     110.505 131.592 137.001  0.00  0.00    +0.000 C 
ATOM     29  C   UNL     1     111.925 131.481 137.111  0.00  0.00    +0.000 C 
ATOM     30  C   UNL     1     110.492 130.939 136.498  0.00  0.00    +0.000 C 
ATOM     31  C   UNL     1     111.913 130.827 136.608  0.00  0.00    +0.000 C 
ATOM     32  C   UNL     1     109.776 130.667 136.192  0.00  0.00    +0.000 C 
ENDBRANCH  22  31
ENDBRANCH  14  22
ENDBRANCH   6  15
BRANCH   5  33
ATOM     33  O   UNL     1     111.496 127.059 135.943  0.00  0.00    +0.000 OA
BRANCH  33  42
ATOM     34  O   UNL     1     110.696 126.775 137.093  0.00  0.00    +0.000 OA
ATOM     35  O   UNL     1     108.542 126.493 137.303  0.00  0.00    +0.000 OA
ATOM     36  O   UNL     1     108.664 126.778 135.682  0.00  0.00    +0.000 OA
ATOM     37  O   UNL     1     110.140 127.061 135.002  0.00  0.00    +0.000 OA
ATOM     38  C   UNL     1     109.958 126.634 137.433  0.00  0.00    +0.000 C 
ATOM     39  C   UNL     1     109.281 126.635 136.963  0.00  0.00    +0.000 C 
ATOM     40  C   UNL     1     109.341 126.777 136.152  0.00  0.00    +0.000 C 
ATOM     41  C   UNL     1     110.079 126.918 135.812  0.00  0.00    +0.000 C 
ATOM     42  C   UNL     1     110.757 126.917 136.283  0.00  0.00    +0.000 C 
BRANCH  38  43
ATOM     43  C   UNL     1     109.898 126.491 138.244  0.00  0.00    +0.000 C 
BRANCH  43  44
ATOM     44  O   UNL     1     110.497 126.745 138.752  0.00  0.00    +0.000 OA
BRANCH  44  50
ATOM     45  O   UNL     1     109.681 126.994 139.899  0.00  0.00    +0.000 OA
ATOM     46  O   UNL     1     111.678 126.130 139.726  0.00  0.00    +0.000 OA
ATOM     47  O   UNL     1     111.454 126.072 141.359  0.00  0.00    +0.000 OA
ATOM     48  O   UNL     1     110.048 126.629 142.019  0.00  0.00    +0.000 OA
ATOM     49  C   UNL     1     110.976 126.408 140.055  0.00  0.00    +0.000 C 
ATOM     50  C   UNL     1     110.385 126.715 139.569  0.00  0.00    +0.000 C 
ATOM     51  C   UNL     1     110.863 126.379 140.872  0.00  0.00    +0.000 C 
ATOM     52  C   UNL     1     110.161 126.658 141.202  0.00  0.00    +0.000 C 
ATOM     53  C   UNL     1     109.570 126.965 140.715  0.00  0.00    +0.000 C 
ATOM     54  C   UNL     1     108.866 127.244 141.045  0.00  0.00    +0.000 C 
ENDBRANCH  44  50
ENDBRANCH  43  44
ENDBRANCH  38  43
ENDBRANCH  33  42
ENDBRANCH   5  33
TORSDOF 9
ENDMDL
MODEL 3
REMARK VINA RESULT:     -10.6      1.708      6.263
REMARK  Name = 73822546
REMARK  9 active torsions:
REMARK  status: ('A' for Active; 'I' for Inactive)
REMARK    1  A    between atoms: O_2  and  C_26
REMARK    2  A    between atoms: O_2  and  C_30
REMARK    3  A    between atoms: O_5  and  C_29
REMARK    4  A    between atoms: O_5  and  C_39
REMARK    5  A    between atoms: O_12  and  C_37
REMARK    6  A    between atoms: O_12  and  C_41
REMARK    7  A    between atoms: O_18  and  C_45
REMARK    8  A    between atoms: C_21  and  C_30
REMARK    9  A    between atoms: C_40  and  C_43
REMARK                            x       y       z     vdW  Elec       q    Type
REMARK                         _______ _______ _______ _____ _____    ______ ____
ROOT
ATOM      1  O   UNL     1     113.792 129.240 139.582  0.00  0.00    +0.000 OA
ATOM      2  O   UNL     1     112.031 129.062 141.312  0.00  0.00    +0.000 OA
ATOM      3  O   UNL     1     112.592 130.174 142.039  0.00  0.00    +0.000 OA
ATOM      4  O   UNL     1     114.979 131.493 140.994  0.00  0.00    +0.000 OA
ATOM      5  C   UNL     1     112.623 128.598 140.097  0.00  0.00    +0.000 A 
ATOM      6  C   UNL     1     113.210 128.658 139.521  0.00  0.00    +0.000 A 
ATOM      7  C   UNL     1     112.618 129.121 140.735  0.00  0.00    +0.000 A 
ATOM      8  C   UNL     1     113.199 129.703 140.797  0.00  0.00    +0.000 A 
ATOM      9  C   UNL     1     113.786 129.762 140.220  0.00  0.00    +0.000 A 
ATOM     10  C   UNL     1     113.182 130.242 141.467  0.00  0.00    +0.000 A 
ATOM     11  C   UNL     1     114.397 130.365 140.273  0.00  0.00    +0.000 A 
ATOM     12  C   UNL     1     113.785 130.850 141.536  0.00  0.00    +0.000 A 
ATOM     13  C   UNL     1     114.397 130.912 140.935  0.00  0.00    +0.000 A 
ENDROOT
BRANCH   6  15
ATOM     14  C   UNL     1     113.229 127.089 137.606  0.00  0.00    +0.000 A 
ATOM     15  C   UNL     1     113.216 128.135 138.882  0.00  0.00    +0.000 A 
ATOM     16  C   UNL     1     113.020 127.879 137.490  0.00  0.00    +0.000 A 
ATOM     17  C   UNL     1     113.431 126.823 138.360  0.00  0.00    +0.000 A 
ATOM     18  C   UNL     1     113.013 128.402 138.128  0.00  0.00    +0.000 A 
ATOM     19  C   UNL     1     113.425 127.345 138.998  0.00  0.00    +0.000 A 
BRANCH  16  20
ATOM     20  O   UNL     1     112.817 128.145 136.736  0.00  0.00    +0.000 OA
ATOM     21  C   UNL     1     112.908 128.943 136.542  0.00  0.00    +0.000 C 
ENDBRANCH  16  20
BRANCH  14  22
ATOM     22  O   UNL     1     113.235 126.566 136.968  0.00  0.00    +0.000 OA
BRANCH  22  31
ATOM     23  O   UNL     1     112.121 125.777 137.388  0.00  0.00    +0.000 OA
ATOM     24  O   UNL     1     113.228 123.745 136.509  0.00  0.00    +0.000 OA
ATOM     25  O   UNL     1     111.744 123.633 137.222  0.00  0.00    +0.000 OA
ATOM     26  O   UNL     1     113.974 125.212 136.382  0.00  0.00    +0.000 OA
ATOM     27  C   UNL     1     112.859 124.423 136.802  0.00  0.00    +0.000 C 
ATOM     28  C   UNL     1     112.117 124.367 137.158  0.00  0.00    +0.000 C 
ATOM     29  C   UNL     1     113.232 125.155 136.739  0.00  0.00    +0.000 C 
ATOM     30  C   UNL     1     111.748 125.043 137.451  0.00  0.00    +0.000 C 
ATOM     31  C   UNL     1     112.863 125.833 137.031  0.00  0.00    +0.000 C 
ATOM     32  C   UNL     1     111.006 124.987 137.808  0.00  0.00    +0.000 C 
ENDBRANCH  22  31
ENDBRANCH  14  22
ENDBRANCH   6  15
BRANCH   5  33
ATOM     33  O   UNL     1     112.042 128.016 140.036  0.00  0.00    +0.000 OA
BRANCH  33  42
ATOM     34  O   UNL     1     111.030 128.881 139.515  0.00  0.00    +0.000 OA
ATOM     35  O   UNL     1     108.866 128.876 139.791  0.00  0.00    +0.000 OA
ATOM     36  O   UNL     1     109.300 127.576 140.709  0.00  0.00    +0.000 OA
ATOM     37  O   UNL     1     110.888 127.146 140.832  0.00  0.00    +0.000 OA
ATOM     38  C   UNL     1     110.236 129.096 139.454  0.00  0.00    +0.000 C 
ATOM     39  C   UNL     1     109.660 128.661 139.852  0.00  0.00    +0.000 C 
ATOM     40  C   UNL     1     109.876 128.011 140.312  0.00  0.00    +0.000 C 
ATOM     41  C   UNL     1     110.671 127.796 140.373  0.00  0.00    +0.000 C 
ATOM     42  C   UNL     1     111.248 128.231 139.974  0.00  0.00    +0.000 C 
BRANCH  38  43
ATOM     43  C   UNL     1     110.020 129.746 138.994  0.00  0.00    +0.000 C 
BRANCH  43  44
ATOM     44  O   UNL     1     110.421 130.462 139.079  0.00  0.00    +0.000 OA
BRANCH  44  50
ATOM     45  O   UNL     1     110.142 130.899 137.747  0.00  0.00    +0.000 OA
ATOM     46  O   UNL     1     110.466 132.032 139.584  0.00  0.00    +0.000 OA
ATOM     47  O   UNL     1     110.211 133.254 138.504  0.00  0.00    +0.000 OA
ATOM     48  O   UNL     1     109.909 132.905 136.920  0.00  0.00    +0.000 OA
ATOM     49  C   UNL     1     110.316 131.858 138.792  0.00  0.00    +0.000 C 
ATOM     50  C   UNL     1     110.293 131.073 138.540  0.00  0.00    +0.000 C 
ATOM     51  C   UNL     1     110.188 132.469 138.252  0.00  0.00    +0.000 C 
ATOM     52  C   UNL     1     110.037 132.295 137.460  0.00  0.00    +0.000 C 
ATOM     53  C   UNL     1     110.015 131.510 137.208  0.00  0.00    +0.000 C 
ATOM     54  C   UNL     1     109.864 131.335 136.415  0.00  0.00    +0.000 C 
ENDBRANCH  44  50
ENDBRANCH  43  44
ENDBRANCH  38  43
ENDBRANCH  33  42
ENDBRANCH   5  33
TORSDOF 9
ENDMDL
MODEL 4
REMARK VINA RESULT:     -10.5      2.001      5.696
REMARK  Name = 73822546
REMARK  9 active torsions:
REMARK  status: ('A' for Active; 'I' for Inactive)
REMARK    1  A    between atoms: O_2  and  C_26
REMARK    2  A    between atoms: O_2  and  C_30
REMARK    3  A    between atoms: O_5  and  C_29
REMARK    4  A    between atoms: O_5  and  C_39
REMARK    5  A    between atoms: O_12  and  C_37
REMARK    6  A    between atoms: O_12  and  C_41
REMARK    7  A    between atoms: O_18  and  C_45
REMARK    8  A    between atoms: C_21  and  C_30
REMARK    9  A    between atoms: C_40  and  C_43
REMARK                            x       y       z     vdW  Elec       q    Type
REMARK                         _______ _______ _______ _____ _____    ______ ____
ROOT
ATOM      1  O   UNL     1     111.043 128.980 138.679  0.00  0.00    +0.000 OA
ATOM      2  O   UNL     1     112.264 131.129 138.807  0.00  0.00    +0.000 OA
ATOM      3  O   UNL     1     111.031 131.869 138.694  0.00  0.00    +0.000 OA
ATOM      4  O   UNL     1     108.515 130.406 138.447  0.00  0.00    +0.000 OA
ATOM      5  C   UNL     1     112.272 129.700 138.800  0.00  0.00    +0.000 A 
ATOM      6  C   UNL     1     111.865 128.984 138.757  0.00  0.00    +0.000 A 
ATOM      7  C   UNL     1     111.857 130.412 138.764  0.00  0.00    +0.000 A 
ATOM      8  C   UNL     1     111.036 130.409 138.686  0.00  0.00    +0.000 A 
ATOM      9  C   UNL     1     110.629 129.692 138.643  0.00  0.00    +0.000 A 
ATOM     10  C   UNL     1     110.615 131.158 138.651  0.00  0.00    +0.000 A 
ATOM     11  C   UNL     1     109.773 129.675 138.562  0.00  0.00    +0.000 A 
ATOM     12  C   UNL     1     109.760 131.160 138.569  0.00  0.00    +0.000 A 
ATOM     13  C   UNL     1     109.336 130.413 138.525  0.00  0.00    +0.000 A 
ENDROOT
BRANCH   6  15
ATOM     14  C   UNL     1     113.106 126.845 138.861  0.00  0.00    +0.000 A 
ATOM     15  C   UNL     1     112.278 128.271 138.792  0.00  0.00    +0.000 A 
ATOM     16  C   UNL     1     112.642 127.083 139.499  0.00  0.00    +0.000 A 
ATOM     17  C   UNL     1     113.158 127.320 138.188  0.00  0.00    +0.000 A 
ATOM     18  C   UNL     1     112.227 127.796 139.465  0.00  0.00    +0.000 A 
ATOM     19  C   UNL     1     112.744 128.033 138.153  0.00  0.00    +0.000 A 
BRANCH  16  20
ATOM     20  O   UNL     1     112.590 126.609 140.172  0.00  0.00    +0.000 OA
ATOM     21  C   UNL     1     112.125 126.847 140.811  0.00  0.00    +0.000 C 
ENDBRANCH  16  20
BRANCH  14  22
ATOM     22  O   UNL     1     113.521 126.132 138.895  0.00  0.00    +0.000 OA
BRANCH  22  31
ATOM     23  O   UNL     1     112.804 125.397 137.902  0.00  0.00    +0.000 OA
ATOM     24  O   UNL     1     114.941 124.541 136.993  0.00  0.00    +0.000 OA
ATOM     25  O   UNL     1     113.512 124.091 136.302  0.00  0.00    +0.000 OA
ATOM     26  O   UNL     1     114.946 125.562 138.289  0.00  0.00    +0.000 OA
ATOM     27  C   UNL     1     114.229 124.827 137.296  0.00  0.00    +0.000 C 
ATOM     28  C   UNL     1     113.514 124.602 136.951  0.00  0.00    +0.000 C 
ATOM     29  C   UNL     1     114.231 125.337 137.944  0.00  0.00    +0.000 C 
ATOM     30  C   UNL     1     112.802 124.886 137.253  0.00  0.00    +0.000 C 
ATOM     31  C   UNL     1     113.519 125.622 138.247  0.00  0.00    +0.000 C 
ATOM     32  C   UNL     1     112.087 124.661 136.908  0.00  0.00    +0.000 C 
ENDBRANCH  22  31
ENDBRANCH  14  22
ENDBRANCH   6  15
BRANCH   5  33
ATOM     33  O   UNL     1     113.092 129.704 138.878  0.00  0.00    +0.000 OA
BRANCH  33  42
ATOM     34  O   UNL     1     113.056 130.042 140.266  0.00  0.00    +0.000 OA
ATOM     35  O   UNL     1     114.492 131.108 141.516  0.00  0.00    +0.000 OA
ATOM     36  O   UNL     1     115.266 131.134 140.059  0.00  0.00    +0.000 OA
ATOM     37  O   UNL     1     114.566 130.432 138.740  0.00  0.00    +0.000 OA
ATOM     38  C   UNL     1     113.406 130.393 140.925  0.00  0.00    +0.000 C 
ATOM     39  C   UNL     1     114.142 130.757 140.856  0.00  0.00    +0.000 C 
ATOM     40  C   UNL     1     114.530 130.770 140.128  0.00  0.00    +0.000 C 
ATOM     41  C   UNL     1     114.180 130.419 139.468  0.00  0.00    +0.000 C 
ATOM     42  C   UNL     1     113.442 130.055 139.537  0.00  0.00    +0.000 C 
BRANCH  38  43
ATOM     43  C   UNL     1     113.018 130.379 141.654  0.00  0.00    +0.000 C 
BRANCH  43  44
ATOM     44  O   UNL     1     112.310 130.791 141.751  0.00  0.00    +0.000 OA
BRANCH  44  50
ATOM     45  O   UNL     1     111.994 130.006 142.903  0.00  0.00    +0.000 OA
ATOM     46  O   UNL     1     111.073 131.821 142.114  0.00  0.00    +0.000 OA
ATOM     47  O   UNL     1     110.138 131.551 143.447  0.00  0.00    +0.000 OA
ATOM     48  O   UNL     1     110.441 130.251 144.417  0.00  0.00    +0.000 OA
ATOM     49  C   UNL     1     111.224 131.172 142.599  0.00  0.00    +0.000 C 
ATOM     50  C   UNL     1     111.842 130.657 142.417  0.00  0.00    +0.000 C 
ATOM     51  C   UNL     1     110.757 131.036 143.265  0.00  0.00    +0.000 C 
ATOM     52  C   UNL     1     110.908 130.387 143.750  0.00  0.00    +0.000 C 
ATOM     53  C   UNL     1     111.526 129.872 143.569  0.00  0.00    +0.000 C 
ATOM     54  C   UNL     1     111.677 129.221 144.054  0.00  0.00    +0.000 C 
ENDBRANCH  44  50
ENDBRANCH  43  44
ENDBRANCH  38  43
ENDBRANCH  33  42
ENDBRANCH   5  33
TORSDOF 9
ENDMDL
MODEL 5
REMARK VINA RESULT:     -10.4      1.944      4.522
REMARK  Name = 73822546
REMARK  9 active torsions:
REMARK  status: ('A' for Active; 'I' for Inactive)
REMARK    1  A    between atoms: O_2  and  C_26
REMARK    2  A    between atoms: O_2  and  C_30
REMARK    3  A    between atoms: O_5  and  C_29
REMARK    4  A    between atoms: O_5  and  C_39
REMARK    5  A    between atoms: O_12  and  C_37
REMARK    6  A    between atoms: O_12  and  C_41
REMARK    7  A    between atoms: O_18  and  C_45
REMARK    8  A    between atoms: C_21  and  C_30
REMARK    9  A    between atoms: C_40  and  C_43
REMARK                            x       y       z     vdW  Elec       q    Type
REMARK                         _______ _______ _______ _____ _____    ______ ____
ROOT
ATOM      1  O   UNL     1     113.179 129.028 137.923  0.00  0.00    +0.000 OA
ATOM      2  O   UNL     1     113.675 127.428 136.101  0.00  0.00    +0.000 OA
ATOM      3  O   UNL     1     114.193 128.488 135.272  0.00  0.00    +0.000 OA
ATOM      4  O   UNL     1     114.208 131.220 136.305  0.00  0.00    +0.000 OA
ATOM      5  C   UNL     1     113.174 127.693 137.413  0.00  0.00    +0.000 A 
ATOM      6  C   UNL     1     113.008 128.226 138.020  0.00  0.00    +0.000 A 
ATOM      7  C   UNL     1     113.510 127.961 136.709  0.00  0.00    +0.000 A 
ATOM      8  C   UNL     1     113.681 128.762 136.611  0.00  0.00    +0.000 A 
ATOM      9  C   UNL     1     113.515 129.295 137.219  0.00  0.00    +0.000 A 
ATOM     10  C   UNL     1     114.031 129.029 135.873  0.00  0.00    +0.000 A 
ATOM     11  C   UNL     1     113.688 130.133 137.129  0.00  0.00    +0.000 A 
ATOM     12  C   UNL     1     114.211 129.862 135.766  0.00  0.00    +0.000 A 
ATOM     13  C   UNL     1     114.038 130.418 136.399  0.00  0.00    +0.000 A 
ENDROOT
BRANCH   6  15
ATOM     14  C   UNL     1     111.998 127.425 140.133  0.00  0.00    +0.000 A 
ATOM     15  C   UNL     1     112.672 127.959 138.724  0.00  0.00    +0.000 A 
ATOM     16  C   UNL     1     112.791 127.270 139.970  0.00  0.00    +0.000 A 
ATOM     17  C   UNL     1     111.542 127.848 139.591  0.00  0.00    +0.000 A 
ATOM     18  C   UNL     1     113.129 127.536 139.266  0.00  0.00    +0.000 A 
ATOM     19  C   UNL     1     111.878 128.115 138.887  0.00  0.00    +0.000 A 
BRANCH  16  20
ATOM     20  O   UNL     1     113.248 126.847 140.511  0.00  0.00    +0.000 OA
ATOM     21  C   UNL     1     114.022 127.086 140.675  0.00  0.00    +0.000 C 
ENDBRANCH  16  20
BRANCH  14  22
ATOM     22  O   UNL     1     111.661 127.159 140.837  0.00  0.00    +0.000 OA
BRANCH  22  31
ATOM     23  O   UNL     1     110.716 126.280 140.225  0.00  0.00    +0.000 OA
ATOM     24  O   UNL     1     109.085 126.786 142.017  0.00  0.00    +0.000 OA
ATOM     25  O   UNL     1     108.682 125.738 140.808  0.00  0.00    +0.000 OA
ATOM     26  O   UNL     1     110.574 127.496 142.032  0.00  0.00    +0.000 OA
ATOM     27  C   UNL     1     109.629 126.618 141.420  0.00  0.00    +0.000 C 
ATOM     28  C   UNL     1     109.428 126.094 140.816  0.00  0.00    +0.000 C 
ATOM     29  C   UNL     1     110.373 126.972 141.427  0.00  0.00    +0.000 C 
ATOM     30  C   UNL     1     109.970 125.924 140.218  0.00  0.00    +0.000 C 
ATOM     31  C   UNL     1     110.917 126.804 140.830  0.00  0.00    +0.000 C 
ATOM     32  C   UNL     1     109.769 125.400 139.613  0.00  0.00    +0.000 C 
ENDBRANCH  22  31
ENDBRANCH  14  22
ENDBRANCH   6  15
BRANCH   5  33
ATOM     33  O   UNL     1     113.003 126.892 137.510  0.00  0.00    +0.000 OA
BRANCH  33  42
ATOM     34  O   UNL     1     111.877 126.947 136.631  0.00  0.00    +0.000 OA
ATOM     35  O   UNL     1     110.911 125.389 135.447  0.00  0.00    +0.000 OA
ATOM     36  O   UNL     1     112.117 124.527 136.172  0.00  0.00    +0.000 OA
ATOM     37  O   UNL     1     113.163 125.279 137.203  0.00  0.00    +0.000 OA
ATOM     38  C   UNL     1     111.354 126.571 136.116  0.00  0.00    +0.000 C 
ATOM     39  C   UNL     1     111.434 125.765 135.963  0.00  0.00    +0.000 C 
ATOM     40  C   UNL     1     112.037 125.333 136.325  0.00  0.00    +0.000 C 
ATOM     41  C   UNL     1     112.560 125.709 136.841  0.00  0.00    +0.000 C 
ATOM     42  C   UNL     1     112.480 126.516 136.994  0.00  0.00    +0.000 C 
BRANCH  38  43
ATOM     43  C   UNL     1     110.751 127.003 135.754  0.00  0.00    +0.000 C 
BRANCH  43  44
ATOM     44  O   UNL     1     110.206 127.416 136.215  0.00  0.00    +0.000 OA
BRANCH  44  50
ATOM     45  O   UNL     1     110.305 128.651 135.503  0.00  0.00    +0.000 OA
ATOM     46  O   UNL     1     108.598 127.689 136.466  0.00  0.00    +0.000 OA
ATOM     47  O   UNL     1     107.893 129.060 135.880  0.00  0.00    +0.000 OA
ATOM     48  O   UNL     1     108.795 130.159 135.043  0.00  0.00    +0.000 OA
ATOM     49  C   UNL     1     109.049 128.238 136.048  0.00  0.00    +0.000 C 
ATOM     50  C   UNL     1     109.853 128.101 135.922  0.00  0.00    +0.000 C 
ATOM     51  C   UNL     1     108.697 128.924 135.754  0.00  0.00    +0.000 C 
ATOM     52  C   UNL     1     109.148 129.473 135.336  0.00  0.00    +0.000 C 
ATOM     53  C   UNL     1     109.951 129.337 135.211  0.00  0.00    +0.000 C 
ATOM     54  C   UNL     1     110.403 129.887 134.792  0.00  0.00    +0.000 C 
ENDBRANCH  44  50
ENDBRANCH  43  44
ENDBRANCH  38  43
ENDBRANCH  33  42
ENDBRANCH   5  33
TORSDOF 9
ENDMDL
MODEL 6
REMARK VINA RESULT:     -10.4      1.779      4.600
REMARK  Name = 73822546
REMARK  9 active torsions:
REMARK  status: ('A' for Active; 'I' for Inactive)
REMARK    1  A    between atoms: O_2  and  C_26
REMARK    2  A    between atoms: O_2  and  C_30
REMARK    3  A    between atoms: O_5  and  C_29
REMARK    4  A    between atoms: O_5  and  C_39
REMARK    5  A    between atoms: O_12  and  C_37
REMARK    6  A    between atoms: O_12  and  C_41
REMARK    7  A    between atoms: O_18  and  C_45
REMARK    8  A    between atoms: C_21  and  C_30
REMARK    9  A    between atoms: C_40  and  C_43
REMARK                            x       y       z     vdW  Elec       q    Type
REMARK                         _______ _______ _______ _____ _____    ______ ____
ROOT
ATOM      1  O   UNL     1     113.315 126.279 138.840  0.00  0.00    +0.000 OA
ATOM      2  O   UNL     1     111.489 126.007 137.191  0.00  0.00    +0.000 OA
ATOM      3  O   UNL     1     112.326 125.179 136.358  0.00  0.00    +0.000 OA
ATOM      4  O   UNL     1     115.062 124.614 137.210  0.00  0.00    +0.000 OA
ATOM      5  C   UNL     1     111.977 126.553 138.419  0.00  0.00    +0.000 A 
ATOM      6  C   UNL     1     112.585 126.643 138.968  0.00  0.00    +0.000 A 
ATOM      7  C   UNL     1     112.098 126.098 137.741  0.00  0.00    +0.000 A 
ATOM      8  C   UNL     1     112.827 125.734 137.612  0.00  0.00    +0.000 A 
ATOM      9  C   UNL     1     113.435 125.825 138.162  0.00  0.00    +0.000 A 
ATOM     10  C   UNL     1     112.940 125.264 136.902  0.00  0.00    +0.000 A 
ATOM     11  C   UNL     1     114.199 125.451 138.039  0.00  0.00    +0.000 A 
ATOM     12  C   UNL     1     113.697 124.882 136.763  0.00  0.00    +0.000 A 
ATOM     13  C   UNL     1     114.332 124.977 137.336  0.00  0.00    +0.000 A 
ENDROOT
BRANCH   6  15
ATOM     14  C   UNL     1     112.224 128.005 141.003  0.00  0.00    +0.000 A 
ATOM     15  C   UNL     1     112.465 127.097 139.646  0.00  0.00    +0.000 A 
ATOM     16  C   UNL     1     112.719 128.281 140.405  0.00  0.00    +0.000 A 
ATOM     17  C   UNL     1     111.850 127.274 140.924  0.00  0.00    +0.000 A 
ATOM     18  C   UNL     1     112.840 127.828 139.726  0.00  0.00    +0.000 A 
ATOM     19  C   UNL     1     111.970 126.820 140.246  0.00  0.00    +0.000 A 
BRANCH  16  20
ATOM     20  O   UNL     1     113.094 129.012 140.484  0.00  0.00    +0.000 OA
ATOM     21  C   UNL     1     113.845 129.128 140.161  0.00  0.00    +0.000 C 
ENDBRANCH  16  20
BRANCH  14  22
ATOM     22  O   UNL     1     112.103 128.458 141.682  0.00  0.00    +0.000 OA
BRANCH  22  31
ATOM     23  O   UNL     1     110.789 128.911 141.358  0.00  0.00    +0.000 OA
ATOM     24  O   UNL     1     110.138 128.728 143.739  0.00  0.00    +0.000 OA
ATOM     25  O   UNL     1     109.039 129.243 142.621  0.00  0.00    +0.000 OA
ATOM     26  O   UNL     1     111.670 128.336 143.270  0.00  0.00    +0.000 OA
ATOM     27  C   UNL     1     110.355 128.789 142.945  0.00  0.00    +0.000 C 
ATOM     28  C   UNL     1     109.806 129.047 142.386  0.00  0.00    +0.000 C 
ATOM     29  C   UNL     1     111.121 128.593 142.711  0.00  0.00    +0.000 C 
ATOM     30  C   UNL     1     110.022 129.108 141.593  0.00  0.00    +0.000 C 
ATOM     31  C   UNL     1     111.338 128.654 141.917  0.00  0.00    +0.000 C 
ATOM     32  C   UNL     1     109.472 129.365 141.034  0.00  0.00    +0.000 C 
ENDBRANCH  22  31
ENDBRANCH  14  22
ENDBRANCH   6  15
BRANCH   5  33
ATOM     33  O   UNL     1     111.248 126.916 138.547  0.00  0.00    +0.000 OA
BRANCH  33  42
ATOM     34  O   UNL     1     111.481 127.932 137.570  0.00  0.00    +0.000 OA
ATOM     35  O   UNL     1     110.089 129.104 136.366  0.00  0.00    +0.000 OA
ATOM     36  O   UNL     1     109.042 128.166 137.229  0.00  0.00    +0.000 OA
ATOM     37  O   UNL     1     109.621 127.072 138.320  0.00  0.00    +0.000 OA
ATOM     38  C   UNL     1     111.192 128.479 137.024  0.00  0.00    +0.000 C 
ATOM     39  C   UNL     1     110.379 128.557 136.911  0.00  0.00    +0.000 C 
ATOM     40  C   UNL     1     109.854 128.088 137.342  0.00  0.00    +0.000 C 
ATOM     41  C   UNL     1     110.144 127.541 137.888  0.00  0.00    +0.000 C 
ATOM     42  C   UNL     1     110.958 127.463 138.002  0.00  0.00    +0.000 C 
BRANCH  38  43
ATOM     43  C   UNL     1     111.716 128.948 136.593  0.00  0.00    +0.000 C 
BRANCH  43  44
ATOM     44  O   UNL     1     112.254 129.433 136.987  0.00  0.00    +0.000 OA
BRANCH  44  50
ATOM     45  O   UNL     1     113.376 129.112 136.162  0.00  0.00    +0.000 OA
ATOM     46  O   UNL     1     112.817 130.976 137.150  0.00  0.00    +0.000 OA
ATOM     47  O   UNL     1     114.220 131.426 136.406  0.00  0.00    +0.000 OA
ATOM     48  O   UNL     1     115.060 130.332 135.500  0.00  0.00    +0.000 OA
ATOM     49  C   UNL     1     113.237 130.430 136.697  0.00  0.00    +0.000 C 
ATOM     50  C   UNL     1     112.956 129.659 136.616  0.00  0.00    +0.000 C 
ATOM     51  C   UNL     1     113.938 130.654 136.325  0.00  0.00    +0.000 C 
ATOM     52  C   UNL     1     114.359 130.108 135.872  0.00  0.00    +0.000 C 
ATOM     53  C   UNL     1     114.077 129.337 135.791  0.00  0.00    +0.000 C 
ATOM     54  C   UNL     1     114.498 128.790 135.338  0.00  0.00    +0.000 C 
ENDBRANCH  44  50
ENDBRANCH  43  44
ENDBRANCH  38  43
ENDBRANCH  33  42
ENDBRANCH   5  33
TORSDOF 9
ENDMDL
MODEL 7
REMARK VINA RESULT:     -10.4      1.568      4.993
REMARK  Name = 73822546
REMARK  9 active torsions:
REMARK  status: ('A' for Active; 'I' for Inactive)
REMARK    1  A    between atoms: O_2  and  C_26
REMARK    2  A    between atoms: O_2  and  C_30
REMARK    3  A    between atoms: O_5  and  C_29
REMARK    4  A    between atoms: O_5  and  C_39
REMARK    5  A    between atoms: O_12  and  C_37
REMARK    6  A    between atoms: O_12  and  C_41
REMARK    7  A    between atoms: O_18  and  C_45
REMARK    8  A    between atoms: C_21  and  C_30
REMARK    9  A    between atoms: C_40  and  C_43
REMARK                            x       y       z     vdW  Elec       q    Type
REMARK                         _______ _______ _______ _____ _____    ______ ____
ROOT
ATOM      1  O   UNL     1     111.213 127.104 136.965  0.00  0.00    +0.000 OA
ATOM      2  O   UNL     1     113.449 127.945 136.320  0.00  0.00    +0.000 OA
ATOM      3  O   UNL     1     114.023 126.632 136.485  0.00  0.00    +0.000 OA
ATOM      4  O   UNL     1     112.299 124.426 137.319  0.00  0.00    +0.000 OA
ATOM      5  C   UNL     1     112.060 128.181 136.556  0.00  0.00    +0.000 A 
ATOM      6  C   UNL     1     111.315 127.900 136.771  0.00  0.00    +0.000 A 
ATOM      7  C   UNL     1     112.704 127.665 136.535  0.00  0.00    +0.000 A 
ATOM      8  C   UNL     1     112.602 126.870 136.728  0.00  0.00    +0.000 A 
ATOM      9  C   UNL     1     111.857 126.589 136.943  0.00  0.00    +0.000 A 
ATOM     10  C   UNL     1     113.281 126.342 136.701  0.00  0.00    +0.000 A 
ATOM     11  C   UNL     1     111.738 125.762 137.146  0.00  0.00    +0.000 A 
ATOM     12  C   UNL     1     113.181 125.513 136.901  0.00  0.00    +0.000 A 
ATOM     13  C   UNL     1     112.404 125.221 137.125  0.00  0.00    +0.000 A 
ENDROOT
BRANCH   6  15
ATOM     14  C   UNL     1     109.382 129.445 136.836  0.00  0.00    +0.000 A 
ATOM     15  C   UNL     1     110.670 128.415 136.793  0.00  0.00    +0.000 A 
ATOM     16  C   UNL     1     109.697 129.149 137.538  0.00  0.00    +0.000 A 
ATOM     17  C   UNL     1     109.711 129.226 136.112  0.00  0.00    +0.000 A 
ATOM     18  C   UNL     1     110.341 128.634 137.518  0.00  0.00    +0.000 A 
ATOM     19  C   UNL     1     110.355 128.711 136.090  0.00  0.00    +0.000 A 
BRANCH  16  20
ATOM     20  O   UNL     1     109.367 129.368 138.262  0.00  0.00    +0.000 OA
ATOM     21  C   UNL     1     109.485 128.895 138.929  0.00  0.00    +0.000 C 
ENDBRANCH  16  20
BRANCH  14  22
ATOM     22  O   UNL     1     108.737 129.960 136.857  0.00  0.00    +0.000 OA
BRANCH  22  31
ATOM     23  O   UNL     1     109.412 131.171 136.512  0.00  0.00    +0.000 OA
ATOM     24  O   UNL     1     107.534 131.794 135.025  0.00  0.00    +0.000 OA
ATOM     25  O   UNL     1     108.835 132.798 135.176  0.00  0.00    +0.000 OA
ATOM     26  O   UNL     1     107.486 130.375 135.866  0.00  0.00    +0.000 OA
ATOM     27  C   UNL     1     108.160 131.586 135.521  0.00  0.00    +0.000 C 
ATOM     28  C   UNL     1     108.811 132.088 135.596  0.00  0.00    +0.000 C 
ATOM     29  C   UNL     1     108.136 130.877 135.941  0.00  0.00    +0.000 C 
ATOM     30  C   UNL     1     109.437 131.881 136.092  0.00  0.00    +0.000 C 
ATOM     31  C   UNL     1     108.762 130.669 136.437  0.00  0.00    +0.000 C 
ATOM     32  C   UNL     1     110.087 132.383 136.167  0.00  0.00    +0.000 C 
ENDBRANCH  22  31
ENDBRANCH  14  22
ENDBRANCH   6  15
BRANCH   5  33
ATOM     33  O   UNL     1     112.162 128.976 136.363  0.00  0.00    +0.000 OA
BRANCH  33  42
ATOM     34  O   UNL     1     112.803 129.310 137.596  0.00  0.00    +0.000 OA
ATOM     35  O   UNL     1     114.304 130.824 138.061  0.00  0.00    +0.000 OA
ATOM     36  O   UNL     1     114.093 131.081 136.445  0.00  0.00    +0.000 OA
ATOM     37  O   UNL     1     113.022 130.156 135.596  0.00  0.00    +0.000 OA
ATOM     38  C   UNL     1     113.339 129.772 138.020  0.00  0.00    +0.000 C 
ATOM     39  C   UNL     1     113.768 130.362 137.637  0.00  0.00    +0.000 C 
ATOM     40  C   UNL     1     113.663 130.491 136.828  0.00  0.00    +0.000 C 
ATOM     41  C   UNL     1     113.128 130.029 136.404  0.00  0.00    +0.000 C 
ATOM     42  C   UNL     1     112.697 129.438 136.788  0.00  0.00    +0.000 C 
BRANCH  38  43
ATOM     43  C   UNL     1     113.444 129.644 138.829  0.00  0.00    +0.000 C 
BRANCH  43  44
ATOM     44  O   UNL     1     112.820 129.777 139.352  0.00  0.00    +0.000 OA
BRANCH  44  50
ATOM     45  O   UNL     1     112.888 128.529 140.044  0.00  0.00    +0.000 OA
ATOM     46  O   UNL     1     112.482 130.546 140.772  0.00  0.00    +0.000 OA
ATOM     47  O   UNL     1     112.380 129.682 142.174  0.00  0.00    +0.000 OA
ATOM     48  O   UNL     1     112.617 128.049 142.156  0.00  0.00    +0.000 OA
ATOM     49  C   UNL     1     112.600 129.731 140.763  0.00  0.00    +0.000 C 
ATOM     50  C   UNL     1     112.769 129.346 140.053  0.00  0.00    +0.000 C 
ATOM     51  C   UNL     1     112.550 129.298 141.464  0.00  0.00    +0.000 C 
ATOM     52  C   UNL     1     112.668 128.482 141.455  0.00  0.00    +0.000 C 
ATOM     53  C   UNL     1     112.837 128.098 140.745  0.00  0.00    +0.000 C 
ATOM     54  C   UNL     1     112.956 127.281 140.736  0.00  0.00    +0.000 C 
ENDBRANCH  44  50
ENDBRANCH  43  44
ENDBRANCH  38  43
ENDBRANCH  33  42
ENDBRANCH   5  33
TORSDOF 9
ENDMDL
MODEL 8
REMARK VINA RESULT:     -10.3      1.877      6.181
REMARK  Name = 73822546
REMARK  9 active torsions:
REMARK  status: ('A' for Active; 'I' for Inactive)
REMARK    1  A    between atoms: O_2  and  C_26
REMARK    2  A    between atoms: O_2  and  C_30
REMARK    3  A    between atoms: O_5  and  C_29
REMARK    4  A    between atoms: O_5  and  C_39
REMARK    5  A    between atoms: O_12  and  C_37
REMARK    6  A    between atoms: O_12  and  C_41
REMARK    7  A    between atoms: O_18  and  C_45
REMARK    8  A    between atoms: C_21  and  C_30
REMARK    9  A    between atoms: C_40  and  C_43
REMARK                            x       y       z     vdW  Elec       q    Type
REMARK                         _______ _______ _______ _____ _____    ______ ____
ROOT
ATOM      1  O   UNL     1     113.413 130.170 138.705  0.00  0.00    +0.000 OA
ATOM      2  O   UNL     1     113.501 128.076 140.023  0.00  0.00    +0.000 OA
ATOM      3  O   UNL     1     114.378 128.688 140.991  0.00  0.00    +0.000 OA
ATOM      4  O   UNL     1     115.180 131.472 140.619  0.00  0.00    +0.000 OA
ATOM      5  C   UNL     1     113.023 128.807 138.892  0.00  0.00    +0.000 A 
ATOM      6  C   UNL     1     112.994 129.505 138.453  0.00  0.00    +0.000 A 
ATOM      7  C   UNL     1     113.472 128.774 139.583  0.00  0.00    +0.000 A 
ATOM      8  C   UNL     1     113.891 129.438 139.836  0.00  0.00    +0.000 A 
ATOM      9  C   UNL     1     113.862 130.136 139.397  0.00  0.00    +0.000 A 
ATOM     10  C   UNL     1     114.355 129.390 140.558  0.00  0.00    +0.000 A 
ATOM     11  C   UNL     1     114.294 130.834 139.650  0.00  0.00    +0.000 A 
ATOM     12  C   UNL     1     114.793 130.079 140.826  0.00  0.00    +0.000 A 
ATOM     13  C   UNL     1     114.762 130.806 140.369  0.00  0.00    +0.000 A 
ENDROOT
BRANCH   6  15
ATOM     14  C   UNL     1     111.648 129.608 136.378  0.00  0.00    +0.000 A 
ATOM     15  C   UNL     1     112.546 129.539 137.761  0.00  0.00    +0.000 A 
ATOM     16  C   UNL     1     112.373 129.216 136.380  0.00  0.00    +0.000 A 
ATOM     17  C   UNL     1     111.372 129.966 137.068  0.00  0.00    +0.000 A 
ATOM     18  C   UNL     1     112.823 129.181 137.071  0.00  0.00    +0.000 A 
ATOM     19  C   UNL     1     111.820 129.932 137.760  0.00  0.00    +0.000 A 
BRANCH  16  20
ATOM     20  O   UNL     1     112.650 128.858 135.690  0.00  0.00    +0.000 OA
ATOM     21  C   UNL     1     113.455 128.880 135.508  0.00  0.00    +0.000 C 
ENDBRANCH  16  20
BRANCH  14  22
ATOM     22  O   UNL     1     111.199 129.643 135.687  0.00  0.00    +0.000 OA
BRANCH  22  31
ATOM     23  O   UNL     1     110.157 128.733 136.039  0.00  0.00    +0.000 OA
ATOM     24  O   UNL     1     108.479 130.284 135.087  0.00  0.00    +0.000 OA
ATOM     25  O   UNL     1     107.995 128.856 135.756  0.00  0.00    +0.000 OA
ATOM     26  O   UNL     1     110.081 130.678 135.052  0.00  0.00    +0.000 OA
ATOM     27  C   UNL     1     109.039 129.767 135.404  0.00  0.00    +0.000 C 
ATOM     28  C   UNL     1     108.797 129.053 135.739  0.00  0.00    +0.000 C 
ATOM     29  C   UNL     1     109.839 129.964 135.387  0.00  0.00    +0.000 C 
ATOM     30  C   UNL     1     109.355 128.535 136.057  0.00  0.00    +0.000 C 
ATOM     31  C   UNL     1     110.399 129.447 135.704  0.00  0.00    +0.000 C 
ATOM     32  C   UNL     1     109.113 127.821 136.392  0.00  0.00    +0.000 C 
ENDBRANCH  22  31
ENDBRANCH  14  22
ENDBRANCH   6  15
BRANCH   5  33
ATOM     33  O   UNL     1     112.605 128.143 138.639  0.00  0.00    +0.000 OA
BRANCH  33  42
ATOM     34  O   UNL     1     111.522 128.293 139.560  0.00  0.00    +0.000 OA
ATOM     35  O   UNL     1     110.306 126.803 140.590  0.00  0.00    +0.000 OA
ATOM     36  O   UNL     1     111.322 125.832 139.725  0.00  0.00    +0.000 OA
ATOM     37  O   UNL     1     112.471 126.503 138.749  0.00  0.00    +0.000 OA
ATOM     38  C   UNL     1     110.947 127.958 140.048  0.00  0.00    +0.000 C 
ATOM     39  C   UNL     1     110.880 127.138 140.103  0.00  0.00    +0.000 C 
ATOM     40  C   UNL     1     111.388 126.652 139.670  0.00  0.00    +0.000 C 
ATOM     41  C   UNL     1     111.963 126.987 139.182  0.00  0.00    +0.000 C 
ATOM     42  C   UNL     1     112.030 127.808 139.127  0.00  0.00    +0.000 C 
BRANCH  38  43
ATOM     43  C   UNL     1     110.439 128.444 140.480  0.00  0.00    +0.000 C 
BRANCH  43  44
ATOM     44  O   UNL     1     109.941 128.971 140.088  0.00  0.00    +0.000 OA
BRANCH  44  50
ATOM     45  O   UNL     1     109.751 129.723 141.288  0.00  0.00    +0.000 OA
ATOM     46  O   UNL     1     108.658 129.747 139.398  0.00  0.00    +0.000 OA
ATOM     47  O   UNL     1     107.828 130.888 140.254  0.00  0.00    +0.000 OA
ATOM     48  O   UNL     1     108.279 131.253 141.798  0.00  0.00    +0.000 OA
ATOM     49  C   UNL     1     108.884 129.930 140.170  0.00  0.00    +0.000 C 
ATOM     50  C   UNL     1     109.525 129.541 140.515  0.00  0.00    +0.000 C 
ATOM     51  C   UNL     1     108.469 130.500 140.598  0.00  0.00    +0.000 C 
ATOM     52  C   UNL     1     108.694 130.682 141.370  0.00  0.00    +0.000 C 
ATOM     53  C   UNL     1     109.335 130.294 141.715  0.00  0.00    +0.000 C 
ATOM     54  C   UNL     1     109.561 130.476 142.488  0.00  0.00    +0.000 C 
ENDBRANCH  44  50
ENDBRANCH  43  44
ENDBRANCH  38  43
ENDBRANCH  33  42
ENDBRANCH   5  33
TORSDOF 9
ENDMDL
MODEL 9
REMARK VINA RESULT:     -10.3      2.322      5.536
REMARK  Name = 73822546
REMARK  9 active torsions:
REMARK  status: ('A' for Active; 'I' for Inactive)
REMARK    1  A    between atoms: O_2  and  C_26
REMARK    2  A    between atoms: O_2  and  C_30
REMARK    3  A    between atoms: O_5  and  C_29
REMARK    4  A    between atoms: O_5  and  C_39
REMARK    5  A    between atoms: O_12  and  C_37
REMARK    6  A    between atoms: O_12  and  C_41
REMARK    7  A    between atoms: O_18  and  C_45
REMARK    8  A    between atoms: C_21  and  C_30
REMARK    9  A    between atoms: C_40  and  C_43
REMARK                            x       y       z     vdW  Elec       q    Type
REMARK                         _______ _______ _______ _____ _____    ______ ____
ROOT
ATOM      1  O   UNL     1     112.372 128.635 137.090  0.00  0.00    +0.000 OA
ATOM      2  O   UNL     1     112.702 130.733 138.361  0.00  0.00    +0.000 OA
ATOM      3  O   UNL     1     113.701 131.180 137.421  0.00  0.00    +0.000 OA
ATOM      4  O   UNL     1     114.379 129.470 135.152  0.00  0.00    +0.000 OA
ATOM      5  C   UNL     1     112.043 129.476 138.199  0.00  0.00    +0.000 A 
ATOM      6  C   UNL     1     111.933 128.777 137.775  0.00  0.00    +0.000 A 
ATOM      7  C   UNL     1     112.592 130.034 137.937  0.00  0.00    +0.000 A 
ATOM      8  C   UNL     1     113.030 129.894 137.253  0.00  0.00    +0.000 A 
ATOM      9  C   UNL     1     112.920 129.194 136.829  0.00  0.00    +0.000 A 
ATOM     10  C   UNL     1     113.598 130.483 136.991  0.00  0.00    +0.000 A 
ATOM     11  C   UNL     1     113.370 129.036 136.115  0.00  0.00    +0.000 A 
ATOM     12  C   UNL     1     114.057 130.342 136.279  0.00  0.00    +0.000 A 
ATOM     13  C   UNL     1     113.942 129.613 135.837  0.00  0.00    +0.000 A 
ENDROOT
BRANCH   6  15
ATOM     14  C   UNL     1     110.290 127.100 138.558  0.00  0.00    +0.000 A 
ATOM     15  C   UNL     1     111.385 128.218 138.036  0.00  0.00    +0.000 A 
ATOM     16  C   UNL     1     110.131 127.550 137.886  0.00  0.00    +0.000 A 
ATOM     17  C   UNL     1     110.997 127.208 138.969  0.00  0.00    +0.000 A 
ATOM     18  C   UNL     1     110.678 128.109 137.624  0.00  0.00    +0.000 A 
ATOM     19  C   UNL     1     111.545 127.767 138.709  0.00  0.00    +0.000 A 
BRANCH  16  20
ATOM     20  O   UNL     1     109.424 127.441 137.474  0.00  0.00    +0.000 OA
ATOM     21  C   UNL     1     109.418 127.473 136.649  0.00  0.00    +0.000 C 
ENDBRANCH  16  20
BRANCH  14  22
ATOM     22  O   UNL     1     109.742 126.540 138.819  0.00  0.00    +0.000 OA
BRANCH  22  31
ATOM     23  O   UNL     1     109.241 127.211 139.976  0.00  0.00    +0.000 OA
ATOM     24  O   UNL     1     109.384 125.100 141.262  0.00  0.00    +0.000 OA
ATOM     25  O   UNL     1     108.834 126.474 141.991  0.00  0.00    +0.000 OA
ATOM     26  O   UNL     1     109.838 125.133 139.676  0.00  0.00    +0.000 OA
ATOM     27  C   UNL     1     109.336 125.803 140.833  0.00  0.00    +0.000 C 
ATOM     28  C   UNL     1     109.061 126.490 141.197  0.00  0.00    +0.000 C 
ATOM     29  C   UNL     1     109.563 125.820 140.040  0.00  0.00    +0.000 C 
ATOM     30  C   UNL     1     109.013 127.194 140.770  0.00  0.00    +0.000 C 
ATOM     31  C   UNL     1     109.516 126.524 139.611  0.00  0.00    +0.000 C 
ATOM     32  C   UNL     1     108.739 127.881 141.135  0.00  0.00    +0.000 C 
ENDBRANCH  22  31
ENDBRANCH  14  22
ENDBRANCH   6  15
BRANCH   5  33
ATOM     33  O   UNL     1     111.605 129.616 138.883  0.00  0.00    +0.000 OA
BRANCH  33  42
ATOM     34  O   UNL     1     110.728 130.564 138.270  0.00  0.00    +0.000 OA
ATOM     35  O   UNL     1     109.697 132.301 139.097  0.00  0.00    +0.000 OA
ATOM     36  O   UNL     1     110.498 131.749 140.430  0.00  0.00    +0.000 OA
ATOM     37  O   UNL     1     111.452 130.407 140.323  0.00  0.00    +0.000 OA
ATOM     38  C   UNL     1     110.251 131.235 138.324  0.00  0.00    +0.000 C 
ATOM     39  C   UNL     1     110.174 131.630 139.044  0.00  0.00    +0.000 C 
ATOM     40  C   UNL     1     110.574 131.354 139.711  0.00  0.00    +0.000 C 
ATOM     41  C   UNL     1     111.051 130.683 139.657  0.00  0.00    +0.000 C 
ATOM     42  C   UNL     1     111.128 130.287 138.936  0.00  0.00    +0.000 C 
BRANCH  38  43
ATOM     43  C   UNL     1     109.851 131.510 137.657  0.00  0.00    +0.000 C 
BRANCH  43  44
ATOM     44  O   UNL     1     109.355 131.004 137.236  0.00  0.00    +0.000 OA
BRANCH  44  50
ATOM     45  O   UNL     1     109.280 131.852 136.088  0.00  0.00    +0.000 OA
ATOM     46  O   UNL     1     107.845 130.425 136.906  0.00  0.00    +0.000 OA
ATOM     47  O   UNL     1     107.015 130.985 135.595  0.00  0.00    +0.000 OA
ATOM     48  O   UNL     1     107.695 132.123 134.612  0.00  0.00    +0.000 OA
ATOM     49  C   UNL     1     108.184 130.994 136.415  0.00  0.00    +0.000 C 
ATOM     50  C   UNL     1     108.939 131.283 136.580  0.00  0.00    +0.000 C 
ATOM     51  C   UNL     1     107.770 131.274 135.759  0.00  0.00    +0.000 C 
ATOM     52  C   UNL     1     108.109 131.842 135.268  0.00  0.00    +0.000 C 
ATOM     53  C   UNL     1     108.864 132.132 135.433  0.00  0.00    +0.000 C 
ATOM     54  C   UNL     1     109.205 132.701 134.941  0.00  0.00    +0.000 C 
ENDBRANCH  44  50
ENDBRANCH  43  44
ENDBRANCH  38  43
ENDBRANCH  33  42
ENDBRANCH   5  33
TORSDOF 9
ENDMDL
MODEL 10
REMARK VINA RESULT:     -10.3      7.043      9.162
REMARK  Name = 73822546
REMARK  9 active torsions:
REMARK  status: ('A' for Active; 'I' for Inactive)
REMARK    1  A    between atoms: O_2  and  C_26
REMARK    2  A    between atoms: O_2  and  C_30
REMARK    3  A    between atoms: O_5  and  C_29
REMARK    4  A    between atoms: O_5  and  C_39
REMARK    5  A    between atoms: O_12  and  C_37
REMARK    6  A    between atoms: O_12  and  C_41
REMARK    7  A    between atoms: O_18  and  C_45
REMARK    8  A    between atoms: C_21  and  C_30
REMARK    9  A    between atoms: C_40  and  C_43
REMARK                            x       y       z     vdW  Elec       q    Type
REMARK                         _______ _______ _______ _____ _____    ______ ____
ROOT
ATOM      1  O   UNL     1     105.037 128.285 143.527  0.00  0.00    +0.000 OA
ATOM      2  O   UNL     1     105.225 127.035 141.400  0.00  0.00    +0.000 OA
ATOM      3  O   UNL     1     104.361 127.979 140.735  0.00  0.00    +0.000 OA
ATOM      4  O   UNL     1     103.285 130.231 142.252  0.00  0.00    +0.000 OA
ATOM      5  C   UNL     1     105.561 127.185 142.780  0.00  0.00    +0.000 A 
ATOM      6  C   UNL     1     105.498 127.601 143.490  0.00  0.00    +0.000 A 
ATOM      7  C   UNL     1     105.162 127.452 142.109  0.00  0.00    +0.000 A 
ATOM      8  C   UNL     1     104.702 128.135 142.146  0.00  0.00    +0.000 A 
ATOM      9  C   UNL     1     104.639 128.551 142.855  0.00  0.00    +0.000 A 
ATOM     10  C   UNL     1     104.292 128.403 141.440  0.00  0.00    +0.000 A 
ATOM     11  C   UNL     1     104.162 129.265 142.907  0.00  0.00    +0.000 A 
ATOM     12  C   UNL     1     103.811 129.113 141.472  0.00  0.00    +0.000 A 
ATOM     13  C   UNL     1     103.745 129.548 142.212  0.00  0.00    +0.000 A 
ENDROOT
BRANCH   6  15
ATOM     14  C   UNL     1     106.690 126.802 145.506  0.00  0.00    +0.000 A 
ATOM     15  C   UNL     1     105.895 127.335 144.162  0.00  0.00    +0.000 A 
ATOM     16  C   UNL     1     106.916 127.508 145.146  0.00  0.00    +0.000 A 
ATOM     17  C   UNL     1     106.066 126.362 145.194  0.00  0.00    +0.000 A 
ATOM     18  C   UNL     1     106.519 127.775 144.474  0.00  0.00    +0.000 A 
ATOM     19  C   UNL     1     105.668 126.628 144.522  0.00  0.00    +0.000 A 
BRANCH  16  20
ATOM     20  O   UNL     1     107.540 127.948 145.458  0.00  0.00    +0.000 OA
ATOM     21  C   UNL     1     107.712 128.696 145.153  0.00  0.00    +0.000 C 
ENDBRANCH  16  20
BRANCH  14  22
ATOM     22  O   UNL     1     107.087 126.535 146.178  0.00  0.00    +0.000 OA
BRANCH  22  31
ATOM     23  O   UNL     1     106.065 126.628 147.172  0.00  0.00    +0.000 OA
ATOM     24  O   UNL     1     106.592 124.330 147.929  0.00  0.00    +0.000 OA
ATOM     25  O   UNL     1     105.394 125.189 148.671  0.00  0.00    +0.000 OA
ATOM     26  O   UNL     1     107.438 125.003 146.682  0.00  0.00    +0.000 OA
ATOM     27  C   UNL     1     106.416 125.096 147.676  0.00  0.00    +0.000 C 
ATOM     28  C   UNL     1     105.818 125.525 148.047  0.00  0.00    +0.000 C 
ATOM     29  C   UNL     1     106.839 125.433 147.054  0.00  0.00    +0.000 C 
ATOM     30  C   UNL     1     105.642 126.291 147.796  0.00  0.00    +0.000 C 
ATOM     31  C   UNL     1     106.664 126.198 146.801  0.00  0.00    +0.000 C 
ATOM     32  C   UNL     1     105.043 126.720 148.167  0.00  0.00    +0.000 C 
ENDBRANCH  22  31
ENDBRANCH  14  22
ENDBRANCH   6  15
BRANCH   5  33
ATOM     33  O   UNL     1     106.021 126.502 142.743  0.00  0.00    +0.000 OA
BRANCH  33  42
ATOM     34  O   UNL     1     107.153 127.131 142.140  0.00  0.00    +0.000 OA
ATOM     35  O   UNL     1     108.618 126.373 140.712  0.00  0.00    +0.000 OA
ATOM     36  O   UNL     1     107.653 125.048 140.902  0.00  0.00    +0.000 OA
ATOM     37  O   UNL     1     106.354 125.113 141.917  0.00  0.00    +0.000 OA
ATOM     38  C   UNL     1     107.803 127.099 141.632  0.00  0.00    +0.000 C 
ATOM     39  C   UNL     1     107.969 126.405 141.220  0.00  0.00    +0.000 C 
ATOM     40  C   UNL     1     107.487 125.742 141.314  0.00  0.00    +0.000 C 
ATOM     41  C   UNL     1     106.837 125.775 141.822  0.00  0.00    +0.000 C 
ATOM     42  C   UNL     1     106.670 126.470 142.235  0.00  0.00    +0.000 C 
BRANCH  38  43
ATOM     43  C   UNL     1     108.285 127.762 141.538  0.00  0.00    +0.000 C 
BRANCH  43  44
ATOM     44  O   UNL     1     107.951 128.491 141.344  0.00  0.00    +0.000 OA
BRANCH  44  50
ATOM     45  O   UNL     1     109.102 129.168 141.851  0.00  0.00    +0.000 OA
ATOM     46  O   UNL     1     107.399 129.908 140.704  0.00  0.00    +0.000 OA
ATOM     47  O   UNL     1     108.275 131.294 140.892  0.00  0.00    +0.000 OA
ATOM     48  O   UNL     1     109.702 131.262 141.719  0.00  0.00    +0.000 OA
ATOM     49  C   UNL     1     108.112 129.892 141.117  0.00  0.00    +0.000 C 
ATOM     50  C   UNL     1     108.388 129.184 141.437  0.00  0.00    +0.000 C 
ATOM     51  C   UNL     1     108.550 130.585 141.212  0.00  0.00    +0.000 C 
ATOM     52  C   UNL     1     109.263 130.570 141.625  0.00  0.00    +0.000 C 
ATOM     53  C   UNL     1     109.539 129.861 141.945  0.00  0.00    +0.000 C 
ATOM     54  C   UNL     1     110.254 129.845 142.359  0.00  0.00    +0.000 C 
ENDBRANCH  44  50
ENDBRANCH  43  44
ENDBRANCH  38  43
ENDBRANCH  33  42
ENDBRANCH   5  33
TORSDOF 9
ENDMDL
