MODEL 1
REMARK VINA RESULT:      -9.6      0.000      0.000
REMARK  Name = 131753138
REMARK  4 active torsions:
REMARK  status: ('A' for Active; 'I' for Inactive)
REMARK    1  A    between atoms: O_2  and  C_14
REMARK    2  A    between atoms: O_2  and  C_16
REMARK    3  A    between atoms: C_15  and  C_18
REMARK    4  A    between atoms: C_17  and  C_20
REMARK                            x       y       z     vdW  Elec       q    Type
REMARK                         _______ _______ _______ _____ _____    ______ ____
ROOT
ATOM      1  O   UNL     1     105.543 124.364 147.634  0.00  0.00    +0.000 OA
ATOM      2  O   UNL     1     107.015 125.586 146.064  0.00  0.00    +0.000 OA
ATOM      3  O   UNL     1     108.097 125.568 147.019  0.00  0.00    +0.000 OA
ATOM      4  O   UNL     1     107.680 124.290 149.612  0.00  0.00    +0.000 OA
ATOM      5  C   UNL     1     105.752 124.991 146.367  0.00  0.00    +0.000 C 
ATOM      6  C   UNL     1     105.261 124.584 146.891  0.00  0.00    +0.000 C 
ATOM      7  C   UNL     1     106.524 125.179 146.587  0.00  0.00    +0.000 C 
ATOM      8  C   UNL     1     106.806 124.959 147.331  0.00  0.00    +0.000 A 
ATOM      9  C   UNL     1     106.315 124.552 147.855  0.00  0.00    +0.000 A 
ATOM     10  C   UNL     1     107.613 125.160 147.549  0.00  0.00    +0.000 A 
ATOM     11  C   UNL     1     106.597 124.318 148.631  0.00  0.00    +0.000 A 
ATOM     12  C   UNL     1     107.912 124.935 148.322  0.00  0.00    +0.000 A 
ATOM     13  C   UNL     1     107.400 124.510 148.867  0.00  0.00    +0.000 A 
ENDROOT
BRANCH   6  16
ATOM     14  O   UNL     1     103.438 122.988 145.376  0.00  0.00    +0.000 OA
ATOM     15  O   UNL     1     102.171 123.833 146.010  0.00  0.00    +0.000 OA
ATOM     16  C   UNL     1     104.488 124.396 146.671  0.00  0.00    +0.000 A 
ATOM     17  C   UNL     1     104.350 123.786 146.134  0.00  0.00    +0.000 A 
ATOM     18  C   UNL     1     103.855 124.819 146.988  0.00  0.00    +0.000 A 
ATOM     19  C   UNL     1     103.577 123.598 145.913  0.00  0.00    +0.000 A 
ATOM     20  C   UNL     1     103.082 124.631 146.768  0.00  0.00    +0.000 A 
ATOM     21  C   UNL     1     102.943 124.021 146.230  0.00  0.00    +0.000 A 
ENDBRANCH   6  16
BRANCH   5  22
ATOM     22  O   UNL     1     105.469 125.210 145.624  0.00  0.00    +0.000 OA
BRANCH  22  28
ATOM     23  O   UNL     1     105.356 126.648 145.910  0.00  0.00    +0.000 OA
ATOM     24  O   UNL     1     105.686 125.846 143.959  0.00  0.00    +0.000 OA
ATOM     25  O   UNL     1     105.587 127.637 144.032  0.00  0.00    +0.000 OA
ATOM     26  C   UNL     1     105.563 126.298 144.638  0.00  0.00    +0.000 C 
ATOM     27  C   UNL     1     105.517 127.121 144.671  0.00  0.00    +0.000 C 
ATOM     28  C   UNL     1     105.463 126.006 145.403  0.00  0.00    +0.000 C 
ATOM     29  C   UNL     1     105.389 127.337 145.457  0.00  0.00    +0.000 C 
BRANCH  29  31
ATOM     30  O   UNL     1     105.113 128.239 146.532  0.00  0.00    +0.000 OA
ATOM     31  C   UNL     1     105.309 128.108 145.741  0.00  0.00    +0.000 C 
ENDBRANCH  29  31
ENDBRANCH  22  28
ENDBRANCH   5  22
TORSDOF 4
ENDMDL
MODEL 2
REMARK VINA RESULT:      -9.1      9.977     11.773
REMARK  Name = 131753138
REMARK  4 active torsions:
REMARK  status: ('A' for Active; 'I' for Inactive)
REMARK    1  A    between atoms: O_2  and  C_14
REMARK    2  A    between atoms: O_2  and  C_16
REMARK    3  A    between atoms: C_15  and  C_18
REMARK    4  A    between atoms: C_17  and  C_20
REMARK                            x       y       z     vdW  Elec       q    Type
REMARK                         _______ _______ _______ _____ _____    ______ ____
ROOT
ATOM      1  O   UNL     1     113.461 126.254 138.685  0.00  0.00    +0.000 OA
ATOM      2  O   UNL     1     111.144 125.439 138.374  0.00  0.00    +0.000 OA
ATOM      3  O   UNL     1     110.742 126.015 139.633  0.00  0.00    +0.000 OA
ATOM      4  O   UNL     1     112.721 127.443 141.238  0.00  0.00    +0.000 OA
ATOM      5  C   UNL     1     112.489 125.556 137.903  0.00  0.00    +0.000 C 
ATOM      6  C   UNL     1     113.261 125.828 138.007  0.00  0.00    +0.000 C 
ATOM      7  C   UNL     1     111.917 125.711 138.477  0.00  0.00    +0.000 C 
ATOM      8  C   UNL     1     112.116 126.137 139.155  0.00  0.00    +0.000 A 
ATOM      9  C   UNL     1     112.889 126.408 139.259  0.00  0.00    +0.000 A 
ATOM     10  C   UNL     1     111.512 126.291 139.745  0.00  0.00    +0.000 A 
ATOM     11  C   UNL     1     113.110 126.853 139.959  0.00  0.00    +0.000 A 
ATOM     12  C   UNL     1     111.714 126.734 140.454  0.00  0.00    +0.000 A 
ATOM     13  C   UNL     1     112.519 127.017 140.561  0.00  0.00    +0.000 A 
ENDROOT
BRANCH   6  16
ATOM     14  O   UNL     1     114.873 126.711 135.819  0.00  0.00    +0.000 OA
ATOM     15  O   UNL     1     115.550 125.210 135.711  0.00  0.00    +0.000 OA
ATOM     16  C   UNL     1     113.833 125.673 137.433  0.00  0.00    +0.000 A 
ATOM     17  C   UNL     1     114.067 126.269 136.913  0.00  0.00    +0.000 A 
ATOM     18  C   UNL     1     114.171 124.923 137.380  0.00  0.00    +0.000 A 
ATOM     19  C   UNL     1     114.639 126.115 136.340  0.00  0.00    +0.000 A 
ATOM     20  C   UNL     1     114.743 124.768 136.806  0.00  0.00    +0.000 A 
ATOM     21  C   UNL     1     114.977 125.365 136.285  0.00  0.00    +0.000 A 
ENDBRANCH   6  16
BRANCH   5  22
ATOM     22  O   UNL     1     112.289 125.130 137.226  0.00  0.00    +0.000 OA
BRANCH  22  28
ATOM     23  O   UNL     1     111.522 126.220 136.605  0.00  0.00    +0.000 OA
ATOM     24  O   UNL     1     111.270 124.159 136.113  0.00  0.00    +0.000 OA
ATOM     25  O   UNL     1     110.207 125.286 135.207  0.00  0.00    +0.000 OA
ATOM     26  C   UNL     1     111.252 124.979 136.194  0.00  0.00    +0.000 C 
ATOM     27  C   UNL     1     110.764 125.498 135.777  0.00  0.00    +0.000 C 
ATOM     28  C   UNL     1     111.721 125.426 136.705  0.00  0.00    +0.000 C 
ATOM     29  C   UNL     1     110.930 126.265 136.032  0.00  0.00    +0.000 C 
BRANCH  29  31
ATOM     30  O   UNL     1     110.911 127.689 135.916  0.00  0.00    +0.000 OA
ATOM     31  C   UNL     1     110.569 126.955 135.760  0.00  0.00    +0.000 C 
ENDBRANCH  29  31
ENDBRANCH  22  28
ENDBRANCH   5  22
TORSDOF 4
ENDMDL
MODEL 3
REMARK VINA RESULT:      -9.0     10.252     12.227
REMARK  Name = 131753138
REMARK  4 active torsions:
REMARK  status: ('A' for Active; 'I' for Inactive)
REMARK    1  A    between atoms: O_2  and  C_14
REMARK    2  A    between atoms: O_2  and  C_16
REMARK    3  A    between atoms: C_15  and  C_18
REMARK    4  A    between atoms: C_17  and  C_20
REMARK                            x       y       z     vdW  Elec       q    Type
REMARK                         _______ _______ _______ _____ _____    ______ ____
ROOT
ATOM      1  O   UNL     1     113.596 127.212 136.515  0.00  0.00    +0.000 OA
ATOM      2  O   UNL     1     112.248 128.232 138.323  0.00  0.00    +0.000 OA
ATOM      3  O   UNL     1     112.523 129.556 137.820  0.00  0.00    +0.000 OA
ATOM      4  O   UNL     1     114.193 129.854 135.442  0.00  0.00    +0.000 OA
ATOM      5  C   UNL     1     112.779 127.072 137.678  0.00  0.00    +0.000 C 
ATOM      6  C   UNL     1     113.228 126.732 137.076  0.00  0.00    +0.000 C 
ATOM      7  C   UNL     1     112.698 127.892 137.720  0.00  0.00    +0.000 C 
ATOM      8  C   UNL     1     113.066 128.372 137.160  0.00  0.00    +0.000 A 
ATOM      9  C   UNL     1     113.515 128.032 136.557  0.00  0.00    +0.000 A 
ATOM     10  C   UNL     1     112.974 129.225 137.214  0.00  0.00    +0.000 A 
ATOM     11  C   UNL     1     113.904 128.521 135.967  0.00  0.00    +0.000 A 
ATOM     12  C   UNL     1     113.355 129.730 136.632  0.00  0.00    +0.000 A 
ATOM     13  C   UNL     1     113.823 129.375 136.005  0.00  0.00    +0.000 A 
ENDROOT
BRANCH   6  16
ATOM     14  O   UNL     1     114.805 124.379 137.452  0.00  0.00    +0.000 OA
ATOM     15  O   UNL     1     113.552 123.453 136.909  0.00  0.00    +0.000 OA
ATOM     16  C   UNL     1     113.309 125.912 137.034  0.00  0.00    +0.000 A 
ATOM     17  C   UNL     1     114.016 125.556 137.264  0.00  0.00    +0.000 A 
ATOM     18  C   UNL     1     112.683 125.449 136.762  0.00  0.00    +0.000 A 
ATOM     19  C   UNL     1     114.097 124.736 137.222  0.00  0.00    +0.000 A 
ATOM     20  C   UNL     1     112.764 124.629 136.721  0.00  0.00    +0.000 A 
ATOM     21  C   UNL     1     113.471 124.272 136.951  0.00  0.00    +0.000 A 
ENDBRANCH   6  16
BRANCH   5  22
ATOM     22  O   UNL     1     112.411 126.592 138.239  0.00  0.00    +0.000 OA
BRANCH  22  28
ATOM     23  O   UNL     1     113.332 126.931 139.333  0.00  0.00    +0.000 OA
ATOM     24  O   UNL     1     111.355 126.182 139.632  0.00  0.00    +0.000 OA
ATOM     25  O   UNL     1     112.271 126.516 141.139  0.00  0.00    +0.000 OA
ATOM     26  C   UNL     1     112.126 126.473 139.677  0.00  0.00    +0.000 C 
ATOM     27  C   UNL     1     112.547 126.626 140.370  0.00  0.00    +0.000 C 
ATOM     28  C   UNL     1     112.611 126.661 139.037  0.00  0.00    +0.000 C 
ATOM     29  C   UNL     1     113.292 126.909 140.158  0.00  0.00    +0.000 C 
BRANCH  29  31
ATOM     30  O   UNL     1     114.683 127.012 140.472  0.00  0.00    +0.000 OA
ATOM     31  C   UNL     1     113.893 127.132 140.678  0.00  0.00    +0.000 C 
ENDBRANCH  29  31
ENDBRANCH  22  28
ENDBRANCH   5  22
TORSDOF 4
ENDMDL
MODEL 4
REMARK VINA RESULT:      -9.0     10.662     11.945
REMARK  Name = 131753138
REMARK  4 active torsions:
REMARK  status: ('A' for Active; 'I' for Inactive)
REMARK    1  A    between atoms: O_2  and  C_14
REMARK    2  A    between atoms: O_2  and  C_16
REMARK    3  A    between atoms: C_15  and  C_18
REMARK    4  A    between atoms: C_17  and  C_20
REMARK                            x       y       z     vdW  Elec       q    Type
REMARK                         _______ _______ _______ _____ _____    ______ ____
ROOT
ATOM      1  O   UNL     1     111.024 125.280 136.522  0.00  0.00    +0.000 OA
ATOM      2  O   UNL     1     113.256 126.287 136.160  0.00  0.00    +0.000 OA
ATOM      3  O   UNL     1     113.904 125.044 136.502  0.00  0.00    +0.000 OA
ATOM      4  O   UNL     1     112.262 122.739 137.224  0.00  0.00    +0.000 OA
ATOM      5  C   UNL     1     111.831 126.405 136.170  0.00  0.00    +0.000 C 
ATOM      6  C   UNL     1     111.087 126.069 136.290  0.00  0.00    +0.000 C 
ATOM      7  C   UNL     1     112.511 125.951 136.281  0.00  0.00    +0.000 C 
ATOM      8  C   UNL     1     112.448 125.162 136.513  0.00  0.00    +0.000 A 
ATOM      9  C   UNL     1     111.704 124.827 136.633  0.00  0.00    +0.000 A 
ATOM     10  C   UNL     1     113.164 124.700 136.625  0.00  0.00    +0.000 A 
ATOM     11  C   UNL     1     111.624 124.006 136.875  0.00  0.00    +0.000 A 
ATOM     12  C   UNL     1     113.104 123.878 136.866  0.00  0.00    +0.000 A 
ATOM     13  C   UNL     1     112.328 123.529 136.992  0.00  0.00    +0.000 A 
ENDROOT
BRANCH   6  16
ATOM     14  O   UNL     1     108.879 127.524 137.373  0.00  0.00    +0.000 OA
ATOM     15  O   UNL     1     108.367 127.884 135.846  0.00  0.00    +0.000 OA
ATOM     16  C   UNL     1     110.407 126.523 136.179  0.00  0.00    +0.000 A 
ATOM     17  C   UNL     1     109.983 126.796 136.832  0.00  0.00    +0.000 A 
ATOM     18  C   UNL     1     110.152 126.702 135.416  0.00  0.00    +0.000 A 
ATOM     19  C   UNL     1     109.303 127.250 136.720  0.00  0.00    +0.000 A 
ATOM     20  C   UNL     1     109.472 127.156 135.305  0.00  0.00    +0.000 A 
ATOM     21  C   UNL     1     109.047 127.430 135.957  0.00  0.00    +0.000 A 
ENDBRANCH   6  16
BRANCH   5  22
ATOM     22  O   UNL     1     111.895 127.194 135.938  0.00  0.00    +0.000 OA
BRANCH  22  28
ATOM     23  O   UNL     1     112.359 127.701 137.237  0.00  0.00    +0.000 OA
ATOM     24  O   UNL     1     112.794 128.640 135.370  0.00  0.00    +0.000 OA
ATOM     25  O   UNL     1     113.482 129.466 136.808  0.00  0.00    +0.000 OA
ATOM     26  C   UNL     1     112.712 128.398 136.154  0.00  0.00    +0.000 C 
ATOM     27  C   UNL     1     113.028 128.777 136.815  0.00  0.00    +0.000 C 
ATOM     28  C   UNL     1     112.298 127.733 136.415  0.00  0.00    +0.000 C 
ATOM     29  C   UNL     1     112.810 128.347 137.485  0.00  0.00    +0.000 C 
BRANCH  29  31
ATOM     30  O   UNL     1     112.565 128.218 138.887  0.00  0.00    +0.000 OA
ATOM     31  C   UNL     1     113.008 128.530 138.265  0.00  0.00    +0.000 C 
ENDBRANCH  29  31
ENDBRANCH  22  28
ENDBRANCH   5  22
TORSDOF 4
ENDMDL
MODEL 5
REMARK VINA RESULT:      -9.0      1.174      3.706
REMARK  Name = 131753138
REMARK  4 active torsions:
REMARK  status: ('A' for Active; 'I' for Inactive)
REMARK    1  A    between atoms: O_2  and  C_14
REMARK    2  A    between atoms: O_2  and  C_16
REMARK    3  A    between atoms: C_15  and  C_18
REMARK    4  A    between atoms: C_17  and  C_20
REMARK                            x       y       z     vdW  Elec       q    Type
REMARK                         _______ _______ _______ _____ _____    ______ ____
ROOT
ATOM      1  O   UNL     1     103.852 124.412 148.181  0.00  0.00    +0.000 OA
ATOM      2  O   UNL     1     104.028 124.100 145.732  0.00  0.00    +0.000 OA
ATOM      3  O   UNL     1     102.608 123.865 145.631  0.00  0.00    +0.000 OA
ATOM      4  O   UNL     1     100.980 123.947 148.055  0.00  0.00    +0.000 OA
ATOM      5  C   UNL     1     104.644 124.371 146.992  0.00  0.00    +0.000 C 
ATOM      6  C   UNL     1     104.586 124.475 147.809  0.00  0.00    +0.000 C 
ATOM      7  C   UNL     1     103.969 124.204 146.548  0.00  0.00    +0.000 C 
ATOM      8  C   UNL     1     103.236 124.142 146.920  0.00  0.00    +0.000 A 
ATOM      9  C   UNL     1     103.177 124.246 147.737  0.00  0.00    +0.000 A 
ATOM     10  C   UNL     1     102.540 123.968 146.447  0.00  0.00    +0.000 A 
ATOM     11  C   UNL     1     102.420 124.183 148.137  0.00  0.00    +0.000 A 
ATOM     12  C   UNL     1     101.773 123.901 146.829  0.00  0.00    +0.000 A 
ATOM     13  C   UNL     1     101.713 124.009 147.680  0.00  0.00    +0.000 A 
ENDROOT
BRANCH   6  16
ATOM     14  O   UNL     1     106.140 126.306 149.357  0.00  0.00    +0.000 OA
ATOM     15  O   UNL     1     107.286 125.142 149.585  0.00  0.00    +0.000 OA
ATOM     16  C   UNL     1     105.261 124.642 148.253  0.00  0.00    +0.000 A 
ATOM     17  C   UNL     1     105.363 125.390 148.583  0.00  0.00    +0.000 A 
ATOM     18  C   UNL     1     105.834 124.059 148.366  0.00  0.00    +0.000 A 
ATOM     19  C   UNL     1     106.038 125.557 149.027  0.00  0.00    +0.000 A 
ATOM     20  C   UNL     1     106.509 124.225 148.810  0.00  0.00    +0.000 A 
ATOM     21  C   UNL     1     106.611 124.975 149.141  0.00  0.00    +0.000 A 
ENDBRANCH   6  16
BRANCH   5  22
ATOM     22  O   UNL     1     105.378 124.434 146.620  0.00  0.00    +0.000 OA
BRANCH  22  28
ATOM     23  O   UNL     1     105.192 125.781 146.061  0.00  0.00    +0.000 OA
ATOM     24  O   UNL     1     106.370 124.261 145.134  0.00  0.00    +0.000 OA
ATOM     25  O   UNL     1     106.308 125.817 144.242  0.00  0.00    +0.000 OA
ATOM     26  C   UNL     1     105.958 124.937 145.366  0.00  0.00    +0.000 C 
ATOM     27  C   UNL     1     105.930 125.652 144.955  0.00  0.00    +0.000 C 
ATOM     28  C   UNL     1     105.502 125.017 146.049  0.00  0.00    +0.000 C 
ATOM     29  C   UNL     1     105.456 126.174 145.385  0.00  0.00    +0.000 C 
BRANCH  29  31
ATOM     30  O   UNL     1     105.125 127.512 145.761  0.00  0.00    +0.000 OA
ATOM     31  C   UNL     1     105.278 126.952 145.175  0.00  0.00    +0.000 C 
ENDBRANCH  29  31
ENDBRANCH  22  28
ENDBRANCH   5  22
TORSDOF 4
ENDMDL
MODEL 6
REMARK VINA RESULT:      -9.0      1.534      4.055
REMARK  Name = 131753138
REMARK  4 active torsions:
REMARK  status: ('A' for Active; 'I' for Inactive)
REMARK    1  A    between atoms: O_2  and  C_14
REMARK    2  A    between atoms: O_2  and  C_16
REMARK    3  A    between atoms: C_15  and  C_18
REMARK    4  A    between atoms: C_17  and  C_20
REMARK                            x       y       z     vdW  Elec       q    Type
REMARK                         _______ _______ _______ _____ _____    ______ ____
ROOT
ATOM      1  O   UNL     1     103.749 125.627 147.512  0.00  0.00    +0.000 OA
ATOM      2  O   UNL     1     105.676 124.617 146.331  0.00  0.00    +0.000 OA
ATOM      3  O   UNL     1     104.863 123.508 145.895  0.00  0.00    +0.000 OA
ATOM      4  O   UNL     1     102.048 123.419 146.668  0.00  0.00    +0.000 OA
ATOM      5  C   UNL     1     105.125 125.666 147.131  0.00  0.00    +0.000 C 
ATOM      6  C   UNL     1     104.483 126.003 147.525  0.00  0.00    +0.000 C 
ATOM      7  C   UNL     1     105.033 124.954 146.725  0.00  0.00    +0.000 C 
ATOM      8  C   UNL     1     104.299 124.578 146.712  0.00  0.00    +0.000 A 
ATOM      9  C   UNL     1     103.656 124.915 147.106  0.00  0.00    +0.000 A 
ATOM     10  C   UNL     1     104.216 123.837 146.286  0.00  0.00    +0.000 A 
ATOM     11  C   UNL     1     102.887 124.534 147.100  0.00  0.00    +0.000 A 
ATOM     12  C   UNL     1     103.453 123.441 146.269  0.00  0.00    +0.000 A 
ATOM     13  C   UNL     1     102.784 123.793 146.679  0.00  0.00    +0.000 A 
ENDROOT
BRANCH   6  16
ATOM     14  O   UNL     1     104.746 128.848 147.503  0.00  0.00    +0.000 OA
ATOM     15  O   UNL     1     104.852 128.851 149.150  0.00  0.00    +0.000 OA
ATOM     16  C   UNL     1     104.575 126.715 147.931  0.00  0.00    +0.000 A 
ATOM     17  C   UNL     1     104.614 127.425 147.514  0.00  0.00    +0.000 A 
ATOM     18  C   UNL     1     104.628 126.716 148.755  0.00  0.00    +0.000 A 
ATOM     19  C   UNL     1     104.707 128.137 147.921  0.00  0.00    +0.000 A 
ATOM     20  C   UNL     1     104.721 127.428 149.161  0.00  0.00    +0.000 A 
ATOM     21  C   UNL     1     104.760 128.139 148.744  0.00  0.00    +0.000 A 
ENDBRANCH   6  16
BRANCH   5  22
ATOM     22  O   UNL     1     105.860 126.042 147.144  0.00  0.00    +0.000 OA
BRANCH  22  28
ATOM     23  O   UNL     1     106.495 125.137 148.114  0.00  0.00    +0.000 OA
ATOM     24  O   UNL     1     107.565 126.208 146.609  0.00  0.00    +0.000 OA
ATOM     25  O   UNL     1     108.581 125.170 147.663  0.00  0.00    +0.000 OA
ATOM     26  C   UNL     1     107.296 125.737 147.230  0.00  0.00    +0.000 C 
ATOM     27  C   UNL     1     107.763 125.260 147.715  0.00  0.00    +0.000 C 
ATOM     28  C   UNL     1     106.512 125.661 147.477  0.00  0.00    +0.000 C 
ATOM     29  C   UNL     1     107.268 124.889 148.261  0.00  0.00    +0.000 C 
BRANCH  29  31
ATOM     30  O   UNL     1     106.957 124.088 149.403  0.00  0.00    +0.000 OA
ATOM     31  C   UNL     1     107.505 124.363 148.851  0.00  0.00    +0.000 C 
ENDBRANCH  29  31
ENDBRANCH  22  28
ENDBRANCH   5  22
TORSDOF 4
ENDMDL
MODEL 7
REMARK VINA RESULT:      -8.9      0.919      3.277
REMARK  Name = 131753138
REMARK  4 active torsions:
REMARK  status: ('A' for Active; 'I' for Inactive)
REMARK    1  A    between atoms: O_2  and  C_14
REMARK    2  A    between atoms: O_2  and  C_16
REMARK    3  A    between atoms: C_15  and  C_18
REMARK    4  A    between atoms: C_17  and  C_20
REMARK                            x       y       z     vdW  Elec       q    Type
REMARK                         _______ _______ _______ _____ _____    ______ ____
ROOT
ATOM      1  O   UNL     1     106.750 125.580 147.112  0.00  0.00    +0.000 OA
ATOM      2  O   UNL     1     104.817 124.698 148.382  0.00  0.00    +0.000 OA
ATOM      3  O   UNL     1     105.693 124.146 149.387  0.00  0.00    +0.000 OA
ATOM      4  O   UNL     1     108.578 124.493 149.101  0.00  0.00    +0.000 OA
ATOM      5  C   UNL     1     105.338 125.407 147.257  0.00  0.00    +0.000 C 
ATOM      6  C   UNL     1     105.983 125.702 146.833  0.00  0.00    +0.000 C 
ATOM      7  C   UNL     1     105.461 124.992 147.959  0.00  0.00    +0.000 C 
ATOM      8  C   UNL     1     106.228 124.871 148.238  0.00  0.00    +0.000 A 
ATOM      9  C   UNL     1     106.872 125.165 147.814  0.00  0.00    +0.000 A 
ATOM     10  C   UNL     1     106.343 124.437 148.970  0.00  0.00    +0.000 A 
ATOM     11  C   UNL     1     107.676 125.045 148.094  0.00  0.00    +0.000 A 
ATOM     12  C   UNL     1     107.139 124.307 149.266  0.00  0.00    +0.000 A 
ATOM     13  C   UNL     1     107.810 124.614 148.824  0.00  0.00    +0.000 A 
ENDROOT
BRANCH   6  16
ATOM     14  O   UNL     1     106.139 125.845 143.983  0.00  0.00    +0.000 OA
ATOM     15  O   UNL     1     105.492 127.362 144.024  0.00  0.00    +0.000 OA
ATOM     16  C   UNL     1     105.860 126.117 146.131  0.00  0.00    +0.000 A 
ATOM     17  C   UNL     1     106.061 125.774 145.409  0.00  0.00    +0.000 A 
ATOM     18  C   UNL     1     105.536 126.875 146.152  0.00  0.00    +0.000 A 
ATOM     19  C   UNL     1     105.938 126.189 144.707  0.00  0.00    +0.000 A 
ATOM     20  C   UNL     1     105.413 127.291 145.450  0.00  0.00    +0.000 A 
ATOM     21  C   UNL     1     105.614 126.947 144.727  0.00  0.00    +0.000 A 
ENDBRANCH   6  16
BRANCH   5  22
ATOM     22  O   UNL     1     104.572 125.529 146.978  0.00  0.00    +0.000 OA
BRANCH  22  28
ATOM     23  O   UNL     1     104.353 124.199 146.392  0.00  0.00    +0.000 OA
ATOM     24  O   UNL     1     102.813 125.368 147.296  0.00  0.00    +0.000 OA
ATOM     25  O   UNL     1     102.277 123.778 146.657  0.00  0.00    +0.000 OA
ATOM     26  C   UNL     1     103.291 124.809 146.922  0.00  0.00    +0.000 C 
ATOM     27  C   UNL     1     103.044 124.078 146.628  0.00  0.00    +0.000 C 
ATOM     28  C   UNL     1     104.099 124.883 146.775  0.00  0.00    +0.000 C 
ATOM     29  C   UNL     1     103.701 123.701 146.301  0.00  0.00    +0.000 C 
BRANCH  29  31
ATOM     30  O   UNL     1     104.327 122.739 145.449  0.00  0.00    +0.000 OA
ATOM     31  C   UNL     1     103.705 122.956 145.945  0.00  0.00    +0.000 C 
ENDBRANCH  29  31
ENDBRANCH  22  28
ENDBRANCH   5  22
TORSDOF 4
ENDMDL
MODEL 8
REMARK VINA RESULT:      -8.9     11.267     12.757
REMARK  Name = 131753138
REMARK  4 active torsions:
REMARK  status: ('A' for Active; 'I' for Inactive)
REMARK    1  A    between atoms: O_2  and  C_14
REMARK    2  A    between atoms: O_2  and  C_16
REMARK    3  A    between atoms: C_15  and  C_18
REMARK    4  A    between atoms: C_17  and  C_20
REMARK                            x       y       z     vdW  Elec       q    Type
REMARK                         _______ _______ _______ _____ _____    ______ ____
ROOT
ATOM      1  O   UNL     1     111.835 129.564 135.857  0.00  0.00    +0.000 OA
ATOM      2  O   UNL     1     112.387 131.060 137.750  0.00  0.00    +0.000 OA
ATOM      3  O   UNL     1     113.784 131.044 137.393  0.00  0.00    +0.000 OA
ATOM      4  O   UNL     1     114.640 129.484 135.077  0.00  0.00    +0.000 OA
ATOM      5  C   UNL     1     111.421 130.329 136.991  0.00  0.00    +0.000 C 
ATOM      6  C   UNL     1     111.237 129.830 136.359  0.00  0.00    +0.000 C 
ATOM      7  C   UNL     1     112.203 130.561 137.119  0.00  0.00    +0.000 C 
ATOM      8  C   UNL     1     112.800 130.296 136.616  0.00  0.00    +0.000 A 
ATOM      9  C   UNL     1     112.616 129.797 135.985  0.00  0.00    +0.000 A 
ATOM     10  C   UNL     1     113.610 130.545 136.759  0.00  0.00    +0.000 A 
ATOM     11  C   UNL     1     113.228 129.513 135.454  0.00  0.00    +0.000 A 
ATOM     12  C   UNL     1     114.236 130.271 136.239  0.00  0.00    +0.000 A 
ATOM     13  C   UNL     1     114.044 129.751 135.581  0.00  0.00    +0.000 A 
ENDROOT
BRANCH   6  16
ATOM     14  O   UNL     1     108.805 130.038 134.874  0.00  0.00    +0.000 OA
ATOM     15  O   UNL     1     108.113 128.900 135.848  0.00  0.00    +0.000 OA
ATOM     16  C   UNL     1     110.456 129.598 136.232  0.00  0.00    +0.000 A 
ATOM     17  C   UNL     1     110.022 129.934 135.617  0.00  0.00    +0.000 A 
ATOM     18  C   UNL     1     110.111 129.029 136.719  0.00  0.00    +0.000 A 
ATOM     19  C   UNL     1     109.241 129.701 135.489  0.00  0.00    +0.000 A 
ATOM     20  C   UNL     1     109.329 128.796 136.591  0.00  0.00    +0.000 A 
ATOM     21  C   UNL     1     108.894 129.133 135.976  0.00  0.00    +0.000 A 
ENDBRANCH   6  16
BRANCH   5  22
ATOM     22  O   UNL     1     110.824 130.595 137.493  0.00  0.00    +0.000 OA
BRANCH  22  28
ATOM     23  O   UNL     1     110.768 131.967 136.968  0.00  0.00    +0.000 OA
ATOM     24  O   UNL     1     110.231 131.436 138.965  0.00  0.00    +0.000 OA
ATOM     25  O   UNL     1     110.071 133.181 138.580  0.00  0.00    +0.000 OA
ATOM     26  C   UNL     1     110.400 131.790 138.239  0.00  0.00    +0.000 C 
ATOM     27  C   UNL     1     110.327 132.592 138.062  0.00  0.00    +0.000 C 
ATOM     28  C   UNL     1     110.673 131.403 137.563  0.00  0.00    +0.000 C 
ATOM     29  C   UNL     1     110.554 132.702 137.276  0.00  0.00    +0.000 C 
BRANCH  29  31
ATOM     30  O   UNL     1     110.327 133.452 136.081  0.00  0.00    +0.000 OA
ATOM     31  C   UNL     1     110.565 133.420 136.870  0.00  0.00    +0.000 C 
ENDBRANCH  29  31
ENDBRANCH  22  28
ENDBRANCH   5  22
TORSDOF 4
ENDMDL
MODEL 9
REMARK VINA RESULT:      -8.9      9.271     11.200
REMARK  Name = 131753138
REMARK  4 active torsions:
REMARK  status: ('A' for Active; 'I' for Inactive)
REMARK    1  A    between atoms: O_2  and  C_14
REMARK    2  A    between atoms: O_2  and  C_16
REMARK    3  A    between atoms: C_15  and  C_18
REMARK    4  A    between atoms: C_17  and  C_20
REMARK                            x       y       z     vdW  Elec       q    Type
REMARK                         _______ _______ _______ _____ _____    ______ ____
ROOT
ATOM      1  O   UNL     1     113.795 126.251 138.253  0.00  0.00    +0.000 OA
ATOM      2  O   UNL     1     111.783 124.853 137.906  0.00  0.00    +0.000 OA
ATOM      3  O   UNL     1     112.394 124.203 136.772  0.00  0.00    +0.000 OA
ATOM      4  O   UNL     1     115.093 124.984 135.975  0.00  0.00    +0.000 OA
ATOM      5  C   UNL     1     112.475 125.866 138.639  0.00  0.00    +0.000 C 
ATOM      6  C   UNL     1     113.146 126.332 138.755  0.00  0.00    +0.000 C 
ATOM      7  C   UNL     1     112.454 125.319 138.022  0.00  0.00    +0.000 C 
ATOM      8  C   UNL     1     113.103 125.238 137.520  0.00  0.00    +0.000 A 
ATOM      9  C   UNL     1     113.774 125.705 137.636  0.00  0.00    +0.000 A 
ATOM     10  C   UNL     1     113.069 124.665 136.881  0.00  0.00    +0.000 A 
ATOM     11  C   UNL     1     114.457 125.630 137.120  0.00  0.00    +0.000 A 
ATOM     12  C   UNL     1     113.743 124.576 136.354  0.00  0.00    +0.000 A 
ATOM     13  C   UNL     1     114.442 125.063 136.476  0.00  0.00    +0.000 A 
ENDROOT
BRANCH   6  16
ATOM     14  O   UNL     1     113.037 129.037 139.669  0.00  0.00    +0.000 OA
ATOM     15  O   UNL     1     113.229 128.519 141.224  0.00  0.00    +0.000 OA
ATOM     16  C   UNL     1     113.166 126.879 139.372  0.00  0.00    +0.000 A 
ATOM     17  C   UNL     1     113.092 127.684 139.212  0.00  0.00    +0.000 A 
ATOM     18  C   UNL     1     113.262 126.620 140.150  0.00  0.00    +0.000 A 
ATOM     19  C   UNL     1     113.112 128.231 139.829  0.00  0.00    +0.000 A 
ATOM     20  C   UNL     1     113.283 127.166 140.767  0.00  0.00    +0.000 A 
ATOM     21  C   UNL     1     113.208 127.973 140.607  0.00  0.00    +0.000 A 
ENDBRANCH   6  16
BRANCH   5  22
ATOM     22  O   UNL     1     111.825 125.947 139.141  0.00  0.00    +0.000 OA
BRANCH  22  28
ATOM     23  O   UNL     1     110.970 126.650 138.174  0.00  0.00    +0.000 OA
ATOM     24  O   UNL     1     110.219 125.481 139.795  0.00  0.00    +0.000 OA
ATOM     25  O   UNL     1     108.960 126.234 138.761  0.00  0.00    +0.000 OA
ATOM     26  C   UNL     1     110.354 125.958 139.135  0.00  0.00    +0.000 C 
ATOM     27  C   UNL     1     109.775 126.304 138.660  0.00  0.00    +0.000 C 
ATOM     28  C   UNL     1     111.093 126.172 138.834  0.00  0.00    +0.000 C 
ATOM     29  C   UNL     1     110.156 126.732 138.066  0.00  0.00    +0.000 C 
BRANCH  29  31
ATOM     30  O   UNL     1     110.194 127.775 137.089  0.00  0.00    +0.000 OA
ATOM     31  C   UNL     1     109.787 127.166 137.468  0.00  0.00    +0.000 C 
ENDBRANCH  29  31
ENDBRANCH  22  28
ENDBRANCH   5  22
TORSDOF 4
ENDMDL
MODEL 10
REMARK VINA RESULT:      -8.9     10.252     12.299
REMARK  Name = 131753138
REMARK  4 active torsions:
REMARK  status: ('A' for Active; 'I' for Inactive)
REMARK    1  A    between atoms: O_2  and  C_14
REMARK    2  A    between atoms: O_2  and  C_16
REMARK    3  A    between atoms: C_15  and  C_18
REMARK    4  A    between atoms: C_17  and  C_20
REMARK                            x       y       z     vdW  Elec       q    Type
REMARK                         _______ _______ _______ _____ _____    ______ ____
ROOT
ATOM      1  O   UNL     1     113.436 126.786 136.765  0.00  0.00    +0.000 OA
ATOM      2  O   UNL     1     111.514 125.396 136.056  0.00  0.00    +0.000 OA
ATOM      3  O   UNL     1     112.238 124.186 136.363  0.00  0.00    +0.000 OA
ATOM      4  O   UNL     1     114.959 124.388 137.407  0.00  0.00    +0.000 OA
ATOM      5  C   UNL     1     112.105 126.682 136.254  0.00  0.00    +0.000 C 
ATOM      6  C   UNL     1     112.746 127.145 136.491  0.00  0.00    +0.000 C 
ATOM      7  C   UNL     1     112.155 125.859 136.293  0.00  0.00    +0.000 C 
ATOM      8  C   UNL     1     112.845 125.499 136.567  0.00  0.00    +0.000 A 
ATOM      9  C   UNL     1     113.485 125.963 136.803  0.00  0.00    +0.000 A 
ATOM     10  C   UNL     1     112.884 124.642 136.602  0.00  0.00    +0.000 A 
ATOM     11  C   UNL     1     114.209 125.601 137.090  0.00  0.00    +0.000 A 
ATOM     12  C   UNL     1     113.600 124.262 136.886  0.00  0.00    +0.000 A 
ATOM     13  C   UNL     1     114.267 124.745 137.132  0.00  0.00    +0.000 A 
ENDROOT
BRANCH   6  16
ATOM     14  O   UNL     1     112.459 129.670 137.797  0.00  0.00    +0.000 OA
ATOM     15  O   UNL     1     112.547 130.435 136.338  0.00  0.00    +0.000 OA
ATOM     16  C   UNL     1     112.696 127.968 136.453  0.00  0.00    +0.000 A 
ATOM     17  C   UNL     1     112.602 128.407 137.144  0.00  0.00    +0.000 A 
ATOM     18  C   UNL     1     112.740 128.350 135.723  0.00  0.00    +0.000 A 
ATOM     19  C   UNL     1     112.553 129.230 137.106  0.00  0.00    +0.000 A 
ATOM     20  C   UNL     1     112.690 129.173 135.685  0.00  0.00    +0.000 A 
ATOM     21  C   UNL     1     112.597 129.613 136.376  0.00  0.00    +0.000 A 
ENDBRANCH   6  16
BRANCH   5  22
ATOM     22  O   UNL     1     111.415 127.041 135.980  0.00  0.00    +0.000 OA
BRANCH  22  28
ATOM     23  O   UNL     1     110.622 126.747 137.183  0.00  0.00    +0.000 OA
ATOM     24  O   UNL     1     109.772 127.143 135.266  0.00  0.00    +0.000 OA
ATOM     25  O   UNL     1     108.579 126.813 136.566  0.00  0.00    +0.000 OA
ATOM     26  C   UNL     1     109.948 126.975 136.054  0.00  0.00    +0.000 C 
ATOM     27  C   UNL     1     109.400 126.823 136.651  0.00  0.00    +0.000 C 
ATOM     28  C   UNL     1     110.703 126.928 136.382  0.00  0.00    +0.000 C 
ATOM     29  C   UNL     1     109.816 126.682 137.350  0.00  0.00    +0.000 C 
BRANCH  29  31
ATOM     30  O   UNL     1     109.923 126.629 138.774  0.00  0.00    +0.000 OA
ATOM     31  C   UNL     1     109.485 126.508 138.085  0.00  0.00    +0.000 C 
ENDBRANCH  29  31
ENDBRANCH  22  28
ENDBRANCH   5  22
TORSDOF 4
ENDMDL
