MODEL 1
REMARK VINA RESULT:      -9.9      0.000      0.000
REMARK  Name = 42607988
REMARK  8 active torsions:
REMARK  status: ('A' for Active; 'I' for Inactive)
REMARK    1  A    between atoms: O_2  and  C_21
REMARK    2  A    between atoms: O_2  and  C_25
REMARK    3  A    between atoms: O_5  and  C_24
REMARK    4  A    between atoms: O_5  and  C_28
REMARK    5  A    between atoms: O_14  and  C_40
REMARK    6  A    between atoms: O_15  and  C_42
REMARK    7  A    between atoms: C_16  and  C_25
REMARK    8  A    between atoms: C_33  and  C_37
REMARK                            x       y       z     vdW  Elec       q    Type
REMARK                         _______ _______ _______ _____ _____    ______ ____
ROOT
ATOM      1  O   UNL     1     112.839 129.459 134.910  0.00  0.00    +0.000 OA
ENDROOT
BRANCH   1   5
ATOM      2  O   UNL     1     111.813 126.936 135.941  0.00  0.00    +0.000 OA
ATOM      3  O   UNL     1     110.018 128.767 134.612  0.00  0.00    +0.000 OA
ATOM      4  O   UNL     1     109.545 127.508 135.136  0.00  0.00    +0.000 OA
ATOM      5  C   UNL     1     112.211 128.936 135.029  0.00  0.00    +0.000 A 
ATOM      6  C   UNL     1     112.342 128.189 135.433  0.00  0.00    +0.000 A 
ATOM      7  C   UNL     1     111.682 127.651 135.552  0.00  0.00    +0.000 A 
ATOM      8  C   UNL     1     111.424 129.135 134.749  0.00  0.00    +0.000 A 
ATOM      9  C   UNL     1     110.926 127.842 135.284  0.00  0.00    +0.000 A 
ATOM     10  C   UNL     1     111.188 126.411 136.062  0.00  0.00    +0.000 C 
ATOM     11  C   UNL     1     110.432 126.601 135.793  0.00  0.00    +0.000 C 
ATOM     12  C   UNL     1     110.776 128.584 134.877  0.00  0.00    +0.000 A 
ATOM     13  C   UNL     1     110.301 127.317 135.404  0.00  0.00    +0.000 C 
BRANCH  10  14
ATOM     14  C   UNL     1     111.319 125.695 136.451  0.00  0.00    +0.000 A 
ATOM     15  C   UNL     1     111.238 125.651 137.271  0.00  0.00    +0.000 A 
ATOM     16  C   UNL     1     111.530 125.024 136.021  0.00  0.00    +0.000 A 
ATOM     17  C   UNL     1     111.369 124.936 137.661  0.00  0.00    +0.000 A 
ATOM     18  C   UNL     1     111.661 124.309 136.410  0.00  0.00    +0.000 A 
ATOM     19  C   UNL     1     111.580 124.265 137.230  0.00  0.00    +0.000 A 
BRANCH  17  20
ATOM     20  O   UNL     1     111.289 124.891 138.481  0.00  0.00    +0.000 OA
ATOM     21  C   UNL     1     110.998 125.538 138.902  0.00  0.00    +0.000 C 
ENDBRANCH  17  20
BRANCH  19  22
ATOM     22  O   UNL     1     111.711 123.549 137.619  0.00  0.00    +0.000 OA
ATOM     23  C   UNL     1     111.939 122.881 137.190  0.00  0.00    +0.000 C 
ENDBRANCH  19  22
ENDBRANCH  10  14
ENDBRANCH   1   5
BRANCH   1  32
ATOM     24  O   UNL     1     112.680 130.164 136.142  0.00  0.00    +0.000 OA
ATOM     25  O   UNL     1     114.157 131.067 137.472  0.00  0.00    +0.000 OA
ATOM     26  O   UNL     1     115.133 130.459 136.289  0.00  0.00    +0.000 OA
ATOM     27  O   UNL     1     114.474 129.655 135.008  0.00  0.00    +0.000 OA
ATOM     28  C   UNL     1     113.009 130.566 136.782  0.00  0.00    +0.000 C 
ATOM     29  C   UNL     1     113.827 130.665 136.832  0.00  0.00    +0.000 C 
ATOM     30  C   UNL     1     114.315 130.361 136.240  0.00  0.00    +0.000 C 
ATOM     31  C   UNL     1     113.985 129.959 135.599  0.00  0.00    +0.000 C 
ATOM     32  C   UNL     1     113.168 129.861 135.550  0.00  0.00    +0.000 C 
BRANCH  28  33
ATOM     33  C   UNL     1     112.521 130.870 137.374  0.00  0.00    +0.000 C 
BRANCH  33  34
ATOM     34  O   UNL     1     111.851 131.307 137.173  0.00  0.00    +0.000 OA
BRANCH  34  40
ATOM     35  O   UNL     1     111.180 130.927 138.376  0.00  0.00    +0.000 OA
ATOM     36  O   UNL     1     110.836 132.598 137.014  0.00  0.00    +0.000 OA
ATOM     37  O   UNL     1     109.657 132.863 138.138  0.00  0.00    +0.000 OA
ATOM     38  O   UNL     1     109.493 131.838 139.420  0.00  0.00    +0.000 OA
ATOM     39  C   UNL     1     110.754 132.085 137.656  0.00  0.00    +0.000 C 
ATOM     40  C   UNL     1     111.262 131.439 137.736  0.00  0.00    +0.000 C 
ATOM     41  C   UNL     1     110.164 132.218 138.217  0.00  0.00    +0.000 C 
ATOM     42  C   UNL     1     110.083 131.705 138.858  0.00  0.00    +0.000 C 
ATOM     43  C   UNL     1     110.591 131.059 138.937  0.00  0.00    +0.000 C 
ATOM     44  C   UNL     1     110.508 130.547 139.579  0.00  0.00    +0.000 C 
ENDBRANCH  34  40
ENDBRANCH  33  34
ENDBRANCH  28  33
ENDBRANCH   1  32
TORSDOF 8
ENDMDL
MODEL 2
REMARK VINA RESULT:      -9.9      1.880      5.606
REMARK  Name = 42607988
REMARK  8 active torsions:
REMARK  status: ('A' for Active; 'I' for Inactive)
REMARK    1  A    between atoms: O_2  and  C_21
REMARK    2  A    between atoms: O_2  and  C_25
REMARK    3  A    between atoms: O_5  and  C_24
REMARK    4  A    between atoms: O_5  and  C_28
REMARK    5  A    between atoms: O_14  and  C_40
REMARK    6  A    between atoms: O_15  and  C_42
REMARK    7  A    between atoms: C_16  and  C_25
REMARK    8  A    between atoms: C_33  and  C_37
REMARK                            x       y       z     vdW  Elec       q    Type
REMARK                         _______ _______ _______ _____ _____    ______ ____
ROOT
ATOM      1  O   UNL     1     110.535 129.645 135.432  0.00  0.00    +0.000 OA
ENDROOT
BRANCH   1   5
ATOM      2  O   UNL     1     112.661 129.831 137.414  0.00  0.00    +0.000 OA
ATOM      3  O   UNL     1     113.294 129.004 134.719  0.00  0.00    +0.000 OA
ATOM      4  O   UNL     1     114.321 129.108 135.727  0.00  0.00    +0.000 OA
ATOM      5  C   UNL     1     111.332 129.571 135.638  0.00  0.00    +0.000 A 
ATOM      6  C   UNL     1     111.589 129.744 136.439  0.00  0.00    +0.000 A 
ATOM      7  C   UNL     1     112.420 129.664 136.643  0.00  0.00    +0.000 A 
ATOM      8  C   UNL     1     111.907 129.320 135.052  0.00  0.00    +0.000 A 
ATOM      9  C   UNL     1     112.973 129.422 136.081  0.00  0.00    +0.000 A 
ATOM     10  C   UNL     1     113.456 129.758 137.622  0.00  0.00    +0.000 C 
ATOM     11  C   UNL     1     114.010 129.517 137.060  0.00  0.00    +0.000 C 
ATOM     12  C   UNL     1     112.734 129.245 135.275  0.00  0.00    +0.000 A 
ATOM     13  C   UNL     1     113.768 129.349 136.290  0.00  0.00    +0.000 C 
BRANCH  10  14
ATOM     14  C   UNL     1     113.698 129.925 138.393  0.00  0.00    +0.000 A 
ATOM     15  C   UNL     1     113.475 129.429 139.013  0.00  0.00    +0.000 A 
ATOM     16  C   UNL     1     114.163 130.589 138.545  0.00  0.00    +0.000 A 
ATOM     17  C   UNL     1     113.716 129.596 139.784  0.00  0.00    +0.000 A 
ATOM     18  C   UNL     1     114.404 130.757 139.315  0.00  0.00    +0.000 A 
ATOM     19  C   UNL     1     114.181 130.260 139.935  0.00  0.00    +0.000 A 
BRANCH  17  20
ATOM     20  O   UNL     1     113.493 129.099 140.404  0.00  0.00    +0.000 OA
ATOM     21  C   UNL     1     113.355 128.298 140.261  0.00  0.00    +0.000 C 
ENDBRANCH  17  20
BRANCH  19  22
ATOM     22  O   UNL     1     114.423 130.428 140.705  0.00  0.00    +0.000 OA
ATOM     23  C   UNL     1     114.956 131.042 140.847  0.00  0.00    +0.000 C 
ENDBRANCH  19  22
ENDBRANCH  10  14
ENDBRANCH   1   5
BRANCH   1  32
ATOM     24  O   UNL     1     110.271 128.325 135.911  0.00  0.00    +0.000 OA
ATOM     25  O   UNL     1     108.384 127.290 136.279  0.00  0.00    +0.000 OA
ATOM     26  O   UNL     1     107.838 128.752 135.744  0.00  0.00    +0.000 OA
ATOM     27  O   UNL     1     108.914 129.930 135.320  0.00  0.00    +0.000 OA
ATOM     28  C   UNL     1     109.734 127.737 136.123  0.00  0.00    +0.000 C 
ATOM     29  C   UNL     1     108.922 127.879 136.067  0.00  0.00    +0.000 C 
ATOM     30  C   UNL     1     108.650 128.610 135.800  0.00  0.00    +0.000 C 
ATOM     31  C   UNL     1     109.188 129.199 135.588  0.00  0.00    +0.000 C 
ATOM     32  C   UNL     1     109.998 129.056 135.644  0.00  0.00    +0.000 C 
BRANCH  28  33
ATOM     33  C   UNL     1     110.006 127.005 136.391  0.00  0.00    +0.000 C 
BRANCH  33  34
ATOM     34  O   UNL     1     110.505 126.551 135.915  0.00  0.00    +0.000 OA
BRANCH  34  40
ATOM     35  O   UNL     1     111.471 126.203 136.909  0.00  0.00    +0.000 OA
ATOM     36  O   UNL     1     110.581 125.021 135.304  0.00  0.00    +0.000 OA
ATOM     37  O   UNL     1     111.586 123.907 135.991  0.00  0.00    +0.000 OA
ATOM     38  O   UNL     1     112.515 124.324 137.290  0.00  0.00    +0.000 OA
ATOM     39  C   UNL     1     111.046 125.230 135.954  0.00  0.00    +0.000 C 
ATOM     40  C   UNL     1     111.007 125.995 136.260  0.00  0.00    +0.000 C 
ATOM     41  C   UNL     1     111.548 124.672 136.297  0.00  0.00    +0.000 C 
ATOM     42  C   UNL     1     112.012 124.882 136.946  0.00  0.00    +0.000 C 
ATOM     43  C   UNL     1     111.973 125.647 137.252  0.00  0.00    +0.000 C 
ATOM     44  C   UNL     1     112.438 125.855 137.902  0.00  0.00    +0.000 C 
ENDBRANCH  34  40
ENDBRANCH  33  34
ENDBRANCH  28  33
ENDBRANCH   1  32
TORSDOF 8
ENDMDL
MODEL 3
REMARK VINA RESULT:      -9.9      9.156     12.412
REMARK  Name = 42607988
REMARK  8 active torsions:
REMARK  status: ('A' for Active; 'I' for Inactive)
REMARK    1  A    between atoms: O_2  and  C_21
REMARK    2  A    between atoms: O_2  and  C_25
REMARK    3  A    between atoms: O_5  and  C_24
REMARK    4  A    between atoms: O_5  and  C_28
REMARK    5  A    between atoms: O_14  and  C_40
REMARK    6  A    between atoms: O_15  and  C_42
REMARK    7  A    between atoms: C_16  and  C_25
REMARK    8  A    between atoms: C_33  and  C_37
REMARK                            x       y       z     vdW  Elec       q    Type
REMARK                         _______ _______ _______ _____ _____    ______ ____
ROOT
ATOM      1  O   UNL     1     107.268 126.083 146.234  0.00  0.00    +0.000 OA
ENDROOT
BRANCH   1   5
ATOM      2  O   UNL     1     105.750 127.653 144.306  0.00  0.00    +0.000 OA
ATOM      3  O   UNL     1     106.359 128.778 146.896  0.00  0.00    +0.000 OA
ATOM      4  O   UNL     1     105.610 129.526 145.917  0.00  0.00    +0.000 OA
ATOM      5  C   UNL     1     106.873 126.778 146.029  0.00  0.00    +0.000 A 
ATOM      6  C   UNL     1     106.508 126.856 145.255  0.00  0.00    +0.000 A 
ATOM      7  C   UNL     1     106.099 127.584 145.051  0.00  0.00    +0.000 A 
ATOM      8  C   UNL     1     106.824 127.428 146.588  0.00  0.00    +0.000 A 
ATOM      9  C   UNL     1     106.052 128.208 145.588  0.00  0.00    +0.000 A 
ATOM     10  C   UNL     1     105.355 128.347 144.099  0.00  0.00    +0.000 C 
ATOM     11  C   UNL     1     105.308 128.971 144.635  0.00  0.00    +0.000 C 
ATOM     12  C   UNL     1     106.411 128.149 146.366  0.00  0.00    +0.000 A 
ATOM     13  C   UNL     1     105.656 128.902 145.380  0.00  0.00    +0.000 C 
BRANCH  10  14
ATOM     14  C   UNL     1     105.006 128.416 143.354  0.00  0.00    +0.000 A 
ATOM     15  C   UNL     1     105.231 127.908 142.745  0.00  0.00    +0.000 A 
ATOM     16  C   UNL     1     104.433 128.993 143.219  0.00  0.00    +0.000 A 
ATOM     17  C   UNL     1     104.883 127.976 142.000  0.00  0.00    +0.000 A 
ATOM     18  C   UNL     1     104.085 129.062 142.475  0.00  0.00    +0.000 A 
ATOM     19  C   UNL     1     104.309 128.554 141.865  0.00  0.00    +0.000 A 
BRANCH  17  20
ATOM     20  O   UNL     1     105.107 127.468 141.390  0.00  0.00    +0.000 OA
ATOM     21  C   UNL     1     105.520 126.774 141.562  0.00  0.00    +0.000 C 
ENDBRANCH  17  20
BRANCH  19  22
ATOM     22  O   UNL     1     103.961 128.623 141.121  0.00  0.00    +0.000 OA
ATOM     23  C   UNL     1     103.368 129.183 140.992  0.00  0.00    +0.000 C 
ENDBRANCH  19  22
ENDBRANCH  10  14
ENDBRANCH   1   5
BRANCH   1  32
ATOM     24  O   UNL     1     106.185 125.329 146.782  0.00  0.00    +0.000 OA
ATOM     25  O   UNL     1     106.055 124.132 148.603  0.00  0.00    +0.000 OA
ATOM     26  O   UNL     1     107.614 124.665 148.691  0.00  0.00    +0.000 OA
ATOM     27  O   UNL     1     108.221 125.640 147.506  0.00  0.00    +0.000 OA
ATOM     28  C   UNL     1     105.882 124.842 147.374  0.00  0.00    +0.000 C 
ATOM     29  C   UNL     1     106.358 124.620 148.011  0.00  0.00    +0.000 C 
ATOM     30  C   UNL     1     107.138 124.886 148.054  0.00  0.00    +0.000 C 
ATOM     31  C   UNL     1     107.441 125.374 147.462  0.00  0.00    +0.000 C 
ATOM     32  C   UNL     1     106.965 125.595 146.826  0.00  0.00    +0.000 C 
BRANCH  28  33
ATOM     33  C   UNL     1     105.102 124.575 147.331  0.00  0.00    +0.000 C 
BRANCH  33  34
ATOM     34  O   UNL     1     104.841 124.168 146.662  0.00  0.00    +0.000 OA
BRANCH  34  40
ATOM     35  O   UNL     1     103.480 124.381 147.042  0.00  0.00    +0.000 OA
ATOM     36  O   UNL     1     104.354 123.074 145.528  0.00  0.00    +0.000 OA
ATOM     37  O   UNL     1     102.749 122.739 145.340  0.00  0.00    +0.000 OA
ATOM     38  O   UNL     1     101.632 123.499 146.287  0.00  0.00    +0.000 OA
ATOM     39  C   UNL     1     103.795 123.454 146.002  0.00  0.00    +0.000 C 
ATOM     40  C   UNL     1     104.038 124.001 146.569  0.00  0.00    +0.000 C 
ATOM     41  C   UNL     1     102.993 123.286 145.907  0.00  0.00    +0.000 C 
ATOM     42  C   UNL     1     102.435 123.666 146.381  0.00  0.00    +0.000 C 
ATOM     43  C   UNL     1     102.678 124.214 146.948  0.00  0.00    +0.000 C 
ATOM     44  C   UNL     1     102.119 124.593 147.422  0.00  0.00    +0.000 C 
ENDBRANCH  34  40
ENDBRANCH  33  34
ENDBRANCH  28  33
ENDBRANCH   1  32
TORSDOF 8
ENDMDL
MODEL 4
REMARK VINA RESULT:      -9.8      2.435      6.022
REMARK  Name = 42607988
REMARK  8 active torsions:
REMARK  status: ('A' for Active; 'I' for Inactive)
REMARK    1  A    between atoms: O_2  and  C_21
REMARK    2  A    between atoms: O_2  and  C_25
REMARK    3  A    between atoms: O_5  and  C_24
REMARK    4  A    between atoms: O_5  and  C_28
REMARK    5  A    between atoms: O_14  and  C_40
REMARK    6  A    between atoms: O_15  and  C_42
REMARK    7  A    between atoms: C_16  and  C_25
REMARK    8  A    between atoms: C_33  and  C_37
REMARK                            x       y       z     vdW  Elec       q    Type
REMARK                         _______ _______ _______ _____ _____    ______ ____
ROOT
ATOM      1  O   UNL     1     112.721 129.178 139.735  0.00  0.00    +0.000 OA
ENDROOT
BRANCH   1   5
ATOM      2  O   UNL     1     110.903 129.932 137.587  0.00  0.00    +0.000 OA
ATOM      3  O   UNL     1     113.738 129.757 137.059  0.00  0.00    +0.000 OA
ATOM      4  O   UNL     1     112.808 130.128 136.020  0.00  0.00    +0.000 OA
ATOM      5  C   UNL     1     112.592 129.395 138.949  0.00  0.00    +0.000 A 
ATOM      6  C   UNL     1     111.795 129.555 138.670  0.00  0.00    +0.000 A 
ATOM      7  C   UNL     1     111.670 129.780 137.850  0.00  0.00    +0.000 A 
ATOM      8  C   UNL     1     113.253 129.463 138.405  0.00  0.00    +0.000 A 
ATOM      9  C   UNL     1     112.306 129.845 137.328  0.00  0.00    +0.000 A 
ATOM     10  C   UNL     1     110.771 130.150 136.803  0.00  0.00    +0.000 C 
ATOM     11  C   UNL     1     111.406 130.215 136.280  0.00  0.00    +0.000 C 
ATOM     12  C   UNL     1     113.110 129.690 137.588  0.00  0.00    +0.000 A 
ATOM     13  C   UNL     1     112.173 130.063 136.542  0.00  0.00    +0.000 C 
BRANCH  10  14
ATOM     14  C   UNL     1     110.004 130.302 136.540  0.00  0.00    +0.000 A 
ATOM     15  C   UNL     1     109.504 129.676 136.342  0.00  0.00    +0.000 A 
ATOM     16  C   UNL     1     109.736 131.079 136.475  0.00  0.00    +0.000 A 
ATOM     17  C   UNL     1     108.737 129.827 136.079  0.00  0.00    +0.000 A 
ATOM     18  C   UNL     1     108.970 131.231 136.213  0.00  0.00    +0.000 A 
ATOM     19  C   UNL     1     108.470 130.605 136.015  0.00  0.00    +0.000 A 
BRANCH  17  20
ATOM     20  O   UNL     1     108.237 129.202 135.881  0.00  0.00    +0.000 OA
ATOM     21  C   UNL     1     108.542 128.439 135.802  0.00  0.00    +0.000 C 
ENDBRANCH  17  20
BRANCH  19  22
ATOM     22  O   UNL     1     107.703 130.757 135.752  0.00  0.00    +0.000 OA
ATOM     23  C   UNL     1     107.400 131.525 135.781  0.00  0.00    +0.000 C 
ENDBRANCH  19  22
ENDBRANCH  10  14
ENDBRANCH   1   5
BRANCH   1  32
ATOM     24  O   UNL     1     112.666 127.772 139.485  0.00  0.00    +0.000 OA
ATOM     25  O   UNL     1     111.987 126.123 140.745  0.00  0.00    +0.000 OA
ATOM     26  O   UNL     1     111.731 127.408 141.748  0.00  0.00    +0.000 OA
ATOM     27  O   UNL     1     112.098 128.935 141.243  0.00  0.00    +0.000 OA
ATOM     28  C   UNL     1     112.482 127.008 139.737  0.00  0.00    +0.000 C 
ATOM     29  C   UNL     1     112.170 126.887 140.492  0.00  0.00    +0.000 C 
ATOM     30  C   UNL     1     112.043 127.529 140.993  0.00  0.00    +0.000 C 
ATOM     31  C   UNL     1     112.226 128.293 140.741  0.00  0.00    +0.000 C 
ATOM     32  C   UNL     1     112.537 128.414 139.987  0.00  0.00    +0.000 C 
BRANCH  28  33
ATOM     33  C   UNL     1     112.610 126.366 139.236  0.00  0.00    +0.000 C 
BRANCH  33  34
ATOM     34  O   UNL     1     113.321 126.300 138.822  0.00  0.00    +0.000 OA
BRANCH  34  40
ATOM     35  O   UNL     1     112.727 125.482 137.812  0.00  0.00    +0.000 OA
ATOM     36  O   UNL     1     114.809 125.707 138.427  0.00  0.00    +0.000 OA
ATOM     37  O   UNL     1     114.960 124.593 137.219  0.00  0.00    +0.000 OA
ATOM     38  O   UNL     1     113.622 124.071 136.407  0.00  0.00    +0.000 OA
ATOM     39  C   UNL     1     114.139 125.446 138.021  0.00  0.00    +0.000 C 
ATOM     40  C   UNL     1     113.395 125.742 138.218  0.00  0.00    +0.000 C 
ATOM     41  C   UNL     1     114.215 124.889 137.417  0.00  0.00    +0.000 C 
ATOM     42  C   UNL     1     113.546 124.629 137.011  0.00  0.00    +0.000 C 
ATOM     43  C   UNL     1     112.802 124.925 137.209  0.00  0.00    +0.000 C 
ATOM     44  C   UNL     1     112.133 124.663 136.802  0.00  0.00    +0.000 C 
ENDBRANCH  34  40
ENDBRANCH  33  34
ENDBRANCH  28  33
ENDBRANCH   1  32
TORSDOF 8
ENDMDL
MODEL 5
REMARK VINA RESULT:      -9.8      1.659      2.799
REMARK  Name = 42607988
REMARK  8 active torsions:
REMARK  status: ('A' for Active; 'I' for Inactive)
REMARK    1  A    between atoms: O_2  and  C_21
REMARK    2  A    between atoms: O_2  and  C_25
REMARK    3  A    between atoms: O_5  and  C_24
REMARK    4  A    between atoms: O_5  and  C_28
REMARK    5  A    between atoms: O_14  and  C_40
REMARK    6  A    between atoms: O_15  and  C_42
REMARK    7  A    between atoms: C_16  and  C_25
REMARK    8  A    between atoms: C_33  and  C_37
REMARK                            x       y       z     vdW  Elec       q    Type
REMARK                         _______ _______ _______ _____ _____    ______ ____
ROOT
ATOM      1  O   UNL     1     110.365 130.337 135.676  0.00  0.00    +0.000 OA
ENDROOT
BRANCH   1   5
ATOM      2  O   UNL     1     110.493 127.500 136.322  0.00  0.00    +0.000 OA
ATOM      3  O   UNL     1     107.940 128.711 135.721  0.00  0.00    +0.000 OA
ATOM      4  O   UNL     1     108.042 127.309 136.045  0.00  0.00    +0.000 OA
ATOM      5  C   UNL     1     109.990 129.611 135.789  0.00  0.00    +0.000 A 
ATOM      6  C   UNL     1     110.448 128.916 136.002  0.00  0.00    +0.000 A 
ATOM      7  C   UNL     1     110.048 128.164 136.117  0.00  0.00    +0.000 A 
ATOM      8  C   UNL     1     109.139 129.545 135.692  0.00  0.00    +0.000 A 
ATOM      9  C   UNL     1     109.231 128.100 136.024  0.00  0.00    +0.000 A 
ATOM     10  C   UNL     1     110.121 126.773 136.435  0.00  0.00    +0.000 C 
ATOM     11  C   UNL     1     109.304 126.708 136.342  0.00  0.00    +0.000 C 
ATOM     12  C   UNL     1     108.756 128.784 135.811  0.00  0.00    +0.000 A 
ATOM     13  C   UNL     1     108.859 127.372 136.137  0.00  0.00    +0.000 C 
BRANCH  10  14
ATOM     14  C   UNL     1     110.566 126.109 136.640  0.00  0.00    +0.000 A 
ATOM     15  C   UNL     1     110.741 125.958 137.432  0.00  0.00    +0.000 A 
ATOM     16  C   UNL     1     110.836 125.595 136.054  0.00  0.00    +0.000 A 
ATOM     17  C   UNL     1     111.185 125.295 137.638  0.00  0.00    +0.000 A 
ATOM     18  C   UNL     1     111.280 124.932 136.259  0.00  0.00    +0.000 A 
ATOM     19  C   UNL     1     111.455 124.781 137.051  0.00  0.00    +0.000 A 
BRANCH  17  20
ATOM     20  O   UNL     1     111.360 125.144 138.430  0.00  0.00    +0.000 OA
ATOM     21  C   UNL     1     111.380 125.764 138.973  0.00  0.00    +0.000 C 
ENDBRANCH  17  20
BRANCH  19  22
ATOM     22  O   UNL     1     111.900 124.118 137.256  0.00  0.00    +0.000 OA
ATOM     23  C   UNL     1     112.067 123.540 136.690  0.00  0.00    +0.000 C 
ENDBRANCH  19  22
ENDBRANCH  10  14
ENDBRANCH   1   5
BRANCH   1  32
ATOM     24  O   UNL     1     110.858 130.643 136.982  0.00  0.00    +0.000 OA
ATOM     25  O   UNL     1     110.663 132.447 138.196  0.00  0.00    +0.000 OA
ATOM     26  O   UNL     1     109.828 132.890 136.844  0.00  0.00    +0.000 OA
ATOM     27  O   UNL     1     109.679 131.835 135.584  0.00  0.00    +0.000 OA
ATOM     28  C   UNL     1     110.932 131.170 137.612  0.00  0.00    +0.000 C 
ATOM     29  C   UNL     1     110.589 131.920 137.566  0.00  0.00    +0.000 C 
ATOM     30  C   UNL     1     110.171 132.141 136.890  0.00  0.00    +0.000 C 
ATOM     31  C   UNL     1     110.097 131.613 136.260  0.00  0.00    +0.000 C 
ATOM     32  C   UNL     1     110.440 130.865 136.306  0.00  0.00    +0.000 C 
BRANCH  28  33
ATOM     33  C   UNL     1     111.350 130.950 138.289  0.00  0.00    +0.000 C 
BRANCH  33  34
ATOM     34  O   UNL     1     112.114 130.647 138.222  0.00  0.00    +0.000 OA
BRANCH  34  40
ATOM     35  O   UNL     1     112.048 129.869 139.419  0.00  0.00    +0.000 OA
ATOM     36  O   UNL     1     113.731 130.874 138.459  0.00  0.00    +0.000 OA
ATOM     37  O   UNL     1     114.473 130.209 139.774  0.00  0.00    +0.000 OA
ATOM     38  O   UNL     1     113.598 129.318 140.853  0.00  0.00    +0.000 OA
ATOM     39  C   UNL     1     113.293 130.428 138.998  0.00  0.00    +0.000 C 
ATOM     40  C   UNL     1     112.485 130.314 138.880  0.00  0.00    +0.000 C 
ATOM     41  C   UNL     1     113.665 130.096 139.656  0.00  0.00    +0.000 C 
ATOM     42  C   UNL     1     113.227 129.650 140.194  0.00  0.00    +0.000 C 
ATOM     43  C   UNL     1     112.418 129.537 140.076  0.00  0.00    +0.000 C 
ATOM     44  C   UNL     1     111.981 129.091 140.615  0.00  0.00    +0.000 C 
ENDBRANCH  34  40
ENDBRANCH  33  34
ENDBRANCH  28  33
ENDBRANCH   1  32
TORSDOF 8
ENDMDL
MODEL 6
REMARK VINA RESULT:      -9.8      1.768      6.176
REMARK  Name = 42607988
REMARK  8 active torsions:
REMARK  status: ('A' for Active; 'I' for Inactive)
REMARK    1  A    between atoms: O_2  and  C_21
REMARK    2  A    between atoms: O_2  and  C_25
REMARK    3  A    between atoms: O_5  and  C_24
REMARK    4  A    between atoms: O_5  and  C_28
REMARK    5  A    between atoms: O_14  and  C_40
REMARK    6  A    between atoms: O_15  and  C_42
REMARK    7  A    between atoms: C_16  and  C_25
REMARK    8  A    between atoms: C_33  and  C_37
REMARK                            x       y       z     vdW  Elec       q    Type
REMARK                         _______ _______ _______ _____ _____    ______ ____
ROOT
ATOM      1  O   UNL     1     112.483 128.018 140.327  0.00  0.00    +0.000 OA
ENDROOT
BRANCH   1   5
ATOM      2  O   UNL     1     113.284 129.440 137.915  0.00  0.00    +0.000 OA
ATOM      3  O   UNL     1     111.290 130.598 139.656  0.00  0.00    +0.000 OA
ATOM      4  O   UNL     1     111.711 131.274 138.453  0.00  0.00    +0.000 OA
ATOM      5  C   UNL     1     112.418 128.671 139.826  0.00  0.00    +0.000 A 
ATOM      6  C   UNL     1     112.896 128.717 139.114  0.00  0.00    +0.000 A 
ATOM      7  C   UNL     1     112.822 129.400 138.598  0.00  0.00    +0.000 A 
ATOM      8  C   UNL     1     111.872 129.306 140.013  0.00  0.00    +0.000 A 
ATOM      9  C   UNL     1     112.298 130.012 138.777  0.00  0.00    +0.000 A 
ATOM     10  C   UNL     1     113.221 130.091 137.412  0.00  0.00    +0.000 C 
ATOM     11  C   UNL     1     112.698 130.702 137.591  0.00  0.00    +0.000 C 
ATOM     12  C   UNL     1     111.811 129.982 139.485  0.00  0.00    +0.000 A 
ATOM     13  C   UNL     1     112.236 130.663 138.274  0.00  0.00    +0.000 C 
BRANCH  10  14
ATOM     14  C   UNL     1     113.683 130.131 136.730  0.00  0.00    +0.000 A 
ATOM     15  C   UNL     1     113.436 129.749 136.042  0.00  0.00    +0.000 A 
ATOM     16  C   UNL     1     114.392 130.553 136.734  0.00  0.00    +0.000 A 
ATOM     17  C   UNL     1     113.897 129.788 135.359  0.00  0.00    +0.000 A 
ATOM     18  C   UNL     1     114.853 130.592 136.052  0.00  0.00    +0.000 A 
ATOM     19  C   UNL     1     114.606 130.210 135.364  0.00  0.00    +0.000 A 
BRANCH  17  20
ATOM     20  O   UNL     1     113.650 129.406 134.670  0.00  0.00    +0.000 OA
ATOM     21  C   UNL     1     112.878 129.119 134.612  0.00  0.00    +0.000 C 
ENDBRANCH  17  20
BRANCH  19  22
ATOM     22  O   UNL     1     115.068 130.250 134.682  0.00  0.00    +0.000 OA
ATOM     23  C   UNL     1     115.709 130.768 134.646  0.00  0.00    +0.000 C 
ENDBRANCH  19  22
ENDBRANCH  10  14
ENDBRANCH   1   5
BRANCH   1  32
ATOM     24  O   UNL     1     111.667 127.102 139.595  0.00  0.00    +0.000 OA
ATOM     25  O   UNL     1     110.175 125.660 140.273  0.00  0.00    +0.000 OA
ATOM     26  O   UNL     1     110.654 126.313 141.711  0.00  0.00    +0.000 OA
ATOM     27  O   UNL     1     111.808 127.492 141.738  0.00  0.00    +0.000 OA
ATOM     28  C   UNL     1     111.090 126.513 139.581  0.00  0.00    +0.000 C 
ATOM     29  C   UNL     1     110.752 126.249 140.287  0.00  0.00    +0.000 C 
ATOM     30  C   UNL     1     110.992 126.576 141.005  0.00  0.00    +0.000 C 
ATOM     31  C   UNL     1     111.569 127.166 141.019  0.00  0.00    +0.000 C 
ATOM     32  C   UNL     1     111.906 127.428 140.314  0.00  0.00    +0.000 C 
BRANCH  28  33
ATOM     33  C   UNL     1     110.850 126.186 138.863  0.00  0.00    +0.000 C 
BRANCH  33  34
ATOM     34  O   UNL     1     111.403 125.829 138.366  0.00  0.00    +0.000 OA
BRANCH  34  40
ATOM     35  O   UNL     1     110.729 126.191 137.159  0.00  0.00    +0.000 OA
ATOM     36  O   UNL     1     111.975 124.463 137.638  0.00  0.00    +0.000 OA
ATOM     37  O   UNL     1     111.587 124.142 136.066  0.00  0.00    +0.000 OA
ATOM     38  O   UNL     1     110.627 125.186 135.223  0.00  0.00    +0.000 OA
ATOM     39  C   UNL     1     111.495 124.986 137.216  0.00  0.00    +0.000 C 
ATOM     40  C   UNL     1     111.209 125.669 137.580  0.00  0.00    +0.000 C 
ATOM     41  C   UNL     1     111.301 124.825 136.431  0.00  0.00    +0.000 C 
ATOM     42  C   UNL     1     110.821 125.347 136.010  0.00  0.00    +0.000 C 
ATOM     43  C   UNL     1     110.535 126.030 136.374  0.00  0.00    +0.000 C 
ATOM     44  C   UNL     1     110.056 126.552 135.952  0.00  0.00    +0.000 C 
ENDBRANCH  34  40
ENDBRANCH  33  34
ENDBRANCH  28  33
ENDBRANCH   1  32
TORSDOF 8
ENDMDL
MODEL 7
REMARK VINA RESULT:      -9.8      2.875      3.962
REMARK  Name = 42607988
REMARK  8 active torsions:
REMARK  status: ('A' for Active; 'I' for Inactive)
REMARK    1  A    between atoms: O_2  and  C_21
REMARK    2  A    between atoms: O_2  and  C_25
REMARK    3  A    between atoms: O_5  and  C_24
REMARK    4  A    between atoms: O_5  and  C_28
REMARK    5  A    between atoms: O_14  and  C_40
REMARK    6  A    between atoms: O_15  and  C_42
REMARK    7  A    between atoms: C_16  and  C_25
REMARK    8  A    between atoms: C_33  and  C_37
REMARK                            x       y       z     vdW  Elec       q    Type
REMARK                         _______ _______ _______ _____ _____    ______ ____
ROOT
ATOM      1  O   UNL     1     113.365 127.629 140.708  0.00  0.00    +0.000 OA
ENDROOT
BRANCH   1   5
ATOM      2  O   UNL     1     111.732 126.403 138.630  0.00  0.00    +0.000 OA
ATOM      3  O   UNL     1     110.871 126.268 141.384  0.00  0.00    +0.000 OA
ATOM      4  O   UNL     1     110.088 125.672 140.329  0.00  0.00    +0.000 OA
ATOM      5  C   UNL     1     112.692 127.207 140.481  0.00  0.00    +0.000 A 
ATOM      6  C   UNL     1     112.559 127.020 139.653  0.00  0.00    +0.000 A 
ATOM      7  C   UNL     1     111.856 126.581 139.427  0.00  0.00    +0.000 A 
ATOM      8  C   UNL     1     112.122 126.954 141.071  0.00  0.00    +0.000 A 
ATOM      9  C   UNL     1     111.308 126.337 139.993  0.00  0.00    +0.000 A 
ATOM     10  C   UNL     1     111.061 125.982 138.401  0.00  0.00    +0.000 C 
ATOM     11  C   UNL     1     110.513 125.739 138.966  0.00  0.00    +0.000 C 
ATOM     12  C   UNL     1     111.424 126.516 140.826  0.00  0.00    +0.000 A 
ATOM     13  C   UNL     1     110.636 125.916 139.763  0.00  0.00    +0.000 C 
BRANCH  10  14
ATOM     14  C   UNL     1     110.938 125.805 137.605  0.00  0.00    +0.000 A 
ATOM     15  C   UNL     1     111.293 125.139 137.270  0.00  0.00    +0.000 A 
ATOM     16  C   UNL     1     110.460 126.292 137.142  0.00  0.00    +0.000 A 
ATOM     17  C   UNL     1     111.171 124.961 136.474  0.00  0.00    +0.000 A 
ATOM     18  C   UNL     1     110.337 126.115 136.346  0.00  0.00    +0.000 A 
ATOM     19  C   UNL     1     110.692 125.449 136.012  0.00  0.00    +0.000 A 
BRANCH  17  20
ATOM     20  O   UNL     1     111.526 124.296 136.140  0.00  0.00    +0.000 OA
ATOM     21  C   UNL     1     112.070 123.856 136.577  0.00  0.00    +0.000 C 
ENDBRANCH  17  20
BRANCH  19  22
ATOM     22  O   UNL     1     110.569 125.272 135.216  0.00  0.00    +0.000 OA
ATOM     23  C   UNL     1     110.063 125.740 134.762  0.00  0.00    +0.000 C 
ENDBRANCH  19  22
ENDBRANCH  10  14
ENDBRANCH   1   5
BRANCH   1  32
ATOM     24  O   UNL     1     112.701 128.865 140.438  0.00  0.00    +0.000 OA
ATOM     25  O   UNL     1     113.473 130.903 140.311  0.00  0.00    +0.000 OA
ATOM     26  O   UNL     1     114.854 130.067 140.653  0.00  0.00    +0.000 OA
ATOM     27  O   UNL     1     114.800 128.430 140.852  0.00  0.00    +0.000 OA
ATOM     28  C   UNL     1     112.728 129.683 140.338  0.00  0.00    +0.000 C 
ATOM     29  C   UNL     1     113.446 130.085 140.410  0.00  0.00    +0.000 C 
ATOM     30  C   UNL     1     114.136 129.666 140.581  0.00  0.00    +0.000 C 
ATOM     31  C   UNL     1     114.109 128.848 140.681  0.00  0.00    +0.000 C 
ATOM     32  C   UNL     1     113.392 128.447 140.609  0.00  0.00    +0.000 C 
BRANCH  28  33
ATOM     33  C   UNL     1     112.038 130.102 140.167  0.00  0.00    +0.000 C 
BRANCH  33  34
ATOM     34  O   UNL     1     111.407 130.092 140.698  0.00  0.00    +0.000 OA
BRANCH  34  40
ATOM     35  O   UNL     1     110.390 129.784 139.742  0.00  0.00    +0.000 OA
ATOM     36  O   UNL     1     110.352 131.071 141.505  0.00  0.00    +0.000 OA
ATOM     37  O   UNL     1     108.808 131.253 140.952  0.00  0.00    +0.000 OA
ATOM     38  O   UNL     1     108.318 130.456 139.593  0.00  0.00    +0.000 OA
ATOM     39  C   UNL     1     110.107 130.672 140.824  0.00  0.00    +0.000 C 
ATOM     40  C   UNL     1     110.635 130.182 140.421  0.00  0.00    +0.000 C 
ATOM     41  C   UNL     1     109.335 130.763 140.549  0.00  0.00    +0.000 C 
ATOM     42  C   UNL     1     109.091 130.365 139.869  0.00  0.00    +0.000 C 
ATOM     43  C   UNL     1     109.619 129.875 139.465  0.00  0.00    +0.000 C 
ATOM     44  C   UNL     1     109.373 129.477 138.786  0.00  0.00    +0.000 C 
ENDBRANCH  34  40
ENDBRANCH  33  34
ENDBRANCH  28  33
ENDBRANCH   1  32
TORSDOF 8
ENDMDL
MODEL 8
REMARK VINA RESULT:      -9.7      1.902      3.501
REMARK  Name = 42607988
REMARK  8 active torsions:
REMARK  status: ('A' for Active; 'I' for Inactive)
REMARK    1  A    between atoms: O_2  and  C_21
REMARK    2  A    between atoms: O_2  and  C_25
REMARK    3  A    between atoms: O_5  and  C_24
REMARK    4  A    between atoms: O_5  and  C_28
REMARK    5  A    between atoms: O_14  and  C_40
REMARK    6  A    between atoms: O_15  and  C_42
REMARK    7  A    between atoms: C_16  and  C_25
REMARK    8  A    between atoms: C_33  and  C_37
REMARK                            x       y       z     vdW  Elec       q    Type
REMARK                         _______ _______ _______ _____ _____    ______ ____
ROOT
ATOM      1  O   UNL     1     111.123 130.663 136.669  0.00  0.00    +0.000 OA
ENDROOT
BRANCH   1   5
ATOM      2  O   UNL     1     111.875 127.860 136.429  0.00  0.00    +0.000 OA
ATOM      3  O   UNL     1     113.823 129.913 135.848  0.00  0.00    +0.000 OA
ATOM      4  O   UNL     1     114.160 128.514 135.740  0.00  0.00    +0.000 OA
ATOM      5  C   UNL     1     111.686 130.085 136.496  0.00  0.00    +0.000 A 
ATOM      6  C   UNL     1     111.483 129.253 136.554  0.00  0.00    +0.000 A 
ATOM      7  C   UNL     1     112.076 128.658 136.372  0.00  0.00    +0.000 A 
ATOM      8  C   UNL     1     112.479 130.313 136.257  0.00  0.00    +0.000 A 
ATOM      9  C   UNL     1     112.837 128.876 136.142  0.00  0.00    +0.000 A 
ATOM     10  C   UNL     1     112.436 127.280 136.256  0.00  0.00    +0.000 C 
ATOM     11  C   UNL     1     113.197 127.498 136.027  0.00  0.00    +0.000 C 
ATOM     12  C   UNL     1     113.059 129.704 136.078  0.00  0.00    +0.000 A 
ATOM     13  C   UNL     1     113.398 128.296 135.969  0.00  0.00    +0.000 C 
BRANCH  10  14
ATOM     14  C   UNL     1     112.235 126.482 136.314  0.00  0.00    +0.000 A 
ATOM     15  C   UNL     1     111.581 126.191 135.905  0.00  0.00    +0.000 A 
ATOM     16  C   UNL     1     112.688 125.974 136.780  0.00  0.00    +0.000 A 
ATOM     17  C   UNL     1     111.379 125.393 135.961  0.00  0.00    +0.000 A 
ATOM     18  C   UNL     1     112.488 125.177 136.837  0.00  0.00    +0.000 A 
ATOM     19  C   UNL     1     111.833 124.886 136.428  0.00  0.00    +0.000 A 
BRANCH  17  20
ATOM     20  O   UNL     1     110.724 125.102 135.552  0.00  0.00    +0.000 OA
ATOM     21  C   UNL     1     110.305 125.594 135.040  0.00  0.00    +0.000 C 
ENDBRANCH  17  20
BRANCH  19  22
ATOM     22  O   UNL     1     111.632 124.088 136.485  0.00  0.00    +0.000 OA
ATOM     23  C   UNL     1     112.081 123.582 136.959  0.00  0.00    +0.000 C 
ENDBRANCH  19  22
ENDBRANCH  10  14
ENDBRANCH   1   5
BRANCH   1  32
ATOM     24  O   UNL     1     111.438 130.555 138.058  0.00  0.00    +0.000 OA
ATOM     25  O   UNL     1     110.588 131.562 139.799  0.00  0.00    +0.000 OA
ATOM     26  O   UNL     1     109.690 132.227 138.585  0.00  0.00    +0.000 OA
ATOM     27  O   UNL     1     109.957 131.778 137.020  0.00  0.00    +0.000 OA
ATOM     28  C   UNL     1     111.305 130.780 138.841  0.00  0.00    +0.000 C 
ATOM     29  C   UNL     1     110.721 131.337 139.016  0.00  0.00    +0.000 C 
ATOM     30  C   UNL     1     110.273 131.669 138.409  0.00  0.00    +0.000 C 
ATOM     31  C   UNL     1     110.407 131.445 137.626  0.00  0.00    +0.000 C 
ATOM     32  C   UNL     1     110.989 130.888 137.451  0.00  0.00    +0.000 C 
BRANCH  28  33
ATOM     33  C   UNL     1     111.753 130.448 139.448  0.00  0.00    +0.000 C 
BRANCH  33  34
ATOM     34  O   UNL     1     112.568 130.573 139.475  0.00  0.00    +0.000 OA
BRANCH  34  40
ATOM     35  O   UNL     1     112.843 129.201 139.769  0.00  0.00    +0.000 OA
ATOM     36  O   UNL     1     113.999 131.008 140.172  0.00  0.00    +0.000 OA
ATOM     37  O   UNL     1     114.989 129.855 140.814  0.00  0.00    +0.000 OA
ATOM     38  O   UNL     1     114.549 128.266 140.759  0.00  0.00    +0.000 OA
ATOM     39  C   UNL     1     113.778 130.213 140.145  0.00  0.00    +0.000 C 
ATOM     40  C   UNL     1     113.063 129.995 139.796  0.00  0.00    +0.000 C 
ATOM     41  C   UNL     1     114.274 129.637 140.465  0.00  0.00    +0.000 C 
ATOM     42  C   UNL     1     114.053 128.843 140.437  0.00  0.00    +0.000 C 
ATOM     43  C   UNL     1     113.338 128.625 140.089  0.00  0.00    +0.000 C 
ATOM     44  C   UNL     1     113.118 127.830 140.062  0.00  0.00    +0.000 C 
ENDBRANCH  34  40
ENDBRANCH  33  34
ENDBRANCH  28  33
ENDBRANCH   1  32
TORSDOF 8
ENDMDL
MODEL 9
REMARK VINA RESULT:      -9.7      1.938      3.458
REMARK  Name = 42607988
REMARK  8 active torsions:
REMARK  status: ('A' for Active; 'I' for Inactive)
REMARK    1  A    between atoms: O_2  and  C_21
REMARK    2  A    between atoms: O_2  and  C_25
REMARK    3  A    between atoms: O_5  and  C_24
REMARK    4  A    between atoms: O_5  and  C_28
REMARK    5  A    between atoms: O_14  and  C_40
REMARK    6  A    between atoms: O_15  and  C_42
REMARK    7  A    between atoms: C_16  and  C_25
REMARK    8  A    between atoms: C_33  and  C_37
REMARK                            x       y       z     vdW  Elec       q    Type
REMARK                         _______ _______ _______ _____ _____    ______ ____
ROOT
ATOM      1  O   UNL     1     112.944 130.087 138.911  0.00  0.00    +0.000 OA
ENDROOT
BRANCH   1   5
ATOM      2  O   UNL     1     112.984 127.566 137.453  0.00  0.00    +0.000 OA
ATOM      3  O   UNL     1     113.601 130.024 136.067  0.00  0.00    +0.000 OA
ATOM      4  O   UNL     1     113.611 128.757 135.376  0.00  0.00    +0.000 OA
ATOM      5  C   UNL     1     113.058 129.667 138.210  0.00  0.00    +0.000 A 
ATOM      6  C   UNL     1     112.959 128.814 138.196  0.00  0.00    +0.000 A 
ATOM      7  C   UNL     1     113.080 128.385 137.461  0.00  0.00    +0.000 A 
ATOM      8  C   UNL     1     113.276 130.081 137.489  0.00  0.00    +0.000 A 
ATOM      9  C   UNL     1     113.289 128.783 136.768  0.00  0.00    +0.000 A 
ATOM     10  C   UNL     1     113.097 127.144 136.753  0.00  0.00    +0.000 C 
ATOM     11  C   UNL     1     113.306 127.540 136.061  0.00  0.00    +0.000 C 
ATOM     12  C   UNL     1     113.392 129.636 136.763  0.00  0.00    +0.000 A 
ATOM     13  C   UNL     1     113.402 128.360 136.069  0.00  0.00    +0.000 C 
BRANCH  10  14
ATOM     14  C   UNL     1     113.001 126.325 136.745  0.00  0.00    +0.000 A 
ATOM     15  C   UNL     1     113.612 125.835 137.006  0.00  0.00    +0.000 A 
ATOM     16  C   UNL     1     112.295 125.994 136.478  0.00  0.00    +0.000 A 
ATOM     17  C   UNL     1     113.517 125.016 136.999  0.00  0.00    +0.000 A 
ATOM     18  C   UNL     1     112.199 125.175 136.470  0.00  0.00    +0.000 A 
ATOM     19  C   UNL     1     112.810 124.686 136.730  0.00  0.00    +0.000 A 
BRANCH  17  20
ATOM     20  O   UNL     1     114.128 124.526 137.259  0.00  0.00    +0.000 OA
ATOM     21  C   UNL     1     114.881 124.838 137.385  0.00  0.00    +0.000 C 
ENDBRANCH  17  20
BRANCH  19  22
ATOM     22  O   UNL     1     112.714 123.866 136.723  0.00  0.00    +0.000 OA
ATOM     23  C   UNL     1     111.961 123.539 136.631  0.00  0.00    +0.000 C 
ENDBRANCH  19  22
ENDBRANCH  10  14
ENDBRANCH   1   5
BRANCH   1  32
ATOM     24  O   UNL     1     111.552 130.312 138.682  0.00  0.00    +0.000 OA
ATOM     25  O   UNL     1     109.894 130.547 140.083  0.00  0.00    +0.000 OA
ATOM     26  O   UNL     1     111.154 130.327 141.126  0.00  0.00    +0.000 OA
ATOM     27  O   UNL     1     112.679 130.097 140.540  0.00  0.00    +0.000 OA
ATOM     28  C   UNL     1     110.789 130.427 138.975  0.00  0.00    +0.000 C 
ATOM     29  C   UNL     1     110.656 130.432 139.790  0.00  0.00    +0.000 C 
ATOM     30  C   UNL     1     111.287 130.322 140.311  0.00  0.00    +0.000 C 
ATOM     31  C   UNL     1     112.049 130.207 140.018  0.00  0.00    +0.000 C 
ATOM     32  C   UNL     1     112.182 130.202 139.204  0.00  0.00    +0.000 C 
BRANCH  28  33
ATOM     33  C   UNL     1     110.159 130.537 138.455  0.00  0.00    +0.000 C 
BRANCH  33  34
ATOM     34  O   UNL     1     110.005 129.977 137.868  0.00  0.00    +0.000 OA
BRANCH  34  40
ATOM     35  O   UNL     1     109.112 130.889 137.226  0.00  0.00    +0.000 OA
ATOM     36  O   UNL     1     109.573 128.800 136.797  0.00  0.00    +0.000 OA
ATOM     37  O   UNL     1     108.463 129.123 135.619  0.00  0.00    +0.000 OA
ATOM     38  O   UNL     1     107.786 130.623 135.513  0.00  0.00    +0.000 OA
ATOM     39  C   UNL     1     109.234 129.551 136.744  0.00  0.00    +0.000 C 
ATOM     40  C   UNL     1     109.450 130.140 137.279  0.00  0.00    +0.000 C 
ATOM     41  C   UNL     1     108.679 129.711 136.155  0.00  0.00    +0.000 C 
ATOM     42  C   UNL     1     108.341 130.462 136.102  0.00  0.00    +0.000 C 
ATOM     43  C   UNL     1     108.557 131.051 136.638  0.00  0.00    +0.000 C 
ATOM     44  C   UNL     1     108.218 131.801 136.585  0.00  0.00    +0.000 C 
ENDBRANCH  34  40
ENDBRANCH  33  34
ENDBRANCH  28  33
ENDBRANCH   1  32
TORSDOF 8
ENDMDL
MODEL 10
REMARK VINA RESULT:      -9.7      1.741      3.291
REMARK  Name = 42607988
REMARK  8 active torsions:
REMARK  status: ('A' for Active; 'I' for Inactive)
REMARK    1  A    between atoms: O_2  and  C_21
REMARK    2  A    between atoms: O_2  and  C_25
REMARK    3  A    between atoms: O_5  and  C_24
REMARK    4  A    between atoms: O_5  and  C_28
REMARK    5  A    between atoms: O_14  and  C_40
REMARK    6  A    between atoms: O_15  and  C_42
REMARK    7  A    between atoms: C_16  and  C_25
REMARK    8  A    between atoms: C_33  and  C_37
REMARK                            x       y       z     vdW  Elec       q    Type
REMARK                         _______ _______ _______ _____ _____    ______ ____
ROOT
ATOM      1  O   UNL     1     109.219 129.613 135.336  0.00  0.00    +0.000 OA
ENDROOT
BRANCH   1   5
ATOM      2  O   UNL     1     110.764 127.285 136.158  0.00  0.00    +0.000 OA
ATOM      3  O   UNL     1     112.134 129.627 135.166  0.00  0.00    +0.000 OA
ATOM      4  O   UNL     1     112.867 128.456 135.583  0.00  0.00    +0.000 OA
ATOM      5  C   UNL     1     109.947 129.237 135.442  0.00  0.00    +0.000 A 
ATOM      6  C   UNL     1     109.978 128.437 135.753  0.00  0.00    +0.000 A 
ATOM      7  C   UNL     1     110.740 128.054 135.860  0.00  0.00    +0.000 A 
ATOM      8  C   UNL     1     110.676 129.644 135.242  0.00  0.00    +0.000 A 
ATOM      9  C   UNL     1     111.441 128.445 135.668  0.00  0.00    +0.000 A 
ATOM     10  C   UNL     1     111.490 126.908 136.265  0.00  0.00    +0.000 C 
ATOM     11  C   UNL     1     112.191 127.297 136.074  0.00  0.00    +0.000 C 
ATOM     12  C   UNL     1     111.429 129.245 135.355  0.00  0.00    +0.000 A 
ATOM     13  C   UNL     1     112.166 128.066 135.775  0.00  0.00    +0.000 C 
BRANCH  10  14
ATOM     14  C   UNL     1     111.515 126.139 136.564  0.00  0.00    +0.000 A 
ATOM     15  C   UNL     1     111.309 125.995 137.350  0.00  0.00    +0.000 A 
ATOM     16  C   UNL     1     111.745 125.514 136.078  0.00  0.00    +0.000 A 
ATOM     17  C   UNL     1     111.333 125.227 137.650  0.00  0.00    +0.000 A 
ATOM     18  C   UNL     1     111.769 124.746 136.377  0.00  0.00    +0.000 A 
ATOM     19  C   UNL     1     111.563 124.602 137.163  0.00  0.00    +0.000 A 
BRANCH  17  20
ATOM     20  O   UNL     1     111.127 125.083 138.436  0.00  0.00    +0.000 OA
ATOM     21  C   UNL     1     110.877 125.705 138.917  0.00  0.00    +0.000 C 
ENDBRANCH  17  20
BRANCH  19  22
ATOM     22  O   UNL     1     111.588 123.834 137.462  0.00  0.00    +0.000 OA
ATOM     23  C   UNL     1     111.955 123.234 137.030  0.00  0.00    +0.000 C 
ENDBRANCH  19  22
ENDBRANCH  10  14
ENDBRANCH   1   5
BRANCH   1  32
ATOM     24  O   UNL     1     109.183 130.091 136.682  0.00  0.00    +0.000 OA
ATOM     25  O   UNL     1     108.153 131.803 137.563  0.00  0.00    +0.000 OA
ATOM     26  O   UNL     1     107.693 131.941 135.984  0.00  0.00    +0.000 OA
ATOM     27  O   UNL     1     108.226 130.846 134.871  0.00  0.00    +0.000 OA
ATOM     28  C   UNL     1     108.917 130.639 137.239  0.00  0.00    +0.000 C 
ATOM     29  C   UNL     1     108.420 131.256 137.006  0.00  0.00    +0.000 C 
ATOM     30  C   UNL     1     108.190 131.324 136.217  0.00  0.00    +0.000 C 
ATOM     31  C   UNL     1     108.457 130.777 135.660  0.00  0.00    +0.000 C 
ATOM     32  C   UNL     1     108.953 130.161 135.893  0.00  0.00    +0.000 C 
BRANCH  28  33
ATOM     33  C   UNL     1     109.146 130.570 138.028  0.00  0.00    +0.000 C 
BRANCH  33  34
ATOM     34  O   UNL     1     108.990 129.876 138.445  0.00  0.00    +0.000 OA
BRANCH  34  40
ATOM     35  O   UNL     1     110.298 129.607 138.953  0.00  0.00    +0.000 OA
ATOM     36  O   UNL     1     108.342 129.504 139.916  0.00  0.00    +0.000 OA
ATOM     37  O   UNL     1     109.327 129.049 141.160  0.00  0.00    +0.000 OA
ATOM     38  O   UNL     1     110.959 128.967 140.932  0.00  0.00    +0.000 OA
ATOM     39  C   UNL     1     109.159 129.462 139.802  0.00  0.00    +0.000 C 
ATOM     40  C   UNL     1     109.483 129.648 139.066  0.00  0.00    +0.000 C 
ATOM     41  C   UNL     1     109.651 129.235 140.424  0.00  0.00    +0.000 C 
ATOM     42  C   UNL     1     110.467 129.194 140.309  0.00  0.00    +0.000 C 
ATOM     43  C   UNL     1     110.790 129.380 139.574  0.00  0.00    +0.000 C 
ATOM     44  C   UNL     1     111.607 129.339 139.460  0.00  0.00    +0.000 C 
ENDBRANCH  34  40
ENDBRANCH  33  34
ENDBRANCH  28  33
ENDBRANCH   1  32
TORSDOF 8
ENDMDL
