MODEL 1
REMARK VINA RESULT:      -8.5      0.000      0.000
REMARK  Name = 5318214
REMARK  2 active torsions:
REMARK  status: ('A' for Active; 'I' for Inactive)
REMARK    1  A    between atoms: O_2  and  C_15
REMARK    2  A    between atoms: C_9  and  C_10
REMARK                            x       y       z     vdW  Elec       q    Type
REMARK                         _______ _______ _______ _____ _____    ______ ____
ROOT
ATOM      1  O   UNL     1     104.548 124.636 139.429  0.00  0.00    +0.000 OA
ATOM      2  O   UNL     1     106.620 123.685 141.203  0.00  0.00    +0.000 OA
ATOM      3  O   UNL     1     105.937 122.785 140.307  0.00  0.00    +0.000 OA
ATOM      4  C   UNL     1     105.573 124.167 140.307  0.00  0.00    +0.000 A 
ATOM      5  C   UNL     1     105.110 124.784 140.014  0.00  0.00    +0.000 A 
ATOM      6  C   UNL     1     104.449 123.871 139.136  0.00  0.00    +0.000 A 
ATOM      7  C   UNL     1     105.474 123.402 140.014  0.00  0.00    +0.000 A 
ATOM      8  C   UNL     1     106.162 124.308 140.917  0.00  0.00    +0.000 A 
ATOM      9  C   UNL     1     104.912 123.254 139.428  0.00  0.00    +0.000 A 
ATOM     10  C   UNL     1     105.204 125.585 140.312  0.00  0.00    +0.000 A 
ATOM     11  C   UNL     1     105.787 125.745 140.921  0.00  0.00    +0.000 A 
ATOM     12  C   UNL     1     106.270 125.102 141.226  0.00  0.00    +0.000 A 
ENDROOT
BRANCH   6  15
ATOM     13  O   UNL     1     101.716 123.651 138.327  0.00  0.00    +0.000 OA
ATOM     14  O   UNL     1     102.200 123.279 136.794  0.00  0.00    +0.000 OA
ATOM     15  C   UNL     1     103.887 123.723 138.551  0.00  0.00    +0.000 A 
ATOM     16  C   UNL     1     103.083 123.761 138.732  0.00  0.00    +0.000 A 
ATOM     17  C   UNL     1     104.128 123.537 137.784  0.00  0.00    +0.000 A 
ATOM     18  C   UNL     1     102.520 123.613 138.146  0.00  0.00    +0.000 A 
ATOM     19  C   UNL     1     103.566 123.389 137.199  0.00  0.00    +0.000 A 
ATOM     20  C   UNL     1     102.762 123.427 137.380  0.00  0.00    +0.000 A 
ENDBRANCH   6  15
BRANCH  11  21
ATOM     21  O   UNL     1     105.884 126.511 141.212  0.00  0.00    +0.000 OA
ATOM     22  C   UNL     1     105.576 126.714 141.950  0.00  0.00    +0.000 C 
ENDBRANCH  11  21
TORSDOF 2
ENDMDL
MODEL 2
REMARK VINA RESULT:      -8.5      6.699      7.702
REMARK  Name = 5318214
REMARK  2 active torsions:
REMARK  status: ('A' for Active; 'I' for Inactive)
REMARK    1  A    between atoms: O_2  and  C_15
REMARK    2  A    between atoms: C_9  and  C_10
REMARK                            x       y       z     vdW  Elec       q    Type
REMARK                         _______ _______ _______ _____ _____    ______ ____
ROOT
ATOM      1  O   UNL     1     105.107 124.347 147.385  0.00  0.00    +0.000 OA
ATOM      2  O   UNL     1     107.495 125.618 146.372  0.00  0.00    +0.000 OA
ATOM      3  O   UNL     1     106.376 125.338 145.506  0.00  0.00    +0.000 OA
ATOM      4  C   UNL     1     106.288 124.976 146.885  0.00  0.00    +0.000 A 
ATOM      5  C   UNL     1     105.865 124.645 147.512  0.00  0.00    +0.000 A 
ATOM      6  C   UNL     1     104.771 124.379 146.632  0.00  0.00    +0.000 A 
ATOM      7  C   UNL     1     105.953 125.008 146.132  0.00  0.00    +0.000 A 
ATOM      8  C   UNL     1     107.080 125.290 147.004  0.00  0.00    +0.000 A 
ATOM      9  C   UNL     1     105.194 124.709 146.006  0.00  0.00    +0.000 A 
ATOM     10  C   UNL     1     106.205 124.606 148.301  0.00  0.00    +0.000 A 
ATOM     11  C   UNL     1     106.994 124.915 148.438  0.00  0.00    +0.000 A 
ATOM     12  C   UNL     1     107.435 125.260 147.785  0.00  0.00    +0.000 A 
ENDROOT
BRANCH   6  15
ATOM     13  O   UNL     1     101.939 124.606 146.942  0.00  0.00    +0.000 OA
ATOM     14  O   UNL     1     101.736 123.186 146.127  0.00  0.00    +0.000 OA
ATOM     15  C   UNL     1     104.013 124.081 146.506  0.00  0.00    +0.000 A 
ATOM     16  C   UNL     1     103.356 124.493 146.787  0.00  0.00    +0.000 A 
ATOM     17  C   UNL     1     103.911 123.371 146.098  0.00  0.00    +0.000 A 
ATOM     18  C   UNL     1     102.596 124.195 146.661  0.00  0.00    +0.000 A 
ATOM     19  C   UNL     1     103.152 123.073 145.972  0.00  0.00    +0.000 A 
ATOM     20  C   UNL     1     102.495 123.485 146.253  0.00  0.00    +0.000 A 
ENDBRANCH   6  15
BRANCH  11  21
ATOM     21  O   UNL     1     107.327 124.882 149.192  0.00  0.00    +0.000 OA
ATOM     22  C   UNL     1     107.639 124.172 149.475  0.00  0.00    +0.000 C 
ENDBRANCH  11  21
TORSDOF 2
ENDMDL
MODEL 3
REMARK VINA RESULT:      -8.2      5.211      7.482
REMARK  Name = 5318214
REMARK  2 active torsions:
REMARK  status: ('A' for Active; 'I' for Inactive)
REMARK    1  A    between atoms: O_2  and  C_15
REMARK    2  A    between atoms: C_9  and  C_10
REMARK                            x       y       z     vdW  Elec       q    Type
REMARK                         _______ _______ _______ _____ _____    ______ ____
ROOT
ATOM      1  O   UNL     1     102.996 130.448 142.167  0.00  0.00    +0.000 OA
ATOM      2  O   UNL     1     103.796 128.236 140.490  0.00  0.00    +0.000 OA
ATOM      3  O   UNL     1     102.848 129.217 140.024  0.00  0.00    +0.000 OA
ATOM      4  C   UNL     1     103.392 129.354 141.339  0.00  0.00    +0.000 A 
ATOM      5  C   UNL     1     103.442 129.764 142.053  0.00  0.00    +0.000 A 
ATOM      6  C   UNL     1     102.500 130.723 141.567  0.00  0.00    +0.000 A 
ATOM      7  C   UNL     1     102.897 129.628 140.738  0.00  0.00    +0.000 A 
ATOM      8  C   UNL     1     103.852 128.639 141.207  0.00  0.00    +0.000 A 
ATOM      9  C   UNL     1     102.451 130.313 140.853  0.00  0.00    +0.000 A 
ATOM     10  C   UNL     1     103.954 129.488 142.685  0.00  0.00    +0.000 A 
ATOM     11  C   UNL     1     104.421 128.776 142.573  0.00  0.00    +0.000 A 
ATOM     12  C   UNL     1     104.369 128.348 141.828  0.00  0.00    +0.000 A 
ENDROOT
BRANCH   6  15
ATOM     13  O   UNL     1     102.251 133.567 141.423  0.00  0.00    +0.000 OA
ATOM     14  O   UNL     1     100.717 133.462 142.022  0.00  0.00    +0.000 OA
ATOM     15  C   UNL     1     102.055 131.407 141.681  0.00  0.00    +0.000 A 
ATOM     16  C   UNL     1     102.376 132.144 141.495  0.00  0.00    +0.000 A 
ATOM     17  C   UNL     1     101.288 131.356 141.980  0.00  0.00    +0.000 A 
ATOM     18  C   UNL     1     101.930 132.830 141.609  0.00  0.00    +0.000 A 
ATOM     19  C   UNL     1     100.842 132.040 142.094  0.00  0.00    +0.000 A 
ATOM     20  C   UNL     1     101.163 132.777 141.908  0.00  0.00    +0.000 A 
ENDBRANCH   6  15
BRANCH  11  21
ATOM     21  O   UNL     1     104.915 128.503 143.174  0.00  0.00    +0.000 OA
ATOM     22  C   UNL     1     105.677 128.810 143.252  0.00  0.00    +0.000 C 
ENDBRANCH  11  21
TORSDOF 2
ENDMDL
MODEL 4
REMARK VINA RESULT:      -8.2      6.427      9.060
REMARK  Name = 5318214
REMARK  2 active torsions:
REMARK  status: ('A' for Active; 'I' for Inactive)
REMARK    1  A    between atoms: O_2  and  C_15
REMARK    2  A    between atoms: C_9  and  C_10
REMARK                            x       y       z     vdW  Elec       q    Type
REMARK                         _______ _______ _______ _____ _____    ______ ____
ROOT
ATOM      1  O   UNL     1     105.225 124.202 147.179  0.00  0.00    +0.000 OA
ATOM      2  O   UNL     1     102.513 125.140 147.512  0.00  0.00    +0.000 OA
ATOM      3  O   UNL     1     103.582 125.643 148.340  0.00  0.00    +0.000 OA
ATOM      4  C   UNL     1     103.884 124.665 147.343  0.00  0.00    +0.000 A 
ATOM      5  C   UNL     1     104.432 124.185 146.956  0.00  0.00    +0.000 A 
ATOM      6  C   UNL     1     105.472 124.700 147.789  0.00  0.00    +0.000 A 
ATOM      7  C   UNL     1     104.130 125.163 147.953  0.00  0.00    +0.000 A 
ATOM      8  C   UNL     1     103.053 124.656 147.120  0.00  0.00    +0.000 A 
ATOM      9  C   UNL     1     104.924 125.180 148.176  0.00  0.00    +0.000 A 
ATOM     10  C   UNL     1     104.188 123.662 146.319  0.00  0.00    +0.000 A 
ATOM     11  C   UNL     1     103.362 123.639 146.082  0.00  0.00    +0.000 A 
ATOM     12  C   UNL     1     102.791 124.140 146.486  0.00  0.00    +0.000 A 
ENDROOT
BRANCH   6  15
ATOM     13  O   UNL     1     108.165 125.521 147.294  0.00  0.00    +0.000 OA
ATOM     14  O   UNL     1     108.648 124.771 148.682  0.00  0.00    +0.000 OA
ATOM     15  C   UNL     1     106.266 124.718 148.012  0.00  0.00    +0.000 A 
ATOM     16  C   UNL     1     106.818 125.110 147.542  0.00  0.00    +0.000 A 
ATOM     17  C   UNL     1     106.508 124.343 148.706  0.00  0.00    +0.000 A 
ATOM     18  C   UNL     1     107.612 125.128 147.765  0.00  0.00    +0.000 A 
ATOM     19  C   UNL     1     107.302 124.361 148.930  0.00  0.00    +0.000 A 
ATOM     20  C   UNL     1     107.854 124.753 148.459  0.00  0.00    +0.000 A 
ENDBRANCH   6  15
BRANCH  11  21
ATOM     21  O   UNL     1     103.119 123.140 145.472  0.00  0.00    +0.000 OA
ATOM     22  C   UNL     1     103.679 122.775 144.989  0.00  0.00    +0.000 C 
ENDBRANCH  11  21
TORSDOF 2
ENDMDL
MODEL 5
REMARK VINA RESULT:      -8.2      7.549      8.184
REMARK  Name = 5318214
REMARK  2 active torsions:
REMARK  status: ('A' for Active; 'I' for Inactive)
REMARK    1  A    between atoms: O_2  and  C_15
REMARK    2  A    between atoms: C_9  and  C_10
REMARK                            x       y       z     vdW  Elec       q    Type
REMARK                         _______ _______ _______ _____ _____    ______ ____
ROOT
ATOM      1  O   UNL     1     111.995 125.732 136.221  0.00  0.00    +0.000 OA
ATOM      2  O   UNL     1     113.256 123.337 137.231  0.00  0.00    +0.000 OA
ATOM      3  O   UNL     1     111.825 123.414 137.073  0.00  0.00    +0.000 OA
ATOM      4  C   UNL     1     112.620 124.548 136.720  0.00  0.00    +0.000 A 
ATOM      5  C   UNL     1     112.676 125.321 136.436  0.00  0.00    +0.000 A 
ATOM      6  C   UNL     1     111.256 125.371 136.290  0.00  0.00    +0.000 A 
ATOM      7  C   UNL     1     111.882 124.186 136.789  0.00  0.00    +0.000 A 
ATOM      8  C   UNL     1     113.323 124.108 136.948  0.00  0.00    +0.000 A 
ATOM      9  C   UNL     1     111.199 124.598 136.573  0.00  0.00    +0.000 A 
ATOM     10  C   UNL     1     113.440 125.708 136.361  0.00  0.00    +0.000 A 
ATOM     11  C   UNL     1     114.154 125.284 136.583  0.00  0.00    +0.000 A 
ATOM     12  C   UNL     1     114.095 124.479 136.879  0.00  0.00    +0.000 A 
ENDROOT
BRANCH   6  15
ATOM     13  O   UNL     1     109.050 127.046 136.994  0.00  0.00    +0.000 OA
ATOM     14  O   UNL     1     108.528 127.016 135.429  0.00  0.00    +0.000 OA
ATOM     15  C   UNL     1     110.574 125.782 136.075  0.00  0.00    +0.000 A 
ATOM     16  C   UNL     1     110.153 126.208 136.642  0.00  0.00    +0.000 A 
ATOM     17  C   UNL     1     110.313 125.767 135.292  0.00  0.00    +0.000 A 
ATOM     18  C   UNL     1     109.471 126.620 136.427  0.00  0.00    +0.000 A 
ATOM     19  C   UNL     1     109.631 126.178 135.077  0.00  0.00    +0.000 A 
ATOM     20  C   UNL     1     109.210 126.604 135.644  0.00  0.00    +0.000 A 
ENDBRANCH   6  15
BRANCH  11  21
ATOM     21  O   UNL     1     114.891 125.648 136.514  0.00  0.00    +0.000 OA
ATOM     22  C   UNL     1     115.323 125.574 135.815  0.00  0.00    +0.000 C 
ENDBRANCH  11  21
TORSDOF 2
ENDMDL
MODEL 6
REMARK VINA RESULT:      -8.1      7.955      9.218
REMARK  Name = 5318214
REMARK  2 active torsions:
REMARK  status: ('A' for Active; 'I' for Inactive)
REMARK    1  A    between atoms: O_2  and  C_15
REMARK    2  A    between atoms: C_9  and  C_10
REMARK                            x       y       z     vdW  Elec       q    Type
REMARK                         _______ _______ _______ _____ _____    ______ ____
ROOT
ATOM      1  O   UNL     1     112.168 126.585 136.069  0.00  0.00    +0.000 OA
ATOM      2  O   UNL     1     109.726 125.676 134.823  0.00  0.00    +0.000 OA
ATOM      3  O   UNL     1     110.573 124.764 135.552  0.00  0.00    +0.000 OA
ATOM      4  C   UNL     1     110.961 126.137 135.452  0.00  0.00    +0.000 A 
ATOM      5  C   UNL     1     111.492 126.743 135.625  0.00  0.00    +0.000 A 
ATOM      6  C   UNL     1     112.314 125.820 136.341  0.00  0.00    +0.000 A 
ATOM      7  C   UNL     1     111.105 125.371 135.724  0.00  0.00    +0.000 A 
ATOM      8  C   UNL     1     110.251 126.289 134.990  0.00  0.00    +0.000 A 
ATOM      9  C   UNL     1     111.782 125.213 136.169  0.00  0.00    +0.000 A 
ATOM     10  C   UNL     1     111.352 127.545 135.347  0.00  0.00    +0.000 A 
ATOM     11  C   UNL     1     110.649 127.716 134.884  0.00  0.00    +0.000 A 
ATOM     12  C   UNL     1     110.095 127.083 134.704  0.00  0.00    +0.000 A 
ENDROOT
BRANCH   6  15
ATOM     13  O   UNL     1     113.757 125.998 138.802  0.00  0.00    +0.000 OA
ATOM     14  O   UNL     1     115.021 125.185 138.120  0.00  0.00    +0.000 OA
ATOM     15  C   UNL     1     112.990 125.661 136.785  0.00  0.00    +0.000 A 
ATOM     16  C   UNL     1     113.035 125.909 137.571  0.00  0.00    +0.000 A 
ATOM     17  C   UNL     1     113.623 125.255 136.445  0.00  0.00    +0.000 A 
ATOM     18  C   UNL     1     113.712 125.750 138.016  0.00  0.00    +0.000 A 
ATOM     19  C   UNL     1     114.299 125.096 136.889  0.00  0.00    +0.000 A 
ATOM     20  C   UNL     1     114.344 125.344 137.675  0.00  0.00    +0.000 A 
ENDBRANCH   6  15
BRANCH  11  21
ATOM     21  O   UNL     1     110.507 128.482 134.613  0.00  0.00    +0.000 OA
ATOM     22  C   UNL     1     110.029 128.992 135.052  0.00  0.00    +0.000 C 
ENDBRANCH  11  21
TORSDOF 2
ENDMDL
MODEL 7
REMARK VINA RESULT:      -8.0      6.610      8.509
REMARK  Name = 5318214
REMARK  2 active torsions:
REMARK  status: ('A' for Active; 'I' for Inactive)
REMARK    1  A    between atoms: O_2  and  C_15
REMARK    2  A    between atoms: C_9  and  C_10
REMARK                            x       y       z     vdW  Elec       q    Type
REMARK                         _______ _______ _______ _____ _____    ______ ____
ROOT
ATOM      1  O   UNL     1     104.213 124.224 146.695  0.00  0.00    +0.000 OA
ATOM      2  O   UNL     1     101.628 125.078 147.662  0.00  0.00    +0.000 OA
ATOM      3  O   UNL     1     102.830 125.789 148.023  0.00  0.00    +0.000 OA
ATOM      4  C   UNL     1     102.934 124.645 147.173  0.00  0.00    +0.000 A 
ATOM      5  C   UNL     1     103.395 124.124 146.730  0.00  0.00    +0.000 A 
ATOM      6  C   UNL     1     104.571 124.845 147.103  0.00  0.00    +0.000 A 
ATOM      7  C   UNL     1     103.291 125.267 147.581  0.00  0.00    +0.000 A 
ATOM      8  C   UNL     1     102.080 124.552 147.217  0.00  0.00    +0.000 A 
ATOM      9  C   UNL     1     104.110 125.367 147.546  0.00  0.00    +0.000 A 
ATOM     10  C   UNL     1     103.034 123.472 146.301  0.00  0.00    +0.000 A 
ATOM     11  C   UNL     1     102.183 123.363 146.333  0.00  0.00    +0.000 A 
ATOM     12  C   UNL     1     101.703 123.907 146.795  0.00  0.00    +0.000 A 
ENDROOT
BRANCH   6  15
ATOM     13  O   UNL     1     106.915 125.574 145.640  0.00  0.00    +0.000 OA
ATOM     14  O   UNL     1     107.843 125.246 146.964  0.00  0.00    +0.000 OA
ATOM     15  C   UNL     1     105.388 124.945 147.068  0.00  0.00    +0.000 A 
ATOM     16  C   UNL     1     105.742 125.210 146.372  0.00  0.00    +0.000 A 
ATOM     17  C   UNL     1     105.853 124.781 147.730  0.00  0.00    +0.000 A 
ATOM     18  C   UNL     1     106.561 125.310 146.337  0.00  0.00    +0.000 A 
ATOM     19  C   UNL     1     106.671 124.881 147.695  0.00  0.00    +0.000 A 
ATOM     20  C   UNL     1     107.024 125.146 146.999  0.00  0.00    +0.000 A 
ENDBRANCH   6  15
BRANCH  11  21
ATOM     21  O   UNL     1     101.828 122.740 145.924  0.00  0.00    +0.000 OA
ATOM     22  C   UNL     1     101.567 122.851 145.150  0.00  0.00    +0.000 C 
ENDBRANCH  11  21
TORSDOF 2
ENDMDL
MODEL 8
REMARK VINA RESULT:      -7.9      6.812      8.478
REMARK  Name = 5318214
REMARK  2 active torsions:
REMARK  status: ('A' for Active; 'I' for Inactive)
REMARK    1  A    between atoms: O_2  and  C_15
REMARK    2  A    between atoms: C_9  and  C_10
REMARK                            x       y       z     vdW  Elec       q    Type
REMARK                         _______ _______ _______ _____ _____    ______ ____
ROOT
ATOM      1  O   UNL     1     104.110 124.892 147.393  0.00  0.00    +0.000 OA
ATOM      2  O   UNL     1     102.070 123.549 145.851  0.00  0.00    +0.000 OA
ATOM      3  O   UNL     1     103.461 123.464 145.478  0.00  0.00    +0.000 OA
ATOM      4  C   UNL     1     103.100 124.228 146.631  0.00  0.00    +0.000 A 
ATOM      5  C   UNL     1     103.317 124.704 147.269  0.00  0.00    +0.000 A 
ATOM      6  C   UNL     1     104.688 124.605 146.879  0.00  0.00    +0.000 A 
ATOM      7  C   UNL     1     103.677 123.940 146.116  0.00  0.00    +0.000 A 
ATOM      8  C   UNL     1     102.276 124.025 146.491  0.00  0.00    +0.000 A 
ATOM      9  C   UNL     1     104.471 124.129 146.240  0.00  0.00    +0.000 A 
ATOM     10  C   UNL     1     102.725 125.010 147.812  0.00  0.00    +0.000 A 
ATOM     11  C   UNL     1     101.897 124.818 147.689  0.00  0.00    +0.000 A 
ATOM     12  C   UNL     1     101.671 124.322 147.023  0.00  0.00    +0.000 A 
ENDROOT
BRANCH   6  15
ATOM     13  O   UNL     1     107.133 125.754 145.946  0.00  0.00    +0.000 OA
ATOM     14  O   UNL     1     107.863 125.357 147.372  0.00  0.00    +0.000 OA
ATOM     15  C   UNL     1     105.481 124.792 147.002  0.00  0.00    +0.000 A 
ATOM     16  C   UNL     1     105.910 125.179 146.413  0.00  0.00    +0.000 A 
ATOM     17  C   UNL     1     105.847 124.594 147.715  0.00  0.00    +0.000 A 
ATOM     18  C   UNL     1     106.704 125.367 146.536  0.00  0.00    +0.000 A 
ATOM     19  C   UNL     1     106.640 124.782 147.838  0.00  0.00    +0.000 A 
ATOM     20  C   UNL     1     107.069 125.169 147.249  0.00  0.00    +0.000 A 
ENDBRANCH   6  15
BRANCH  11  21
ATOM     21  O   UNL     1     101.322 125.107 148.205  0.00  0.00    +0.000 OA
ATOM     22  C   UNL     1     101.073 124.648 148.844  0.00  0.00    +0.000 C 
ENDBRANCH  11  21
TORSDOF 2
ENDMDL
MODEL 9
REMARK VINA RESULT:      -7.8      6.558      8.595
REMARK  Name = 5318214
REMARK  2 active torsions:
REMARK  status: ('A' for Active; 'I' for Inactive)
REMARK    1  A    between atoms: O_2  and  C_15
REMARK    2  A    between atoms: C_9  and  C_10
REMARK                            x       y       z     vdW  Elec       q    Type
REMARK                         _______ _______ _______ _____ _____    ______ ____
ROOT
ATOM      1  O   UNL     1     102.773 132.009 141.153  0.00  0.00    +0.000 OA
ATOM      2  O   UNL     1     100.751 133.602 142.465  0.00  0.00    +0.000 OA
ATOM      3  O   UNL     1     100.710 132.161 142.513  0.00  0.00    +0.000 OA
ATOM      4  C   UNL     1     101.774 132.798 141.801  0.00  0.00    +0.000 A 
ATOM      5  C   UNL     1     102.461 132.747 141.348  0.00  0.00    +0.000 A 
ATOM      6  C   UNL     1     102.397 131.321 141.411  0.00  0.00    +0.000 A 
ATOM      7  C   UNL     1     101.398 132.111 142.059  0.00  0.00    +0.000 A 
ATOM      8  C   UNL     1     101.439 133.562 142.012  0.00  0.00    +0.000 A 
ATOM      9  C   UNL     1     101.710 131.372 141.864  0.00  0.00    +0.000 A 
ATOM     10  C   UNL     1     102.862 133.457 141.074  0.00  0.00    +0.000 A 
ATOM     11  C   UNL     1     102.542 134.228 141.274  0.00  0.00    +0.000 A 
ATOM     12  C   UNL     1     101.825 134.281 141.746  0.00  0.00    +0.000 A 
ENDROOT
BRANCH   6  15
ATOM     13  O   UNL     1     102.587 129.114 139.605  0.00  0.00    +0.000 OA
ATOM     14  O   UNL     1     103.643 128.367 140.629  0.00  0.00    +0.000 OA
ATOM     15  C   UNL     1     102.708 130.583 141.216  0.00  0.00    +0.000 A 
ATOM     16  C   UNL     1     102.492 130.218 140.508  0.00  0.00    +0.000 A 
ATOM     17  C   UNL     1     103.237 130.209 141.727  0.00  0.00    +0.000 A 
ATOM     18  C   UNL     1     102.803 129.479 140.312  0.00  0.00    +0.000 A 
ATOM     19  C   UNL     1     103.548 129.471 141.532  0.00  0.00    +0.000 A 
ATOM     20  C   UNL     1     103.331 129.106 140.825  0.00  0.00    +0.000 A 
ENDBRANCH   6  15
BRANCH  11  21
ATOM     21  O   UNL     1     102.920 134.914 141.015  0.00  0.00    +0.000 OA
ATOM     22  C   UNL     1     102.705 135.257 140.295  0.00  0.00    +0.000 C 
ENDBRANCH  11  21
TORSDOF 2
ENDMDL
MODEL 10
REMARK VINA RESULT:      -7.7      7.793      9.727
REMARK  Name = 5318214
REMARK  2 active torsions:
REMARK  status: ('A' for Active; 'I' for Inactive)
REMARK    1  A    between atoms: O_2  and  C_15
REMARK    2  A    between atoms: C_9  and  C_10
REMARK                            x       y       z     vdW  Elec       q    Type
REMARK                         _______ _______ _______ _____ _____    ______ ____
ROOT
ATOM      1  O   UNL     1     112.699 126.144 138.345  0.00  0.00    +0.000 OA
ATOM      2  O   UNL     1     114.074 124.302 136.595  0.00  0.00    +0.000 OA
ATOM      3  O   UNL     1     114.791 125.056 137.594  0.00  0.00    +0.000 OA
ATOM      4  C   UNL     1     113.378 125.233 137.479  0.00  0.00    +0.000 A 
ATOM      5  C   UNL     1     112.680 125.596 137.730  0.00  0.00    +0.000 A 
ATOM      6  C   UNL     1     113.414 126.331 138.711  0.00  0.00    +0.000 A 
ATOM      7  C   UNL     1     114.094 125.419 137.844  0.00  0.00    +0.000 A 
ATOM      8  C   UNL     1     113.372 124.659 136.839  0.00  0.00    +0.000 A 
ATOM      9  C   UNL     1     114.112 125.968 138.461  0.00  0.00    +0.000 A 
ATOM     10  C   UNL     1     111.928 125.410 137.357  0.00  0.00    +0.000 A 
ATOM     11  C   UNL     1     111.903 124.840 136.715  0.00  0.00    +0.000 A 
ATOM     12  C   UNL     1     112.630 124.462 136.454  0.00  0.00    +0.000 A 
ENDROOT
BRANCH   6  15
ATOM     13  O   UNL     1     113.369 129.043 139.611  0.00  0.00    +0.000 OA
ATOM     14  O   UNL     1     113.489 128.526 141.174  0.00  0.00    +0.000 OA
ATOM     15  C   UNL     1     113.433 126.879 139.326  0.00  0.00    +0.000 A 
ATOM     16  C   UNL     1     113.392 127.686 139.161  0.00  0.00    +0.000 A 
ATOM     17  C   UNL     1     113.492 126.621 140.108  0.00  0.00    +0.000 A 
ATOM     18  C   UNL     1     113.410 128.235 139.777  0.00  0.00    +0.000 A 
ATOM     19  C   UNL     1     113.511 127.169 140.723  0.00  0.00    +0.000 A 
ATOM     20  C   UNL     1     113.470 127.977 140.558  0.00  0.00    +0.000 A 
ENDBRANCH   6  15
BRANCH  11  21
ATOM     21  O   UNL     1     111.186 124.656 136.351  0.00  0.00    +0.000 OA
ATOM     22  C   UNL     1     110.904 125.124 135.733  0.00  0.00    +0.000 C 
ENDBRANCH  11  21
TORSDOF 2
ENDMDL
