MODEL 1
REMARK VINA RESULT:      -8.1      0.000      0.000
REMARK  Name = 44259762
REMARK  7 active torsions:
REMARK  status: ('A' for Active; 'I' for Inactive)
REMARK    1  A    between atoms: O_2  and  C_16
REMARK    2  A    between atoms: O_2  and  C_18
REMARK    3  A    between atoms: O_6  and  C_19
REMARK    4  A    between atoms: O_8  and  C_20
REMARK    5  A    between atoms: O_9  and  C_26
REMARK    6  A    between atoms: O_11  and  C_34
REMARK    7  A    between atoms: C_25  and  C_27
REMARK                            x       y       z     vdW  Elec       q    Type
REMARK                         _______ _______ _______ _____ _____    ______ ____
ROOT
ATOM      1  O   UNL     1     111.066 129.655 135.688  0.00  0.00    +0.000 OA
ATOM      2  O   UNL     1     110.036 127.411 135.844  0.00  0.00    +0.000 OA
ATOM      3  C   UNL     1     112.533 127.624 136.058  0.00  0.00    +0.000 A 
ATOM      4  C   UNL     1     111.681 127.544 135.986  0.00  0.00    +0.000 A 
ATOM      5  C   UNL     1     112.891 128.404 136.003  0.00  0.00    +0.000 A 
ATOM      6  C   UNL     1     111.197 128.242 135.860  0.00  0.00    +0.000 A 
ATOM      7  C   UNL     1     111.541 128.990 135.808  0.00  0.00    +0.000 A 
ATOM      8  C   UNL     1     112.392 129.092 135.878  0.00  0.00    +0.000 A 
ATOM      9  C   UNL     1     110.380 128.159 135.792  0.00  0.00    +0.000 A 
ATOM     10  C   UNL     1     110.248 129.571 135.619  0.00  0.00    +0.000 A 
ATOM     11  C   UNL     1     109.905 128.822 135.672  0.00  0.00    +0.000 A 
ENDROOT
BRANCH  10  12
ATOM     12  C   UNL     1     109.774 130.235 135.499  0.00  0.00    +0.000 A 
ATOM     13  C   UNL     1     109.505 130.672 136.145  0.00  0.00    +0.000 A 
ATOM     14  C   UNL     1     109.569 130.462 134.733  0.00  0.00    +0.000 A 
ATOM     15  C   UNL     1     109.031 131.336 136.024  0.00  0.00    +0.000 A 
ATOM     16  C   UNL     1     109.095 131.126 134.612  0.00  0.00    +0.000 A 
ATOM     17  C   UNL     1     108.826 131.563 135.258  0.00  0.00    +0.000 A 
BRANCH  17  18
ATOM     18  O   UNL     1     108.351 132.228 135.137  0.00  0.00    +0.000 OA
ATOM     19  C   UNL     1     107.549 132.137 134.974  0.00  0.00    +0.000 C 
ENDBRANCH  17  18
ENDBRANCH  10  12
BRANCH   4  20
ATOM     20  O   UNL     1     111.329 126.799 136.037  0.00  0.00    +0.000 OA
ATOM     21  C   UNL     1     111.084 126.411 135.351  0.00  0.00    +0.000 C 
ENDBRANCH   4  20
BRANCH   5  22
ATOM     22  O   UNL     1     113.708 128.491 136.071  0.00  0.00    +0.000 OA
ATOM     23  C   UNL     1     114.084 129.141 135.728  0.00  0.00    +0.000 C 
ENDBRANCH   5  22
BRANCH  11  24
ATOM     24  O   UNL     1     109.087 128.738 135.603  0.00  0.00    +0.000 OA
ATOM     25  C   UNL     1     108.708 128.094 135.953  0.00  0.00    +0.000 C 
ENDBRANCH  11  24
BRANCH   3  26
ATOM     26  O   UNL     1     113.005 126.958 136.178  0.00  0.00    +0.000 OA
BRANCH  26  35
ATOM     27  O   UNL     1     112.866 127.107 137.593  0.00  0.00    +0.000 OA
ATOM     28  O   UNL     1     114.526 125.306 137.946  0.00  0.00    +0.000 OA
ATOM     29  O   UNL     1     113.834 126.055 139.242  0.00  0.00    +0.000 OA
ATOM     30  O   UNL     1     114.112 125.757 136.414  0.00  0.00    +0.000 OA
ATOM     31  C   UNL     1     113.973 125.906 137.828  0.00  0.00    +0.000 C 
ATOM     32  C   UNL     1     113.626 126.281 138.476  0.00  0.00    +0.000 C 
ATOM     33  C   UNL     1     113.765 126.132 137.062  0.00  0.00    +0.000 C 
ATOM     34  C   UNL     1     113.073 126.882 138.358  0.00  0.00    +0.000 C 
ATOM     35  C   UNL     1     113.212 126.733 136.945  0.00  0.00    +0.000 C 
ATOM     36  C   UNL     1     112.727 127.256 139.007  0.00  0.00    +0.000 C 
ENDBRANCH  26  35
ENDBRANCH   3  26
TORSDOF 7
ENDMDL
MODEL 2
REMARK VINA RESULT:      -8.0      2.914      5.593
REMARK  Name = 44259762
REMARK  7 active torsions:
REMARK  status: ('A' for Active; 'I' for Inactive)
REMARK    1  A    between atoms: O_2  and  C_16
REMARK    2  A    between atoms: O_2  and  C_18
REMARK    3  A    between atoms: O_6  and  C_19
REMARK    4  A    between atoms: O_8  and  C_20
REMARK    5  A    between atoms: O_9  and  C_26
REMARK    6  A    between atoms: O_11  and  C_34
REMARK    7  A    between atoms: C_25  and  C_27
REMARK                            x       y       z     vdW  Elec       q    Type
REMARK                         _______ _______ _______ _____ _____    ______ ____
ROOT
ATOM      1  O   UNL     1     113.048 126.376 138.757  0.00  0.00    +0.000 OA
ATOM      2  O   UNL     1     112.258 128.498 137.760  0.00  0.00    +0.000 OA
ATOM      3  C   UNL     1     113.614 128.575 139.877  0.00  0.00    +0.000 A 
ATOM      4  C   UNL     1     113.150 128.556 139.154  0.00  0.00    +0.000 A 
ATOM      5  C   UNL     1     113.888 127.837 140.223  0.00  0.00    +0.000 A 
ATOM      6  C   UNL     1     112.967 127.802 138.786  0.00  0.00    +0.000 A 
ATOM      7  C   UNL     1     113.230 127.095 139.119  0.00  0.00    +0.000 A 
ATOM      8  C   UNL     1     113.695 127.092 139.842  0.00  0.00    +0.000 A 
ATOM      9  C   UNL     1     112.522 127.791 138.092  0.00  0.00    +0.000 A 
ATOM     10  C   UNL     1     112.602 126.365 138.062  0.00  0.00    +0.000 A 
ATOM     11  C   UNL     1     112.339 127.073 137.730  0.00  0.00    +0.000 A 
ENDROOT
BRANCH  10  12
ATOM     12  C   UNL     1     112.420 125.646 137.700  0.00  0.00    +0.000 A 
ATOM     13  C   UNL     1     111.737 125.237 137.916  0.00  0.00    +0.000 A 
ATOM     14  C   UNL     1     112.921 125.336 137.123  0.00  0.00    +0.000 A 
ATOM     15  C   UNL     1     111.554 124.519 137.554  0.00  0.00    +0.000 A 
ATOM     16  C   UNL     1     112.739 124.618 136.761  0.00  0.00    +0.000 A 
ATOM     17  C   UNL     1     112.055 124.209 136.977  0.00  0.00    +0.000 A 
BRANCH  17  18
ATOM     18  O   UNL     1     111.873 123.490 136.615  0.00  0.00    +0.000 OA
ATOM     19  C   UNL     1     111.895 122.791 137.051  0.00  0.00    +0.000 C 
ENDBRANCH  17  18
ENDBRANCH  10  12
BRANCH   4  20
ATOM     20  O   UNL     1     112.883 129.259 138.814  0.00  0.00    +0.000 OA
ATOM     21  C   UNL     1     113.251 129.557 138.139  0.00  0.00    +0.000 C 
ENDBRANCH   4  20
BRANCH   5  22
ATOM     22  O   UNL     1     114.333 127.845 140.917  0.00  0.00    +0.000 OA
ATOM     23  C   UNL     1     114.816 127.202 141.105  0.00  0.00    +0.000 C 
ENDBRANCH   5  22
BRANCH  11  24
ATOM     24  O   UNL     1     111.893 127.061 137.035  0.00  0.00    +0.000 OA
ATOM     25  C   UNL     1     111.269 127.593 136.938  0.00  0.00    +0.000 C 
ENDBRANCH  11  24
BRANCH   3  26
ATOM     26  O   UNL     1     113.795 129.295 140.237  0.00  0.00    +0.000 OA
BRANCH  26  35
ATOM     27  O   UNL     1     112.616 129.191 141.038  0.00  0.00    +0.000 OA
ATOM     28  O   UNL     1     113.195 131.316 142.166  0.00  0.00    +0.000 OA
ATOM     29  O   UNL     1     111.823 130.504 142.591  0.00  0.00    +0.000 OA
ATOM     30  O   UNL     1     114.181 130.712 140.989  0.00  0.00    +0.000 OA
ATOM     31  C   UNL     1     113.002 130.608 141.790  0.00  0.00    +0.000 C 
ATOM     32  C   UNL     1     112.316 130.201 142.002  0.00  0.00    +0.000 C 
ATOM     33  C   UNL     1     113.494 130.305 141.202  0.00  0.00    +0.000 C 
ATOM     34  C   UNL     1     112.123 129.493 141.626  0.00  0.00    +0.000 C 
ATOM     35  C   UNL     1     113.301 129.597 140.826  0.00  0.00    +0.000 C 
ATOM     36  C   UNL     1     111.437 129.087 141.839  0.00  0.00    +0.000 C 
ENDBRANCH  26  35
ENDBRANCH   3  26
TORSDOF 7
ENDMDL
MODEL 3
REMARK VINA RESULT:      -8.0      2.080      5.488
REMARK  Name = 44259762
REMARK  7 active torsions:
REMARK  status: ('A' for Active; 'I' for Inactive)
REMARK    1  A    between atoms: O_2  and  C_16
REMARK    2  A    between atoms: O_2  and  C_18
REMARK    3  A    between atoms: O_6  and  C_19
REMARK    4  A    between atoms: O_8  and  C_20
REMARK    5  A    between atoms: O_9  and  C_26
REMARK    6  A    between atoms: O_11  and  C_34
REMARK    7  A    between atoms: C_25  and  C_27
REMARK                            x       y       z     vdW  Elec       q    Type
REMARK                         _______ _______ _______ _____ _____    ______ ____
ROOT
ATOM      1  O   UNL     1     111.808 127.263 136.605  0.00  0.00    +0.000 OA
ATOM      2  O   UNL     1     112.990 128.210 138.561  0.00  0.00    +0.000 OA
ATOM      3  C   UNL     1     111.770 129.764 137.004  0.00  0.00    +0.000 A 
ATOM      4  C   UNL     1     112.189 129.239 137.540  0.00  0.00    +0.000 A 
ATOM      5  C   UNL     1     111.359 129.434 136.324  0.00  0.00    +0.000 A 
ATOM      6  C   UNL     1     112.193 128.393 137.391  0.00  0.00    +0.000 A 
ATOM      7  C   UNL     1     111.798 128.077 136.738  0.00  0.00    +0.000 A 
ATOM      8  C   UNL     1     111.373 128.586 136.190  0.00  0.00    +0.000 A 
ATOM      9  C   UNL     1     112.596 127.894 137.908  0.00  0.00    +0.000 A 
ATOM     10  C   UNL     1     112.212 126.765 137.123  0.00  0.00    +0.000 A 
ATOM     11  C   UNL     1     112.606 127.080 137.775  0.00  0.00    +0.000 A 
ENDROOT
BRANCH  10  12
ATOM     12  C   UNL     1     112.222 125.951 136.989  0.00  0.00    +0.000 A 
ATOM     13  C   UNL     1     111.597 125.482 137.255  0.00  0.00    +0.000 A 
ATOM     14  C   UNL     1     112.856 125.606 136.590  0.00  0.00    +0.000 A 
ATOM     15  C   UNL     1     111.607 124.668 137.121  0.00  0.00    +0.000 A 
ATOM     16  C   UNL     1     112.866 124.792 136.456  0.00  0.00    +0.000 A 
ATOM     17  C   UNL     1     112.241 124.323 136.722  0.00  0.00    +0.000 A 
BRANCH  17  18
ATOM     18  O   UNL     1     112.251 123.509 136.588  0.00  0.00    +0.000 OA
ATOM     19  C   UNL     1     112.000 122.991 137.178  0.00  0.00    +0.000 C 
ENDBRANCH  17  18
ENDBRANCH  10  12
BRANCH   4  20
ATOM     20  O   UNL     1     112.586 129.546 138.195  0.00  0.00    +0.000 OA
ATOM     21  C   UNL     1     113.409 129.609 138.186  0.00  0.00    +0.000 C 
ENDBRANCH   4  20
BRANCH   5  22
ATOM     22  O   UNL     1     110.955 129.930 135.804  0.00  0.00    +0.000 OA
ATOM     23  C   UNL     1     110.775 129.670 135.041  0.00  0.00    +0.000 C 
ENDBRANCH   5  22
BRANCH  11  24
ATOM     24  O   UNL     1     113.010 126.582 138.294  0.00  0.00    +0.000 OA
ATOM     25  C   UNL     1     113.003 126.737 139.105  0.00  0.00    +0.000 C 
ENDBRANCH  11  24
BRANCH   3  26
ATOM     26  O   UNL     1     111.762 130.577 137.140  0.00  0.00    +0.000 OA
BRANCH  26  35
ATOM     27  O   UNL     1     110.582 130.437 137.934  0.00  0.00    +0.000 OA
ATOM     28  O   UNL     1     110.414 132.900 138.116  0.00  0.00    +0.000 OA
ATOM     29  O   UNL     1     109.290 131.939 138.849  0.00  0.00    +0.000 OA
ATOM     30  O   UNL     1     111.650 132.219 137.262  0.00  0.00    +0.000 OA
ATOM     31  C   UNL     1     110.470 132.079 138.056  0.00  0.00    +0.000 C 
ATOM     32  C   UNL     1     109.908 131.598 138.422  0.00  0.00    +0.000 C 
ATOM     33  C   UNL     1     111.088 131.738 137.629  0.00  0.00    +0.000 C 
ATOM     34  C   UNL     1     109.964 130.778 138.361  0.00  0.00    +0.000 C 
ATOM     35  C   UNL     1     111.144 130.917 137.568  0.00  0.00    +0.000 C 
ATOM     36  C   UNL     1     109.402 130.298 138.728  0.00  0.00    +0.000 C 
ENDBRANCH  26  35
ENDBRANCH   3  26
TORSDOF 7
ENDMDL
MODEL 4
REMARK VINA RESULT:      -8.0      2.048      5.273
REMARK  Name = 44259762
REMARK  7 active torsions:
REMARK  status: ('A' for Active; 'I' for Inactive)
REMARK    1  A    between atoms: O_2  and  C_16
REMARK    2  A    between atoms: O_2  and  C_18
REMARK    3  A    between atoms: O_6  and  C_19
REMARK    4  A    between atoms: O_8  and  C_20
REMARK    5  A    between atoms: O_9  and  C_26
REMARK    6  A    between atoms: O_11  and  C_34
REMARK    7  A    between atoms: C_25  and  C_27
REMARK                            x       y       z     vdW  Elec       q    Type
REMARK                         _______ _______ _______ _____ _____    ______ ____
ROOT
ATOM      1  O   UNL     1     112.345 127.246 137.301  0.00  0.00    +0.000 OA
ATOM      2  O   UNL     1     111.099 128.182 135.380  0.00  0.00    +0.000 OA
ATOM      3  C   UNL     1     111.971 129.746 137.146  0.00  0.00    +0.000 A 
ATOM      4  C   UNL     1     111.670 129.217 136.539  0.00  0.00    +0.000 A 
ATOM      5  C   UNL     1     112.404 129.420 137.814  0.00  0.00    +0.000 A 
ATOM      6  C   UNL     1     111.805 128.372 136.606  0.00  0.00    +0.000 A 
ATOM      7  C   UNL     1     112.221 128.060 137.247  0.00  0.00    +0.000 A 
ATOM      8  C   UNL     1     112.530 128.572 137.865  0.00  0.00    +0.000 A 
ATOM      9  C   UNL     1     111.515 127.870 136.021  0.00  0.00    +0.000 A 
ATOM     10  C   UNL     1     112.054 126.744 136.715  0.00  0.00    +0.000 A 
ATOM     11  C   UNL     1     111.638 127.056 136.074  0.00  0.00    +0.000 A 
ENDROOT
BRANCH  10  12
ATOM     12  C   UNL     1     112.178 125.930 136.769  0.00  0.00    +0.000 A 
ATOM     13  C   UNL     1     112.851 125.593 136.433  0.00  0.00    +0.000 A 
ATOM     14  C   UNL     1     111.628 125.454 137.160  0.00  0.00    +0.000 A 
ATOM     15  C   UNL     1     112.976 124.779 136.488  0.00  0.00    +0.000 A 
ATOM     16  C   UNL     1     111.753 124.641 137.214  0.00  0.00    +0.000 A 
ATOM     17  C   UNL     1     112.426 124.303 136.878  0.00  0.00    +0.000 A 
BRANCH  17  18
ATOM     18  O   UNL     1     112.550 123.489 136.932  0.00  0.00    +0.000 OA
ATOM     19  C   UNL     1     111.960 123.001 137.237  0.00  0.00    +0.000 C 
ENDBRANCH  17  18
ENDBRANCH  10  12
BRANCH   4  20
ATOM     20  O   UNL     1     111.253 129.521 135.895  0.00  0.00    +0.000 OA
ATOM     21  C   UNL     1     111.614 129.564 135.154  0.00  0.00    +0.000 C 
ENDBRANCH   4  20
BRANCH   5  22
ATOM     22  O   UNL     1     112.696 129.919 138.402  0.00  0.00    +0.000 OA
ATOM     23  C   UNL     1     113.332 129.678 138.870  0.00  0.00    +0.000 C 
ENDBRANCH   5  22
BRANCH  11  24
ATOM     24  O   UNL     1     111.347 126.554 135.488  0.00  0.00    +0.000 OA
ATOM     25  C   UNL     1     110.620 126.715 135.131  0.00  0.00    +0.000 C 
ENDBRANCH  11  24
BRANCH   3  26
ATOM     26  O   UNL     1     111.845 130.559 137.089  0.00  0.00    +0.000 OA
BRANCH  26  35
ATOM     27  O   UNL     1     110.605 130.429 137.787  0.00  0.00    +0.000 OA
ATOM     28  O   UNL     1     110.460 132.892 137.987  0.00  0.00    +0.000 OA
ATOM     29  O   UNL     1     109.267 131.941 138.618  0.00  0.00    +0.000 OA
ATOM     30  O   UNL     1     111.749 132.201 137.223  0.00  0.00    +0.000 OA
ATOM     31  C   UNL     1     110.508 132.071 137.920  0.00  0.00    +0.000 C 
ATOM     32  C   UNL     1     109.912 131.595 138.235  0.00  0.00    +0.000 C 
ATOM     33  C   UNL     1     111.152 131.725 137.538  0.00  0.00    +0.000 C 
ATOM     34  C   UNL     1     109.961 130.774 138.168  0.00  0.00    +0.000 C 
ATOM     35  C   UNL     1     111.200 130.904 137.472  0.00  0.00    +0.000 C 
ATOM     36  C   UNL     1     109.364 130.300 138.484  0.00  0.00    +0.000 C 
ENDBRANCH  26  35
ENDBRANCH   3  26
TORSDOF 7
ENDMDL
MODEL 5
REMARK VINA RESULT:      -7.9      1.797      2.422
REMARK  Name = 44259762
REMARK  7 active torsions:
REMARK  status: ('A' for Active; 'I' for Inactive)
REMARK    1  A    between atoms: O_2  and  C_16
REMARK    2  A    between atoms: O_2  and  C_18
REMARK    3  A    between atoms: O_6  and  C_19
REMARK    4  A    between atoms: O_8  and  C_20
REMARK    5  A    between atoms: O_9  and  C_26
REMARK    6  A    between atoms: O_11  and  C_34
REMARK    7  A    between atoms: C_25  and  C_27
REMARK                            x       y       z     vdW  Elec       q    Type
REMARK                         _______ _______ _______ _____ _____    ______ ____
ROOT
ATOM      1  O   UNL     1     111.894 129.615 136.839  0.00  0.00    +0.000 OA
ATOM      2  O   UNL     1     111.033 128.344 138.780  0.00  0.00    +0.000 OA
ATOM      3  C   UNL     1     112.833 127.320 137.353  0.00  0.00    +0.000 A 
ATOM      4  C   UNL     1     112.219 127.664 137.845  0.00  0.00    +0.000 A 
ATOM      5  C   UNL     1     113.132 127.762 136.678  0.00  0.00    +0.000 A 
ATOM      6  C   UNL     1     111.910 128.443 137.657  0.00  0.00    +0.000 A 
ATOM      7  C   UNL     1     112.197 128.867 137.010  0.00  0.00    +0.000 A 
ATOM      8  C   UNL     1     112.812 128.540 136.506  0.00  0.00    +0.000 A 
ATOM      9  C   UNL     1     111.320 128.768 138.133  0.00  0.00    +0.000 A 
ATOM     10  C   UNL     1     111.303 129.939 137.316  0.00  0.00    +0.000 A 
ATOM     11  C   UNL     1     111.016 129.515 137.963  0.00  0.00    +0.000 A 
ENDROOT
BRANCH  10  12
ATOM     12  C   UNL     1     111.000 130.687 137.145  0.00  0.00    +0.000 A 
ATOM     13  C   UNL     1     111.306 131.353 137.524  0.00  0.00    +0.000 A 
ATOM     14  C   UNL     1     110.391 130.769 136.594  0.00  0.00    +0.000 A 
ATOM     15  C   UNL     1     111.002 132.100 137.354  0.00  0.00    +0.000 A 
ATOM     16  C   UNL     1     110.088 131.517 136.423  0.00  0.00    +0.000 A 
ATOM     17  C   UNL     1     110.393 132.183 136.803  0.00  0.00    +0.000 A 
BRANCH  17  18
ATOM     18  O   UNL     1     110.090 132.931 136.632  0.00  0.00    +0.000 OA
ATOM     19  C   UNL     1     110.588 133.588 136.633  0.00  0.00    +0.000 C 
ENDBRANCH  17  18
ENDBRANCH  10  12
BRANCH   4  20
ATOM     20  O   UNL     1     111.926 127.247 138.494  0.00  0.00    +0.000 OA
ATOM     21  C   UNL     1     112.156 127.458 139.257  0.00  0.00    +0.000 C 
ENDBRANCH   4  20
BRANCH   5  22
ATOM     22  O   UNL     1     113.722 127.440 136.200  0.00  0.00    +0.000 OA
ATOM     23  C   UNL     1     114.213 127.937 135.759  0.00  0.00    +0.000 C 
ENDBRANCH   5  22
BRANCH  11  24
ATOM     24  O   UNL     1     110.426 129.840 138.439  0.00  0.00    +0.000 OA
ATOM     25  C   UNL     1     109.822 129.359 138.732  0.00  0.00    +0.000 C 
ENDBRANCH  11  24
BRANCH   3  26
ATOM     26  O   UNL     1     113.135 126.572 137.526  0.00  0.00    +0.000 OA
BRANCH  26  35
ATOM     27  O   UNL     1     112.110 125.968 136.734  0.00  0.00    +0.000 OA
ATOM     28  O   UNL     1     113.201 123.763 137.004  0.00  0.00    +0.000 OA
ATOM     29  O   UNL     1     111.812 123.894 136.122  0.00  0.00    +0.000 OA
ATOM     30  O   UNL     1     113.862 125.102 137.706  0.00  0.00    +0.000 OA
ATOM     31  C   UNL     1     112.837 124.498 136.914  0.00  0.00    +0.000 C 
ATOM     32  C   UNL     1     112.143 124.564 136.473  0.00  0.00    +0.000 C 
ATOM     33  C   UNL     1     113.167 125.168 137.264  0.00  0.00    +0.000 C 
ATOM     34  C   UNL     1     111.779 125.299 136.383  0.00  0.00    +0.000 C 
ATOM     35  C   UNL     1     112.804 125.903 137.175  0.00  0.00    +0.000 C 
ATOM     36  C   UNL     1     111.085 125.364 135.942  0.00  0.00    +0.000 C 
ENDBRANCH  26  35
ENDBRANCH   3  26
TORSDOF 7
ENDMDL
MODEL 6
REMARK VINA RESULT:      -7.9      3.036      5.165
REMARK  Name = 44259762
REMARK  7 active torsions:
REMARK  status: ('A' for Active; 'I' for Inactive)
REMARK    1  A    between atoms: O_2  and  C_16
REMARK    2  A    between atoms: O_2  and  C_18
REMARK    3  A    between atoms: O_6  and  C_19
REMARK    4  A    between atoms: O_8  and  C_20
REMARK    5  A    between atoms: O_9  and  C_26
REMARK    6  A    between atoms: O_11  and  C_34
REMARK    7  A    between atoms: C_25  and  C_27
REMARK                            x       y       z     vdW  Elec       q    Type
REMARK                         _______ _______ _______ _____ _____    ______ ____
ROOT
ATOM      1  O   UNL     1     111.551 127.588 138.116  0.00  0.00    +0.000 OA
ATOM      2  O   UNL     1     113.401 126.605 139.433  0.00  0.00    +0.000 OA
ATOM      3  C   UNL     1     112.406 128.794 140.172  0.00  0.00    +0.000 A 
ATOM      4  C   UNL     1     112.751 128.046 139.926  0.00  0.00    +0.000 A 
ATOM      5  C   UNL     1     111.763 129.135 139.714  0.00  0.00    +0.000 A 
ATOM      6  C   UNL     1     112.450 127.650 139.226  0.00  0.00    +0.000 A 
ATOM      7  C   UNL     1     111.833 127.977 138.787  0.00  0.00    +0.000 A 
ATOM      8  C   UNL     1     111.475 128.724 139.017  0.00  0.00    +0.000 A 
ATOM      9  C   UNL     1     112.784 126.933 138.994  0.00  0.00    +0.000 A 
ATOM     10  C   UNL     1     111.887 126.870 137.885  0.00  0.00    +0.000 A 
ATOM     11  C   UNL     1     112.504 126.543 138.324  0.00  0.00    +0.000 A 
ENDROOT
BRANCH  10  12
ATOM     12  C   UNL     1     111.605 126.481 137.214  0.00  0.00    +0.000 A 
ATOM     13  C   UNL     1     111.056 125.871 137.292  0.00  0.00    +0.000 A 
ATOM     14  C   UNL     1     111.874 126.701 136.466  0.00  0.00    +0.000 A 
ATOM     15  C   UNL     1     110.774 125.481 136.621  0.00  0.00    +0.000 A 
ATOM     16  C   UNL     1     111.592 126.312 135.795  0.00  0.00    +0.000 A 
ATOM     17  C   UNL     1     111.042 125.702 135.873  0.00  0.00    +0.000 A 
BRANCH  17  18
ATOM     18  O   UNL     1     110.761 125.312 135.202  0.00  0.00    +0.000 OA
ATOM     19  C   UNL     1     110.203 125.676 134.718  0.00  0.00    +0.000 C 
ENDBRANCH  17  18
ENDBRANCH  10  12
BRANCH   4  20
ATOM     20  O   UNL     1     113.368 127.711 140.359  0.00  0.00    +0.000 OA
ATOM     21  C   UNL     1     113.219 127.079 140.867  0.00  0.00    +0.000 C 
ENDBRANCH   4  20
BRANCH   5  22
ATOM     22  O   UNL     1     111.426 129.852 139.943  0.00  0.00    +0.000 OA
ATOM     23  C   UNL     1     110.667 130.052 139.687  0.00  0.00    +0.000 C 
ENDBRANCH   5  22
BRANCH  11  24
ATOM     24  O   UNL     1     112.839 125.825 138.092  0.00  0.00    +0.000 OA
ATOM     25  C   UNL     1     113.656 125.719 138.138  0.00  0.00    +0.000 C 
ENDBRANCH  11  24
BRANCH   3  26
ATOM     26  O   UNL     1     112.689 129.181 140.843  0.00  0.00    +0.000 OA
BRANCH  26  35
ATOM     27  O   UNL     1     113.694 129.838 140.068  0.00  0.00    +0.000 OA
ATOM     28  O   UNL     1     114.132 131.387 141.947  0.00  0.00    +0.000 OA
ATOM     29  O   UNL     1     114.991 131.527 140.545  0.00  0.00    +0.000 OA
ATOM     30  O   UNL     1     112.982 130.214 142.096  0.00  0.00    +0.000 OA
ATOM     31  C   UNL     1     113.986 130.871 141.321  0.00  0.00    +0.000 C 
ATOM     32  C   UNL     1     114.415 130.940 140.619  0.00  0.00    +0.000 C 
ATOM     33  C   UNL     1     113.411 130.284 141.395  0.00  0.00    +0.000 C 
ATOM     34  C   UNL     1     114.269 130.424 139.993  0.00  0.00    +0.000 C 
ATOM     35  C   UNL     1     113.265 129.767 140.768  0.00  0.00    +0.000 C 
ATOM     36  C   UNL     1     114.699 130.494 139.292  0.00  0.00    +0.000 C 
ENDBRANCH  26  35
ENDBRANCH   3  26
TORSDOF 7
ENDMDL
MODEL 7
REMARK VINA RESULT:      -7.9      1.271      2.222
REMARK  Name = 44259762
REMARK  7 active torsions:
REMARK  status: ('A' for Active; 'I' for Inactive)
REMARK    1  A    between atoms: O_2  and  C_16
REMARK    2  A    between atoms: O_2  and  C_18
REMARK    3  A    between atoms: O_6  and  C_19
REMARK    4  A    between atoms: O_8  and  C_20
REMARK    5  A    between atoms: O_9  and  C_26
REMARK    6  A    between atoms: O_11  and  C_34
REMARK    7  A    between atoms: C_25  and  C_27
REMARK                            x       y       z     vdW  Elec       q    Type
REMARK                         _______ _______ _______ _____ _____    ______ ____
ROOT
ATOM      1  O   UNL     1     110.599 128.735 137.371  0.00  0.00    +0.000 OA
ATOM      2  O   UNL     1     112.296 128.688 135.571  0.00  0.00    +0.000 OA
ATOM      3  C   UNL     1     112.627 127.236 137.598  0.00  0.00    +0.000 A 
ATOM      4  C   UNL     1     112.521 127.729 136.903  0.00  0.00    +0.000 A 
ATOM      5  C   UNL     1     112.038 127.252 138.223  0.00  0.00    +0.000 A 
ATOM      6  C   UNL     1     111.827 128.232 136.841  0.00  0.00    +0.000 A 
ATOM      7  C   UNL     1     111.262 128.248 137.441  0.00  0.00    +0.000 A 
ATOM      8  C   UNL     1     111.350 127.761 138.144  0.00  0.00    +0.000 A 
ATOM      9  C   UNL     1     111.730 128.703 136.171  0.00  0.00    +0.000 A 
ATOM     10  C   UNL     1     110.503 129.206 136.701  0.00  0.00    +0.000 A 
ATOM     11  C   UNL     1     111.068 129.191 136.101  0.00  0.00    +0.000 A 
ENDROOT
BRANCH  10  12
ATOM     12  C   UNL     1     109.840 129.693 136.631  0.00  0.00    +0.000 A 
ATOM     13  C   UNL     1     109.867 130.468 136.912  0.00  0.00    +0.000 A 
ATOM     14  C   UNL     1     109.151 129.405 136.281  0.00  0.00    +0.000 A 
ATOM     15  C   UNL     1     109.205 130.955 136.843  0.00  0.00    +0.000 A 
ATOM     16  C   UNL     1     108.489 129.892 136.211  0.00  0.00    +0.000 A 
ATOM     17  C   UNL     1     108.516 130.667 136.492  0.00  0.00    +0.000 A 
BRANCH  17  18
ATOM     18  O   UNL     1     107.854 131.154 136.422  0.00  0.00    +0.000 OA
ATOM     19  C   UNL     1     107.796 131.685 135.794  0.00  0.00    +0.000 C 
ENDBRANCH  17  18
ENDBRANCH  10  12
BRANCH   4  20
ATOM     20  O   UNL     1     113.082 127.720 136.297  0.00  0.00    +0.000 OA
ATOM     21  C   UNL     1     113.608 128.350 136.213  0.00  0.00    +0.000 C 
ENDBRANCH   4  20
BRANCH   5  22
ATOM     22  O   UNL     1     112.132 126.782 138.894  0.00  0.00    +0.000 OA
ATOM     23  C   UNL     1     111.755 126.988 139.599  0.00  0.00    +0.000 C 
ENDBRANCH   5  22
BRANCH  11  24
ATOM     24  O   UNL     1     110.972 129.662 135.431  0.00  0.00    +0.000 OA
ATOM     25  C   UNL     1     111.199 129.377 134.690  0.00  0.00    +0.000 C 
ENDBRANCH  11  24
BRANCH   3  26
ATOM     26  O   UNL     1     113.291 126.750 137.665  0.00  0.00    +0.000 OA
BRANCH  26  35
ATOM     27  O   UNL     1     112.591 125.694 137.003  0.00  0.00    +0.000 OA
ATOM     28  O   UNL     1     114.482 124.161 137.447  0.00  0.00    +0.000 OA
ATOM     29  O   UNL     1     113.151 123.616 136.637  0.00  0.00    +0.000 OA
ATOM     30  O   UNL     1     114.552 125.727 137.961  0.00  0.00    +0.000 OA
ATOM     31  C   UNL     1     113.851 124.672 137.299  0.00  0.00    +0.000 C 
ATOM     32  C   UNL     1     113.186 124.400 136.894  0.00  0.00    +0.000 C 
ATOM     33  C   UNL     1     113.886 125.455 137.556  0.00  0.00    +0.000 C 
ATOM     34  C   UNL     1     112.555 124.912 136.746  0.00  0.00    +0.000 C 
ATOM     35  C   UNL     1     113.255 125.966 137.408  0.00  0.00    +0.000 C 
ATOM     36  C   UNL     1     111.890 124.639 136.341  0.00  0.00    +0.000 C 
ENDBRANCH  26  35
ENDBRANCH   3  26
TORSDOF 7
ENDMDL
MODEL 8
REMARK VINA RESULT:      -7.9      7.960      9.770
REMARK  Name = 44259762
REMARK  7 active torsions:
REMARK  status: ('A' for Active; 'I' for Inactive)
REMARK    1  A    between atoms: O_2  and  C_16
REMARK    2  A    between atoms: O_2  and  C_18
REMARK    3  A    between atoms: O_6  and  C_19
REMARK    4  A    between atoms: O_8  and  C_20
REMARK    5  A    between atoms: O_9  and  C_26
REMARK    6  A    between atoms: O_11  and  C_34
REMARK    7  A    between atoms: C_25  and  C_27
REMARK                            x       y       z     vdW  Elec       q    Type
REMARK                         _______ _______ _______ _____ _____    ______ ____
ROOT
ATOM      1  O   UNL     1     112.178 131.766 143.015  0.00  0.00    +0.000 OA
ATOM      2  O   UNL     1     110.891 130.268 144.505  0.00  0.00    +0.000 OA
ATOM      3  C   UNL     1     111.292 132.646 145.218  0.00  0.00    +0.000 A 
ATOM      4  C   UNL     1     111.151 131.833 144.981  0.00  0.00    +0.000 A 
ATOM      5  C   UNL     1     111.739 133.167 144.700  0.00  0.00    +0.000 A 
ATOM      6  C   UNL     1     111.459 131.549 144.230  0.00  0.00    +0.000 A 
ATOM      7  C   UNL     1     111.888 132.049 143.734  0.00  0.00    +0.000 A 
ATOM      8  C   UNL     1     112.039 132.866 143.953  0.00  0.00    +0.000 A 
ATOM      9  C   UNL     1     111.320 130.768 144.008  0.00  0.00    +0.000 A 
ATOM     10  C   UNL     1     112.040 130.984 142.793  0.00  0.00    +0.000 A 
ATOM     11  C   UNL     1     111.610 130.484 143.290  0.00  0.00    +0.000 A 
ENDROOT
BRANCH  10  12
ATOM     12  C   UNL     1     112.330 130.701 142.075  0.00  0.00    +0.000 A 
ATOM     13  C   UNL     1     111.824 130.621 141.428  0.00  0.00    +0.000 A 
ATOM     14  C   UNL     1     113.127 130.498 142.003  0.00  0.00    +0.000 A 
ATOM     15  C   UNL     1     112.115 130.338 140.710  0.00  0.00    +0.000 A 
ATOM     16  C   UNL     1     113.417 130.216 141.284  0.00  0.00    +0.000 A 
ATOM     17  C   UNL     1     112.911 130.136 140.638  0.00  0.00    +0.000 A 
BRANCH  17  18
ATOM     18  O   UNL     1     113.202 129.853 139.919  0.00  0.00    +0.000 OA
ATOM     19  C   UNL     1     113.849 130.219 139.563  0.00  0.00    +0.000 C 
ENDBRANCH  17  18
ENDBRANCH  10  12
BRANCH   4  20
ATOM     20  O   UNL     1     110.723 131.326 145.471  0.00  0.00    +0.000 OA
ATOM     21  C   UNL     1     109.943 131.133 145.285  0.00  0.00    +0.000 C 
ENDBRANCH   4  20
BRANCH   5  22
ATOM     22  O   UNL     1     111.879 133.949 144.919  0.00  0.00    +0.000 OA
ATOM     23  C   UNL     1     112.006 134.524 144.340  0.00  0.00    +0.000 C 
ENDBRANCH   5  22
BRANCH  11  24
ATOM     24  O   UNL     1     111.472 129.701 143.068  0.00  0.00    +0.000 OA
ATOM     25  C   UNL     1     111.523 129.099 143.630  0.00  0.00    +0.000 C 
ENDBRANCH  11  24
BRANCH   3  26
ATOM     26  O   UNL     1     111.000 132.926 145.937  0.00  0.00    +0.000 OA
BRANCH  26  35
ATOM     27  O   UNL     1     112.189 132.489 146.598  0.00  0.00    +0.000 OA
ATOM     28  O   UNL     1     111.448 133.611 148.675  0.00  0.00    +0.000 OA
ATOM     29  O   UNL     1     112.884 132.800 148.644  0.00  0.00    +0.000 OA
ATOM     30  O   UNL     1     110.506 133.675 147.322  0.00  0.00    +0.000 OA
ATOM     31  C   UNL     1     111.695 133.237 147.983  0.00  0.00    +0.000 C 
ATOM     32  C   UNL     1     112.413 132.831 147.966  0.00  0.00    +0.000 C 
ATOM     33  C   UNL     1     111.225 133.269 147.306  0.00  0.00    +0.000 C 
ATOM     34  C   UNL     1     112.660 132.457 147.274  0.00  0.00    +0.000 C 
ATOM     35  C   UNL     1     111.472 132.894 146.613  0.00  0.00    +0.000 C 
ATOM     36  C   UNL     1     113.378 132.051 147.259  0.00  0.00    +0.000 C 
ENDBRANCH  26  35
ENDBRANCH   3  26
TORSDOF 7
ENDMDL
MODEL 9
REMARK VINA RESULT:      -7.9      1.624      2.408
REMARK  Name = 44259762
REMARK  7 active torsions:
REMARK  status: ('A' for Active; 'I' for Inactive)
REMARK    1  A    between atoms: O_2  and  C_16
REMARK    2  A    between atoms: O_2  and  C_18
REMARK    3  A    between atoms: O_6  and  C_19
REMARK    4  A    between atoms: O_8  and  C_20
REMARK    5  A    between atoms: O_9  and  C_26
REMARK    6  A    between atoms: O_11  and  C_34
REMARK    7  A    between atoms: C_25  and  C_27
REMARK                            x       y       z     vdW  Elec       q    Type
REMARK                         _______ _______ _______ _____ _____    ______ ____
ROOT
ATOM      1  O   UNL     1     109.848 128.334 135.898  0.00  0.00    +0.000 OA
ATOM      2  O   UNL     1     110.459 128.008 138.274  0.00  0.00    +0.000 OA
ATOM      3  C   UNL     1     110.741 126.093 136.668  0.00  0.00    +0.000 A 
ATOM      4  C   UNL     1     110.648 126.743 137.222  0.00  0.00    +0.000 A 
ATOM      5  C   UNL     1     110.529 126.206 135.842  0.00  0.00    +0.000 A 
ATOM      6  C   UNL     1     110.343 127.497 136.945  0.00  0.00    +0.000 A 
ATOM      7  C   UNL     1     110.139 127.605 136.153  0.00  0.00    +0.000 A 
ATOM      8  C   UNL     1     110.226 126.967 135.583  0.00  0.00    +0.000 A 
ATOM      9  C   UNL     1     110.256 128.117 137.482  0.00  0.00    +0.000 A 
ATOM     10  C   UNL     1     109.760 128.954 136.435  0.00  0.00    +0.000 A 
ATOM     11  C   UNL     1     109.964 128.846 137.228  0.00  0.00    +0.000 A 
ENDROOT
BRANCH  10  12
ATOM     12  C   UNL     1     109.469 129.682 136.181  0.00  0.00    +0.000 A 
ATOM     13  C   UNL     1     109.985 130.247 135.870  0.00  0.00    +0.000 A 
ATOM     14  C   UNL     1     108.662 129.846 136.236  0.00  0.00    +0.000 A 
ATOM     15  C   UNL     1     109.693 130.976 135.615  0.00  0.00    +0.000 A 
ATOM     16  C   UNL     1     108.371 130.575 135.981  0.00  0.00    +0.000 A 
ATOM     17  C   UNL     1     108.886 131.140 135.671  0.00  0.00    +0.000 A 
BRANCH  17  18
ATOM     18  O   UNL     1     108.595 131.868 135.416  0.00  0.00    +0.000 OA
ATOM     19  C   UNL     1     108.584 132.050 134.612  0.00  0.00    +0.000 C 
ENDBRANCH  17  18
ENDBRANCH  10  12
BRANCH   4  20
ATOM     20  O   UNL     1     110.849 126.643 138.016  0.00  0.00    +0.000 OA
ATOM     21  C   UNL     1     110.257 126.532 138.580  0.00  0.00    +0.000 C 
ENDBRANCH   4  20
BRANCH   5  22
ATOM     22  O   UNL     1     110.615 125.588 135.303  0.00  0.00    +0.000 OA
ATOM     23  C   UNL     1     110.163 125.577 134.613  0.00  0.00    +0.000 C 
ENDBRANCH   5  22
BRANCH  11  24
ATOM     24  O   UNL     1     109.877 129.466 137.765  0.00  0.00    +0.000 OA
ATOM     25  C   UNL     1     110.428 129.567 138.370  0.00  0.00    +0.000 C 
ENDBRANCH  11  24
BRANCH   3  26
ATOM     26  O   UNL     1     111.033 125.365 136.926  0.00  0.00    +0.000 OA
BRANCH  26  35
ATOM     27  O   UNL     1     112.374 125.808 136.707  0.00  0.00    +0.000 OA
ATOM     28  O   UNL     1     113.190 123.494 137.028  0.00  0.00    +0.000 OA
ATOM     29  O   UNL     1     114.259 124.708 136.702  0.00  0.00    +0.000 OA
ATOM     30  O   UNL     1     111.577 123.823 137.140  0.00  0.00    +0.000 OA
ATOM     31  C   UNL     1     112.918 124.265 136.921  0.00  0.00    +0.000 C 
ATOM     32  C   UNL     1     113.452 124.873 136.758  0.00  0.00    +0.000 C 
ATOM     33  C   UNL     1     112.112 124.430 136.977  0.00  0.00    +0.000 C 
ATOM     34  C   UNL     1     113.180 125.644 136.651  0.00  0.00    +0.000 C 
ATOM     35  C   UNL     1     111.840 125.202 136.870  0.00  0.00    +0.000 C 
ATOM     36  C   UNL     1     113.715 126.251 136.488  0.00  0.00    +0.000 C 
ENDBRANCH  26  35
ENDBRANCH   3  26
TORSDOF 7
ENDMDL
MODEL 10
REMARK VINA RESULT:      -7.9      2.283      4.147
REMARK  Name = 44259762
REMARK  7 active torsions:
REMARK  status: ('A' for Active; 'I' for Inactive)
REMARK    1  A    between atoms: O_2  and  C_16
REMARK    2  A    between atoms: O_2  and  C_18
REMARK    3  A    between atoms: O_6  and  C_19
REMARK    4  A    between atoms: O_8  and  C_20
REMARK    5  A    between atoms: O_9  and  C_26
REMARK    6  A    between atoms: O_11  and  C_34
REMARK    7  A    between atoms: C_25  and  C_27
REMARK                            x       y       z     vdW  Elec       q    Type
REMARK                         _______ _______ _______ _____ _____    ______ ____
ROOT
ATOM      1  O   UNL     1     113.524 128.283 136.944  0.00  0.00    +0.000 OA
ATOM      2  O   UNL     1     111.273 129.248 137.297  0.00  0.00    +0.000 OA
ATOM      3  C   UNL     1     111.872 127.094 138.450  0.00  0.00    +0.000 A 
ATOM      4  C   UNL     1     111.660 127.829 138.059  0.00  0.00    +0.000 A 
ATOM      5  C   UNL     1     112.654 126.759 138.327  0.00  0.00    +0.000 A 
ATOM      6  C   UNL     1     112.232 128.221 137.551  0.00  0.00    +0.000 A 
ATOM      7  C   UNL     1     112.983 127.899 137.434  0.00  0.00    +0.000 A 
ATOM      8  C   UNL     1     113.213 127.164 137.815  0.00  0.00    +0.000 A 
ATOM      9  C   UNL     1     112.024 128.926 137.179  0.00  0.00    +0.000 A 
ATOM     10  C   UNL     1     113.315 128.989 136.572  0.00  0.00    +0.000 A 
ATOM     11  C   UNL     1     112.564 129.311 136.689  0.00  0.00    +0.000 A 
ENDROOT
BRANCH  10  12
ATOM     12  C   UNL     1     113.856 129.374 136.082  0.00  0.00    +0.000 A 
ATOM     13  C   UNL     1     113.876 129.203 135.275  0.00  0.00    +0.000 A 
ATOM     14  C   UNL     1     114.377 129.929 136.399  0.00  0.00    +0.000 A 
ATOM     15  C   UNL     1     114.417 129.587 134.785  0.00  0.00    +0.000 A 
ATOM     16  C   UNL     1     114.919 130.313 135.909  0.00  0.00    +0.000 A 
ATOM     17  C   UNL     1     114.939 130.142 135.102  0.00  0.00    +0.000 A 
BRANCH  17  18
ATOM     18  O   UNL     1     115.480 130.527 134.612  0.00  0.00    +0.000 OA
ATOM     19  C   UNL     1     115.563 131.345 134.652  0.00  0.00    +0.000 C 
ENDBRANCH  17  18
ENDBRANCH  10  12
BRANCH   4  20
ATOM     20  O   UNL     1     110.912 128.159 138.171  0.00  0.00    +0.000 OA
ATOM     21  C   UNL     1     110.337 128.083 137.584  0.00  0.00    +0.000 C 
ENDBRANCH   4  20
BRANCH   5  22
ATOM     22  O   UNL     1     112.866 126.054 138.697  0.00  0.00    +0.000 OA
ATOM     23  C   UNL     1     113.480 125.595 138.391  0.00  0.00    +0.000 C 
ENDBRANCH   5  22
BRANCH  11  24
ATOM     24  O   UNL     1     112.355 130.017 136.317  0.00  0.00    +0.000 OA
ATOM     25  C   UNL     1     111.918 130.585 136.726  0.00  0.00    +0.000 C 
ENDBRANCH  11  24
BRANCH   3  26
ATOM     26  O   UNL     1     111.329 126.712 138.939  0.00  0.00    +0.000 OA
BRANCH  26  35
ATOM     27  O   UNL     1     111.786 127.468 140.061  0.00  0.00    +0.000 OA
ATOM     28  O   UNL     1     110.480 126.011 141.577  0.00  0.00    +0.000 OA
ATOM     29  O   UNL     1     111.374 127.253 142.194  0.00  0.00    +0.000 OA
ATOM     30  O   UNL     1     110.458 125.740 139.949  0.00  0.00    +0.000 OA
ATOM     31  C   UNL     1     110.916 126.497 141.071  0.00  0.00    +0.000 C 
ATOM     32  C   UNL     1     111.362 127.118 141.379  0.00  0.00    +0.000 C 
ATOM     33  C   UNL     1     110.905 126.362 140.258  0.00  0.00    +0.000 C 
ATOM     34  C   UNL     1     111.798 127.604 140.874  0.00  0.00    +0.000 C 
ATOM     35  C   UNL     1     111.340 126.848 139.753  0.00  0.00    +0.000 C 
ATOM     36  C   UNL     1     112.244 128.225 141.184  0.00  0.00    +0.000 C 
ENDBRANCH  26  35
ENDBRANCH   3  26
TORSDOF 7
ENDMDL
