MODEL 1
REMARK VINA RESULT:      -8.1      0.000      0.000
REMARK  Name = 14353376
REMARK  4 active torsions:
REMARK  status: ('A' for Active; 'I' for Inactive)
REMARK    1  A    between atoms: O_2  and  C_10
REMARK    2  A    between atoms: O_3  and  C_14
REMARK    3  A    between atoms: O_6  and  C_21
REMARK    4  A    between atoms: C_9  and  C_13
REMARK                            x       y       z     vdW  Elec       q    Type
REMARK                         _______ _______ _______ _____ _____    ______ ____
ROOT
ATOM      1  O   UNL     1     104.895 124.342 147.361  0.00  0.00    +0.000 OA
ATOM      2  O   UNL     1     107.252 125.533 146.176  0.00  0.00    +0.000 OA
ATOM      3  O   UNL     1     106.087 125.318 145.351  0.00  0.00    +0.000 OA
ATOM      4  C   UNL     1     106.089 124.945 146.763  0.00  0.00    +0.000 A 
ATOM      5  C   UNL     1     105.703 124.627 147.420  0.00  0.00    +0.000 A 
ATOM      6  C   UNL     1     104.483 124.389 146.608  0.00  0.00    +0.000 A 
ATOM      7  C   UNL     1     106.094 124.580 148.145  0.00  0.00    +0.000 A 
ATOM      8  C   UNL     1     106.866 125.215 146.833  0.00  0.00    +0.000 A 
ATOM      9  C   UNL     1     105.693 124.999 146.003  0.00  0.00    +0.000 A 
ATOM     10  C   UNL     1     106.871 124.850 148.213  0.00  0.00    +0.000 A 
ATOM     11  C   UNL     1     104.884 124.719 145.925  0.00  0.00    +0.000 A 
ATOM     12  C   UNL     1     107.256 125.168 147.557  0.00  0.00    +0.000 A 
ENDROOT
BRANCH   6  13
ATOM     13  C   UNL     1     103.706 124.118 146.542  0.00  0.00    +0.000 A 
ATOM     14  C   UNL     1     103.081 124.590 146.798  0.00  0.00    +0.000 A 
ATOM     15  C   UNL     1     103.556 123.373 146.220  0.00  0.00    +0.000 A 
ATOM     16  C   UNL     1     102.305 124.319 146.732  0.00  0.00    +0.000 A 
ATOM     17  C   UNL     1     102.780 123.101 146.154  0.00  0.00    +0.000 A 
ATOM     18  C   UNL     1     102.154 123.574 146.410  0.00  0.00    +0.000 A 
BRANCH  18  19
ATOM     19  O   UNL     1     101.378 123.303 146.344  0.00  0.00    +0.000 OA
ATOM     20  C   UNL     1     101.030 123.224 145.600  0.00  0.00    +0.000 C 
ENDBRANCH  18  19
ENDBRANCH   6  13
BRANCH   7  21
ATOM     21  O   UNL     1     105.709 124.262 148.802  0.00  0.00    +0.000 OA
ATOM     22  C   UNL     1     105.482 124.753 149.424  0.00  0.00    +0.000 C 
ENDBRANCH   7  21
BRANCH  10  23
ATOM     23  O   UNL     1     107.261 124.803 148.939  0.00  0.00    +0.000 OA
ATOM     24  C   UNL     1     108.065 124.619 148.963  0.00  0.00    +0.000 C 
ENDBRANCH  10  23
TORSDOF 4
ENDMDL
MODEL 2
REMARK VINA RESULT:      -7.7      7.481      8.476
REMARK  Name = 14353376
REMARK  4 active torsions:
REMARK  status: ('A' for Active; 'I' for Inactive)
REMARK    1  A    between atoms: O_2  and  C_10
REMARK    2  A    between atoms: O_3  and  C_14
REMARK    3  A    between atoms: O_6  and  C_21
REMARK    4  A    between atoms: C_9  and  C_13
REMARK                            x       y       z     vdW  Elec       q    Type
REMARK                         _______ _______ _______ _____ _____    ______ ____
ROOT
ATOM      1  O   UNL     1     103.038 130.515 142.319  0.00  0.00    +0.000 OA
ATOM      2  O   UNL     1     103.906 128.282 140.695  0.00  0.00    +0.000 OA
ATOM      3  O   UNL     1     102.957 129.220 140.144  0.00  0.00    +0.000 OA
ATOM      4  C   UNL     1     103.479 129.384 141.498  0.00  0.00    +0.000 A 
ATOM      5  C   UNL     1     103.507 129.804 142.208  0.00  0.00    +0.000 A 
ATOM      6  C   UNL     1     102.532 130.793 141.682  0.00  0.00    +0.000 A 
ATOM      7  C   UNL     1     103.991 129.542 142.824  0.00  0.00    +0.000 A 
ATOM      8  C   UNL     1     103.934 128.702 141.404  0.00  0.00    +0.000 A 
ATOM      9  C   UNL     1     102.979 129.646 140.851  0.00  0.00    +0.000 A 
ATOM     10  C   UNL     1     104.445 128.860 142.729  0.00  0.00    +0.000 A 
ATOM     11  C   UNL     1     102.503 130.355 140.943  0.00  0.00    +0.000 A 
ATOM     12  C   UNL     1     104.417 128.440 142.019  0.00  0.00    +0.000 A 
ENDROOT
BRANCH   6  13
ATOM     13  C   UNL     1     102.078 131.475 141.779  0.00  0.00    +0.000 A 
ATOM     14  C   UNL     1     101.315 131.422 142.086  0.00  0.00    +0.000 A 
ATOM     15  C   UNL     1     102.389 132.209 141.568  0.00  0.00    +0.000 A 
ATOM     16  C   UNL     1     100.862 132.104 142.183  0.00  0.00    +0.000 A 
ATOM     17  C   UNL     1     101.935 132.892 141.665  0.00  0.00    +0.000 A 
ATOM     18  C   UNL     1     101.171 132.839 141.973  0.00  0.00    +0.000 A 
BRANCH  18  19
ATOM     19  O   UNL     1     100.717 133.521 142.070  0.00  0.00    +0.000 OA
ATOM     20  C   UNL     1     100.887 134.196 141.627  0.00  0.00    +0.000 C 
ENDBRANCH  18  19
ENDBRANCH   6  13
BRANCH   7  21
ATOM     21  O   UNL     1     104.019 129.962 143.533  0.00  0.00    +0.000 OA
ATOM     22  C   UNL     1     104.700 130.378 143.739  0.00  0.00    +0.000 C 
ENDBRANCH   7  21
BRANCH  10  23
ATOM     23  O   UNL     1     104.929 128.598 143.344  0.00  0.00    +0.000 OA
ATOM     24  C   UNL     1     105.227 127.829 143.335  0.00  0.00    +0.000 C 
ENDBRANCH  10  23
TORSDOF 4
ENDMDL
MODEL 3
REMARK VINA RESULT:      -7.7      1.018      2.145
REMARK  Name = 14353376
REMARK  4 active torsions:
REMARK  status: ('A' for Active; 'I' for Inactive)
REMARK    1  A    between atoms: O_2  and  C_10
REMARK    2  A    between atoms: O_3  and  C_14
REMARK    3  A    between atoms: O_6  and  C_21
REMARK    4  A    between atoms: C_9  and  C_13
REMARK                            x       y       z     vdW  Elec       q    Type
REMARK                         _______ _______ _______ _____ _____    ______ ____
ROOT
ATOM      1  O   UNL     1     104.038 124.234 147.006  0.00  0.00    +0.000 OA
ATOM      2  O   UNL     1     105.163 125.258 149.467  0.00  0.00    +0.000 OA
ATOM      3  O   UNL     1     103.772 124.874 149.442  0.00  0.00    +0.000 OA
ATOM      4  C   UNL     1     104.609 124.753 148.251  0.00  0.00    +0.000 A 
ATOM      5  C   UNL     1     104.699 124.546 147.458  0.00  0.00    +0.000 A 
ATOM      6  C   UNL     1     103.273 124.138 147.386  0.00  0.00    +0.000 A 
ATOM      7  C   UNL     1     105.431 124.636 147.087  0.00  0.00    +0.000 A 
ATOM      8  C   UNL     1     105.252 125.051 148.674  0.00  0.00    +0.000 A 
ATOM      9  C   UNL     1     103.853 124.664 148.648  0.00  0.00    +0.000 A 
ATOM     10  C   UNL     1     106.073 124.934 147.511  0.00  0.00    +0.000 A 
ATOM     11  C   UNL     1     103.180 124.354 148.213  0.00  0.00    +0.000 A 
ATOM     12  C   UNL     1     105.984 125.142 148.304  0.00  0.00    +0.000 A 
ENDROOT
BRANCH   6  13
ATOM     13  C   UNL     1     102.632 123.839 146.961  0.00  0.00    +0.000 A 
ATOM     14  C   UNL     1     102.019 124.341 146.732  0.00  0.00    +0.000 A 
ATOM     15  C   UNL     1     102.605 123.039 146.765  0.00  0.00    +0.000 A 
ATOM     16  C   UNL     1     101.379 124.043 146.307  0.00  0.00    +0.000 A 
ATOM     17  C   UNL     1     101.964 122.739 146.339  0.00  0.00    +0.000 A 
ATOM     18  C   UNL     1     101.351 123.242 146.110  0.00  0.00    +0.000 A 
BRANCH  18  19
ATOM     19  O   UNL     1     100.710 122.944 145.684  0.00  0.00    +0.000 OA
ATOM     20  C   UNL     1     100.789 122.782 144.879  0.00  0.00    +0.000 C 
ENDBRANCH  18  19
ENDBRANCH   6  13
BRANCH   7  21
ATOM     21  O   UNL     1     105.520 124.429 146.294  0.00  0.00    +0.000 OA
ATOM     22  C   UNL     1     105.614 125.015 145.722  0.00  0.00    +0.000 C 
ENDBRANCH   7  21
BRANCH  10  23
ATOM     23  O   UNL     1     106.805 125.025 147.140  0.00  0.00    +0.000 OA
ATOM     24  C   UNL     1     107.475 125.201 147.588  0.00  0.00    +0.000 C 
ENDBRANCH  10  23
TORSDOF 4
ENDMDL
MODEL 4
REMARK VINA RESULT:      -7.6     11.978     13.089
REMARK  Name = 14353376
REMARK  4 active torsions:
REMARK  status: ('A' for Active; 'I' for Inactive)
REMARK    1  A    between atoms: O_2  and  C_10
REMARK    2  A    between atoms: O_3  and  C_14
REMARK    3  A    between atoms: O_6  and  C_21
REMARK    4  A    between atoms: C_9  and  C_13
REMARK                            x       y       z     vdW  Elec       q    Type
REMARK                         _______ _______ _______ _____ _____    ______ ____
ROOT
ATOM      1  O   UNL     1     110.546 127.412 136.039  0.00  0.00    +0.000 OA
ATOM      2  O   UNL     1     107.996 128.751 135.764  0.00  0.00    +0.000 OA
ATOM      3  O   UNL     1     108.016 127.324 135.979  0.00  0.00    +0.000 OA
ATOM      4  C   UNL     1     109.256 128.092 135.900  0.00  0.00    +0.000 A 
ATOM      5  C   UNL     1     110.080 128.123 135.919  0.00  0.00    +0.000 A 
ATOM      6  C   UNL     1     110.148 126.657 136.141  0.00  0.00    +0.000 A 
ATOM      7  C   UNL     1     110.468 128.846 135.821  0.00  0.00    +0.000 A 
ATOM      8  C   UNL     1     108.820 128.782 135.783  0.00  0.00    +0.000 A 
ATOM      9  C   UNL     1     108.841 127.347 136.000  0.00  0.00    +0.000 A 
ATOM     10  C   UNL     1     110.031 129.535 135.705  0.00  0.00    +0.000 A 
ATOM     11  C   UNL     1     109.290 126.624 136.122  0.00  0.00    +0.000 A 
ATOM     12  C   UNL     1     109.207 129.504 135.686  0.00  0.00    +0.000 A 
ENDROOT
BRANCH   6  13
ATOM     13  C   UNL     1     110.587 125.968 136.258  0.00  0.00    +0.000 A 
ATOM     14  C   UNL     1     110.815 125.747 137.019  0.00  0.00    +0.000 A 
ATOM     15  C   UNL     1     110.799 125.501 135.611  0.00  0.00    +0.000 A 
ATOM     16  C   UNL     1     111.253 125.059 137.134  0.00  0.00    +0.000 A 
ATOM     17  C   UNL     1     111.239 124.812 135.727  0.00  0.00    +0.000 A 
ATOM     18  C   UNL     1     111.466 124.591 136.489  0.00  0.00    +0.000 A 
BRANCH  18  19
ATOM     19  O   UNL     1     111.905 123.902 136.605  0.00  0.00    +0.000 OA
ATOM     20  C   UNL     1     112.724 123.945 136.692  0.00  0.00    +0.000 C 
ENDBRANCH  18  19
ENDBRANCH   6  13
BRANCH   7  21
ATOM     21  O   UNL     1     111.292 128.877 135.840  0.00  0.00    +0.000 OA
ATOM     22  C   UNL     1     111.715 129.015 135.146  0.00  0.00    +0.000 C 
ENDBRANCH   7  21
BRANCH  10  23
ATOM     23  O   UNL     1     110.419 130.258 135.607  0.00  0.00    +0.000 OA
ATOM     24  C   UNL     1     110.020 130.963 135.761  0.00  0.00    +0.000 C 
ENDBRANCH  10  23
TORSDOF 4
ENDMDL
MODEL 5
REMARK VINA RESULT:      -7.6      1.087      4.660
REMARK  Name = 14353376
REMARK  4 active torsions:
REMARK  status: ('A' for Active; 'I' for Inactive)
REMARK    1  A    between atoms: O_2  and  C_10
REMARK    2  A    between atoms: O_3  and  C_14
REMARK    3  A    between atoms: O_6  and  C_21
REMARK    4  A    between atoms: C_9  and  C_13
REMARK                            x       y       z     vdW  Elec       q    Type
REMARK                         _______ _______ _______ _____ _____    ______ ____
ROOT
ATOM      1  O   UNL     1     104.374 124.119 146.964  0.00  0.00    +0.000 OA
ATOM      2  O   UNL     1     101.641 124.973 147.378  0.00  0.00    +0.000 OA
ATOM      3  O   UNL     1     102.702 125.663 148.072  0.00  0.00    +0.000 OA
ATOM      4  C   UNL     1     102.990 124.550 147.172  0.00  0.00    +0.000 A 
ATOM      5  C   UNL     1     103.532 124.045 146.809  0.00  0.00    +0.000 A 
ATOM      6  C   UNL     1     104.655 124.726 147.503  0.00  0.00    +0.000 A 
ATOM      7  C   UNL     1     103.269 123.460 146.290  0.00  0.00    +0.000 A 
ATOM      8  C   UNL     1     102.183 124.469 147.015  0.00  0.00    +0.000 A 
ATOM      9  C   UNL     1     103.251 125.163 147.714  0.00  0.00    +0.000 A 
ATOM     10  C   UNL     1     102.463 123.380 146.134  0.00  0.00    +0.000 A 
ATOM     11  C   UNL     1     104.090 125.251 147.881  0.00  0.00    +0.000 A 
ATOM     12  C   UNL     1     101.920 123.884 146.497  0.00  0.00    +0.000 A 
ENDROOT
BRANCH   6  13
ATOM     13  C   UNL     1     105.462 124.804 147.658  0.00  0.00    +0.000 A 
ATOM     14  C   UNL     1     105.942 125.231 147.141  0.00  0.00    +0.000 A 
ATOM     15  C   UNL     1     105.788 124.454 148.330  0.00  0.00    +0.000 A 
ATOM     16  C   UNL     1     106.747 125.309 147.296  0.00  0.00    +0.000 A 
ATOM     17  C   UNL     1     106.595 124.532 148.485  0.00  0.00    +0.000 A 
ATOM     18  C   UNL     1     107.074 124.960 147.968  0.00  0.00    +0.000 A 
BRANCH  18  19
ATOM     19  O   UNL     1     107.881 125.038 148.122  0.00  0.00    +0.000 OA
ATOM     20  C   UNL     1     108.232 124.590 148.719  0.00  0.00    +0.000 C 
ENDBRANCH  18  19
ENDBRANCH   6  13
BRANCH   7  21
ATOM     21  O   UNL     1     103.812 122.955 145.927  0.00  0.00    +0.000 OA
ATOM     22  C   UNL     1     103.969 123.030 145.122  0.00  0.00    +0.000 C 
ENDBRANCH   7  21
BRANCH  10  23
ATOM     23  O   UNL     1     102.199 122.794 145.615  0.00  0.00    +0.000 OA
ATOM     24  C   UNL     1     101.398 122.739 145.429  0.00  0.00    +0.000 C 
ENDBRANCH  10  23
TORSDOF 4
ENDMDL
MODEL 6
REMARK VINA RESULT:      -7.5     12.614     13.950
REMARK  Name = 14353376
REMARK  4 active torsions:
REMARK  status: ('A' for Active; 'I' for Inactive)
REMARK    1  A    between atoms: O_2  and  C_10
REMARK    2  A    between atoms: O_3  and  C_14
REMARK    3  A    between atoms: O_6  and  C_21
REMARK    4  A    between atoms: C_9  and  C_13
REMARK                            x       y       z     vdW  Elec       q    Type
REMARK                         _______ _______ _______ _____ _____    ______ ____
ROOT
ATOM      1  O   UNL     1     112.875 126.672 136.515  0.00  0.00    +0.000 OA
ATOM      2  O   UNL     1     110.514 125.300 135.559  0.00  0.00    +0.000 OA
ATOM      3  O   UNL     1     110.630 126.723 135.346  0.00  0.00    +0.000 OA
ATOM      4  C   UNL     1     111.681 125.976 136.032  0.00  0.00    +0.000 A 
ATOM      5  C   UNL     1     112.412 125.956 136.413  0.00  0.00    +0.000 A 
ATOM      6  C   UNL     1     112.573 127.420 136.216  0.00  0.00    +0.000 A 
ATOM      7  C   UNL     1     112.708 125.242 136.702  0.00  0.00    +0.000 A 
ATOM      8  C   UNL     1     111.246 125.281 135.940  0.00  0.00    +0.000 A 
ATOM      9  C   UNL     1     111.362 126.713 135.726  0.00  0.00    +0.000 A 
ATOM     10  C   UNL     1     112.272 124.548 136.610  0.00  0.00    +0.000 A 
ATOM     11  C   UNL     1     111.811 127.440 135.819  0.00  0.00    +0.000 A 
ATOM     12  C   UNL     1     111.541 124.567 136.229  0.00  0.00    +0.000 A 
ENDROOT
BRANCH   6  13
ATOM     13  C   UNL     1     113.011 128.113 136.310  0.00  0.00    +0.000 A 
ATOM     14  C   UNL     1     113.524 128.361 135.713  0.00  0.00    +0.000 A 
ATOM     15  C   UNL     1     112.935 128.557 137.000  0.00  0.00    +0.000 A 
ATOM     16  C   UNL     1     113.961 129.053 135.807  0.00  0.00    +0.000 A 
ATOM     17  C   UNL     1     113.373 129.251 137.095  0.00  0.00    +0.000 A 
ATOM     18  C   UNL     1     113.886 129.498 136.498  0.00  0.00    +0.000 A 
BRANCH  18  19
ATOM     19  O   UNL     1     114.323 130.191 136.591  0.00  0.00    +0.000 OA
ATOM     20  C   UNL     1     113.939 130.920 136.635  0.00  0.00    +0.000 C 
ENDBRANCH  18  19
ENDBRANCH   6  13
BRANCH   7  21
ATOM     21  O   UNL     1     113.440 125.223 137.084  0.00  0.00    +0.000 OA
ATOM     22  C   UNL     1     114.090 124.879 136.711  0.00  0.00    +0.000 C 
ENDBRANCH   7  21
BRANCH  10  23
ATOM     23  O   UNL     1     112.568 123.834 136.899  0.00  0.00    +0.000 OA
ATOM     24  C   UNL     1     112.052 123.214 137.073  0.00  0.00    +0.000 C 
ENDBRANCH  10  23
TORSDOF 4
ENDMDL
MODEL 7
REMARK VINA RESULT:      -7.5      8.806     10.097
REMARK  Name = 14353376
REMARK  4 active torsions:
REMARK  status: ('A' for Active; 'I' for Inactive)
REMARK    1  A    between atoms: O_2  and  C_10
REMARK    2  A    between atoms: O_3  and  C_14
REMARK    3  A    between atoms: O_6  and  C_21
REMARK    4  A    between atoms: C_9  and  C_13
REMARK                            x       y       z     vdW  Elec       q    Type
REMARK                         _______ _______ _______ _____ _____    ______ ____
ROOT
ATOM      1  O   UNL     1     103.045 131.786 141.291  0.00  0.00    +0.000 OA
ATOM      2  O   UNL     1     100.772 133.412 142.040  0.00  0.00    +0.000 OA
ATOM      3  O   UNL     1     100.710 131.985 142.250  0.00  0.00    +0.000 OA
ATOM      4  C   UNL     1     101.895 132.611 141.670  0.00  0.00    +0.000 A 
ATOM      5  C   UNL     1     102.656 132.549 141.357  0.00  0.00    +0.000 A 
ATOM      6  C   UNL     1     102.636 131.077 141.555  0.00  0.00    +0.000 A 
ATOM      7  C   UNL     1     103.054 133.226 141.102  0.00  0.00    +0.000 A 
ATOM      8  C   UNL     1     101.533 133.350 141.727  0.00  0.00    +0.000 A 
ATOM      9  C   UNL     1     101.471 131.914 141.938  0.00  0.00    +0.000 A 
ATOM     10  C   UNL     1     102.691 133.964 141.160  0.00  0.00    +0.000 A 
ATOM     11  C   UNL     1     101.844 131.142 141.881  0.00  0.00    +0.000 A 
ATOM     12  C   UNL     1     101.930 134.026 141.473  0.00  0.00    +0.000 A 
ENDROOT
BRANCH   6  13
ATOM     13  C   UNL     1     103.002 130.340 141.496  0.00  0.00    +0.000 A 
ATOM     14  C   UNL     1     102.840 129.849 140.853  0.00  0.00    +0.000 A 
ATOM     15  C   UNL     1     103.529 130.094 142.081  0.00  0.00    +0.000 A 
ATOM     16  C   UNL     1     103.206 129.113 140.795  0.00  0.00    +0.000 A 
ATOM     17  C   UNL     1     103.896 129.357 142.022  0.00  0.00    +0.000 A 
ATOM     18  C   UNL     1     103.734 128.866 141.379  0.00  0.00    +0.000 A 
BRANCH  18  19
ATOM     19  O   UNL     1     104.099 128.129 141.320  0.00  0.00    +0.000 OA
ATOM     20  C   UNL     1     104.776 127.967 141.763  0.00  0.00    +0.000 C 
ENDBRANCH  18  19
ENDBRANCH   6  13
BRANCH   7  21
ATOM     21  O   UNL     1     103.815 133.164 140.789  0.00  0.00    +0.000 OA
ATOM     22  C   UNL     1     103.947 133.321 139.991  0.00  0.00    +0.000 C 
ENDBRANCH   7  21
BRANCH  10  23
ATOM     23  O   UNL     1     103.089 134.641 140.905  0.00  0.00    +0.000 OA
ATOM     24  C   UNL     1     102.825 135.386 141.139  0.00  0.00    +0.000 C 
ENDBRANCH  10  23
TORSDOF 4
ENDMDL
MODEL 8
REMARK VINA RESULT:      -7.3     12.496     13.675
REMARK  Name = 14353376
REMARK  4 active torsions:
REMARK  status: ('A' for Active; 'I' for Inactive)
REMARK    1  A    between atoms: O_2  and  C_10
REMARK    2  A    between atoms: O_3  and  C_14
REMARK    3  A    between atoms: O_6  and  C_21
REMARK    4  A    between atoms: C_9  and  C_13
REMARK                            x       y       z     vdW  Elec       q    Type
REMARK                         _______ _______ _______ _____ _____    ______ ____
ROOT
ATOM      1  O   UNL     1     112.351 126.529 136.495  0.00  0.00    +0.000 OA
ATOM      2  O   UNL     1     114.471 124.569 136.691  0.00  0.00    +0.000 OA
ATOM      3  O   UNL     1     114.818 125.967 136.595  0.00  0.00    +0.000 OA
ATOM      4  C   UNL     1     113.423 125.535 136.594  0.00  0.00    +0.000 A 
ATOM      5  C   UNL     1     112.618 125.715 136.562  0.00  0.00    +0.000 A 
ATOM      6  C   UNL     1     112.930 127.164 136.462  0.00  0.00    +0.000 A 
ATOM      7  C   UNL     1     112.058 125.110 136.594  0.00  0.00    +0.000 A 
ATOM      8  C   UNL     1     113.667 124.749 136.659  0.00  0.00    +0.000 A 
ATOM      9  C   UNL     1     114.016 126.156 136.562  0.00  0.00    +0.000 A 
ATOM     10  C   UNL     1     112.303 124.325 136.658  0.00  0.00    +0.000 A 
ATOM     11  C   UNL     1     113.767 126.976 136.495  0.00  0.00    +0.000 A 
ATOM     12  C   UNL     1     113.107 124.145 136.690  0.00  0.00    +0.000 A 
ENDROOT
BRANCH   6  13
ATOM     13  C   UNL     1     112.683 127.948 136.398  0.00  0.00    +0.000 A 
ATOM     14  C   UNL     1     112.524 128.389 137.077  0.00  0.00    +0.000 A 
ATOM     15  C   UNL     1     112.594 128.292 135.653  0.00  0.00    +0.000 A 
ATOM     16  C   UNL     1     112.277 129.172 137.012  0.00  0.00    +0.000 A 
ATOM     17  C   UNL     1     112.346 129.077 135.588  0.00  0.00    +0.000 A 
ATOM     18  C   UNL     1     112.188 129.517 136.268  0.00  0.00    +0.000 A 
BRANCH  18  19
ATOM     19  O   UNL     1     111.941 130.301 136.204  0.00  0.00    +0.000 OA
ATOM     20  C   UNL     1     111.148 130.495 136.321  0.00  0.00    +0.000 C 
ENDBRANCH  18  19
ENDBRANCH   6  13
BRANCH   7  21
ATOM     21  O   UNL     1     111.253 125.290 136.562  0.00  0.00    +0.000 OA
ATOM     22  C   UNL     1     110.827 125.148 135.871  0.00  0.00    +0.000 C 
ENDBRANCH   7  21
BRANCH  10  23
ATOM     23  O   UNL     1     111.742 123.720 136.690  0.00  0.00    +0.000 OA
ATOM     24  C   UNL     1     111.924 123.010 137.069  0.00  0.00    +0.000 C 
ENDBRANCH  10  23
TORSDOF 4
ENDMDL
MODEL 9
REMARK VINA RESULT:      -7.2     12.694     13.209
REMARK  Name = 14353376
REMARK  4 active torsions:
REMARK  status: ('A' for Active; 'I' for Inactive)
REMARK    1  A    between atoms: O_2  and  C_10
REMARK    2  A    between atoms: O_3  and  C_14
REMARK    3  A    between atoms: O_6  and  C_21
REMARK    4  A    between atoms: C_9  and  C_13
REMARK                            x       y       z     vdW  Elec       q    Type
REMARK                         _______ _______ _______ _____ _____    ______ ____
ROOT
ATOM      1  O   UNL     1     111.755 126.810 136.206  0.00  0.00    +0.000 OA
ATOM      2  O   UNL     1     112.017 123.933 136.373  0.00  0.00    +0.000 OA
ATOM      3  O   UNL     1     110.850 124.492 135.735  0.00  0.00    +0.000 OA
ATOM      4  C   UNL     1     111.890 125.354 136.292  0.00  0.00    +0.000 A 
ATOM      5  C   UNL     1     112.187 126.108 136.446  0.00  0.00    +0.000 A 
ATOM      6  C   UNL     1     111.002 126.726 135.798  0.00  0.00    +0.000 A 
ATOM      7  C   UNL     1     112.909 126.195 136.837  0.00  0.00    +0.000 A 
ATOM      8  C   UNL     1     112.315 124.687 136.528  0.00  0.00    +0.000 A 
ATOM      9  C   UNL     1     111.140 125.250 135.886  0.00  0.00    +0.000 A 
ATOM     10  C   UNL     1     113.333 125.527 137.073  0.00  0.00    +0.000 A 
ATOM     11  C   UNL     1     110.693 125.941 135.637  0.00  0.00    +0.000 A 
ATOM     12  C   UNL     1     113.035 124.773 136.918  0.00  0.00    +0.000 A 
ENDROOT
BRANCH   6  13
ATOM     13  C   UNL     1     110.580 127.395 135.564  0.00  0.00    +0.000 A 
ATOM     14  C   UNL     1     109.980 127.694 136.044  0.00  0.00    +0.000 A 
ATOM     15  C   UNL     1     110.759 127.764 134.848  0.00  0.00    +0.000 A 
ATOM     16  C   UNL     1     109.559 128.362 135.809  0.00  0.00    +0.000 A 
ATOM     17  C   UNL     1     110.337 128.433 134.612  0.00  0.00    +0.000 A 
ATOM     18  C   UNL     1     109.737 128.732 135.093  0.00  0.00    +0.000 A 
BRANCH  18  19
ATOM     19  O   UNL     1     109.314 129.401 134.859  0.00  0.00    +0.000 OA
ATOM     20  C   UNL     1     109.704 130.122 134.762  0.00  0.00    +0.000 C 
ENDBRANCH  18  19
ENDBRANCH   6  13
BRANCH   7  21
ATOM     21  O   UNL     1     113.206 126.948 136.992  0.00  0.00    +0.000 OA
ATOM     22  C   UNL     1     113.217 127.236 137.765  0.00  0.00    +0.000 C 
ENDBRANCH   7  21
BRANCH  10  23
ATOM     23  O   UNL     1     114.055 125.614 137.464  0.00  0.00    +0.000 OA
ATOM     24  C   UNL     1     114.580 124.980 137.504  0.00  0.00    +0.000 C 
ENDBRANCH  10  23
TORSDOF 4
ENDMDL
MODEL 10
REMARK VINA RESULT:      -7.2     10.742     12.502
REMARK  Name = 14353376
REMARK  4 active torsions:
REMARK  status: ('A' for Active; 'I' for Inactive)
REMARK    1  A    between atoms: O_2  and  C_10
REMARK    2  A    between atoms: O_3  and  C_14
REMARK    3  A    between atoms: O_6  and  C_21
REMARK    4  A    between atoms: C_9  and  C_13
REMARK                            x       y       z     vdW  Elec       q    Type
REMARK                         _______ _______ _______ _____ _____    ______ ____
ROOT
ATOM      1  O   UNL     1     112.671 126.353 138.541  0.00  0.00    +0.000 OA
ATOM      2  O   UNL     1     113.957 124.419 136.814  0.00  0.00    +0.000 OA
ATOM      3  O   UNL     1     114.758 125.140 137.774  0.00  0.00    +0.000 OA
ATOM      4  C   UNL     1     113.320 125.373 137.666  0.00  0.00    +0.000 A 
ATOM      5  C   UNL     1     112.639 125.767 137.913  0.00  0.00    +0.000 A 
ATOM      6  C   UNL     1     113.424 126.531 138.916  0.00  0.00    +0.000 A 
ATOM      7  C   UNL     1     111.913 125.600 137.557  0.00  0.00    +0.000 A 
ATOM      8  C   UNL     1     113.276 124.813 137.062  0.00  0.00    +0.000 A 
ATOM      9  C   UNL     1     114.081 125.538 138.028  0.00  0.00    +0.000 A 
ATOM     10  C   UNL     1     111.870 125.039 136.954  0.00  0.00    +0.000 A 
ATOM     11  C   UNL     1     114.134 126.121 138.658  0.00  0.00    +0.000 A 
ATOM     12  C   UNL     1     112.551 124.646 136.706  0.00  0.00    +0.000 A 
ENDROOT
BRANCH   6  13
ATOM     13  C   UNL     1     113.465 127.092 139.519  0.00  0.00    +0.000 A 
ATOM     14  C   UNL     1     113.496 126.850 140.307  0.00  0.00    +0.000 A 
ATOM     15  C   UNL     1     113.475 127.896 139.334  0.00  0.00    +0.000 A 
ATOM     16  C   UNL     1     113.537 127.411 140.909  0.00  0.00    +0.000 A 
ATOM     17  C   UNL     1     113.516 128.458 139.937  0.00  0.00    +0.000 A 
ATOM     18  C   UNL     1     113.547 128.215 140.725  0.00  0.00    +0.000 A 
BRANCH  18  19
ATOM     19  O   UNL     1     113.588 128.776 141.328  0.00  0.00    +0.000 OA
ATOM     20  C   UNL     1     112.936 129.255 141.492  0.00  0.00    +0.000 C 
ENDBRANCH  18  19
ENDBRANCH   6  13
BRANCH   7  21
ATOM     21  O   UNL     1     111.232 125.994 137.805  0.00  0.00    +0.000 OA
ATOM     22  C   UNL     1     110.673 125.600 138.266  0.00  0.00    +0.000 C 
ENDBRANCH   7  21
BRANCH  10  23
ATOM     23  O   UNL     1     111.144 124.872 136.597  0.00  0.00    +0.000 OA
ATOM     24  C   UNL     1     111.112 124.687 135.794  0.00  0.00    +0.000 C 
ENDBRANCH  10  23
TORSDOF 4
ENDMDL
