MODEL 1
REMARK VINA RESULT:     -10.4      0.000      0.000
REMARK  Name = 74978169
REMARK  10 active torsions:
REMARK  status: ('A' for Active; 'I' for Inactive)
REMARK    1  A    between atoms: O_1  and  C_24
REMARK    2  A    between atoms: O_1  and  C_27
REMARK    3  A    between atoms: O_4  and  C_29
REMARK    4  A    between atoms: O_4  and  C_39
REMARK    5  A    between atoms: O_13  and  C_40
REMARK    6  A    between atoms: O_13  and  C_47
REMARK    7  A    between atoms: C_30  and  C_34
REMARK    8  A    between atoms: C_33  and  C_35
REMARK    9  A    between atoms: C_41  and  C_46
REMARK   10  A    between atoms: C_42  and  C_48
REMARK                            x       y       z     vdW  Elec       q    Type
REMARK                         _______ _______ _______ _____ _____    ______ ____
ROOT
ATOM      1  O   UNL     1     112.541 127.963 139.410  0.00  0.00    +0.000 OA
ATOM      2  O   UNL     1     111.655 129.661 137.840  0.00  0.00    +0.000 OA
ATOM      3  O   UNL     1     112.032 130.727 138.736  0.00  0.00    +0.000 OA
ATOM      4  C   UNL     1     111.906 128.294 138.172  0.00  0.00    +0.000 A 
ATOM      5  C   UNL     1     112.201 127.728 138.696  0.00  0.00    +0.000 A 
ATOM      6  C   UNL     1     111.950 129.095 138.364  0.00  0.00    +0.000 A 
ATOM      7  C   UNL     1     112.290 129.331 139.078  0.00  0.00    +0.000 A 
ATOM      8  C   UNL     1     112.585 128.765 139.601  0.00  0.00    +0.000 A 
ATOM      9  C   UNL     1     112.990 129.831 140.553  0.00  0.00    +0.000 A 
ATOM     10  C   UNL     1     112.940 128.998 140.347  0.00  0.00    +0.000 A 
ATOM     11  C   UNL     1     112.330 130.168 139.265  0.00  0.00    +0.000 A 
ATOM     12  C   UNL     1     112.682 130.420 140.007  0.00  0.00    +0.000 A 
ENDROOT
BRANCH   5  15
ATOM     13  O   UNL     1     110.729 125.280 138.625  0.00  0.00    +0.000 OA
ATOM     14  O   UNL     1     112.021 124.524 137.930  0.00  0.00    +0.000 OA
ATOM     15  C   UNL     1     112.157 126.927 138.504  0.00  0.00    +0.000 A 
ATOM     16  C   UNL     1     111.465 126.504 138.660  0.00  0.00    +0.000 A 
ATOM     17  C   UNL     1     112.803 126.548 138.157  0.00  0.00    +0.000 A 
ATOM     18  C   UNL     1     111.420 125.702 138.469  0.00  0.00    +0.000 A 
ATOM     19  C   UNL     1     112.757 125.747 137.966  0.00  0.00    +0.000 A 
ATOM     20  C   UNL     1     112.066 125.324 138.122  0.00  0.00    +0.000 A 
ENDBRANCH   5  15
BRANCH   4  21
ATOM     21  O   UNL     1     111.567 128.058 137.458  0.00  0.00    +0.000 OA
BRANCH  21  28
ATOM     22  O   UNL     1     112.655 128.457 136.623  0.00  0.00    +0.000 OA
ATOM     23  O   UNL     1     111.055 129.134 134.860  0.00  0.00    +0.000 OA
ATOM     24  O   UNL     1     112.677 129.307 134.612  0.00  0.00    +0.000 OA
ATOM     25  C   UNL     1     111.311 128.596 136.160  0.00  0.00    +0.000 C 
ATOM     26  C   UNL     1     111.589 128.908 135.448  0.00  0.00    +0.000 C 
ATOM     27  C   UNL     1     112.400 128.994 135.325  0.00  0.00    +0.000 C 
ATOM     28  C   UNL     1     111.844 128.370 136.747  0.00  0.00    +0.000 C 
ATOM     29  C   UNL     1     112.933 128.768 135.912  0.00  0.00    +0.000 C 
BRANCH  29  31
ATOM     30  O   UNL     1     114.231 128.190 135.761  0.00  0.00    +0.000 OA
ATOM     31  C   UNL     1     113.744 128.855 135.788  0.00  0.00    +0.000 C 
ENDBRANCH  29  31
BRANCH  25  32
ATOM     32  O   UNL     1     110.500 128.510 136.283  0.00  0.00    +0.000 OA
BRANCH  32  37
ATOM     33  O   UNL     1     110.503 127.322 135.489  0.00  0.00    +0.000 OA
ATOM     34  O   UNL     1     108.894 128.296 136.596  0.00  0.00    +0.000 OA
ATOM     35  O   UNL     1     108.094 127.002 135.958  0.00  0.00    +0.000 OA
ATOM     36  O   UNL     1     108.900 125.921 135.007  0.00  0.00    +0.000 OA
ATOM     37  C   UNL     1     110.100 127.862 135.964  0.00  0.00    +0.000 C 
ATOM     38  C   UNL     1     109.297 127.756 136.121  0.00  0.00    +0.000 C 
ATOM     39  C   UNL     1     108.897 127.109 135.802  0.00  0.00    +0.000 C 
ATOM     40  C   UNL     1     109.300 126.568 135.326  0.00  0.00    +0.000 C 
ATOM     41  C   UNL     1     110.103 126.675 135.170  0.00  0.00    +0.000 C 
BRANCH  41  43
ATOM     42  O   UNL     1     111.014 125.582 135.038  0.00  0.00    +0.000 OA
ATOM     43  C   UNL     1     110.506 126.134 134.695  0.00  0.00    +0.000 C 
ENDBRANCH  41  43
ENDBRANCH  32  37
ENDBRANCH  25  32
ENDBRANCH  21  28
ENDBRANCH   4  21
BRANCH   9  44
ATOM     44  O   UNL     1     113.329 130.063 141.267  0.00  0.00    +0.000 OA
BRANCH  44  52
ATOM     45  O   UNL     1     112.329 129.634 142.193  0.00  0.00    +0.000 OA
ATOM     46  O   UNL     1     112.457 131.820 143.347  0.00  0.00    +0.000 OA
ATOM     47  O   UNL     1     113.415 131.521 142.037  0.00  0.00    +0.000 OA
ATOM     48  O   UNL     1     111.414 130.662 143.888  0.00  0.00    +0.000 OA
ATOM     49  C   UNL     1     112.415 131.091 142.962  0.00  0.00    +0.000 C 
ATOM     50  C   UNL     1     112.893 130.941 142.307  0.00  0.00    +0.000 C 
ATOM     51  C   UNL     1     111.893 130.513 143.233  0.00  0.00    +0.000 C 
ATOM     52  C   UNL     1     112.850 130.213 141.922  0.00  0.00    +0.000 C 
ATOM     53  C   UNL     1     111.850 129.784 142.848  0.00  0.00    +0.000 C 
BRANCH  53  56
ATOM     54  O   UNL     1     110.545 129.203 142.860  0.00  0.00    +0.000 OA
ATOM     55  O   UNL     1     111.590 128.628 143.647  0.00  0.00    +0.000 OA
ATOM     56  C   UNL     1     111.328 129.205 143.119  0.00  0.00    +0.000 C 
ENDBRANCH  53  56
ENDBRANCH  44  52
ENDBRANCH   9  44
TORSDOF 10
ENDMDL
MODEL 2
REMARK VINA RESULT:     -10.3      1.722      2.856
REMARK  Name = 74978169
REMARK  10 active torsions:
REMARK  status: ('A' for Active; 'I' for Inactive)
REMARK    1  A    between atoms: O_1  and  C_24
REMARK    2  A    between atoms: O_1  and  C_27
REMARK    3  A    between atoms: O_4  and  C_29
REMARK    4  A    between atoms: O_4  and  C_39
REMARK    5  A    between atoms: O_13  and  C_40
REMARK    6  A    between atoms: O_13  and  C_47
REMARK    7  A    between atoms: C_30  and  C_34
REMARK    8  A    between atoms: C_33  and  C_35
REMARK    9  A    between atoms: C_41  and  C_46
REMARK   10  A    between atoms: C_42  and  C_48
REMARK                            x       y       z     vdW  Elec       q    Type
REMARK                         _______ _______ _______ _____ _____    ______ ____
ROOT
ATOM      1  O   UNL     1     111.347 130.179 139.284  0.00  0.00    +0.000 OA
ATOM      2  O   UNL     1     109.088 129.349 138.702  0.00  0.00    +0.000 OA
ATOM      3  O   UNL     1     108.533 129.938 139.896  0.00  0.00    +0.000 OA
ATOM      4  C   UNL     1     110.479 129.467 138.398  0.00  0.00    +0.000 A 
ATOM      5  C   UNL     1     111.233 129.744 138.592  0.00  0.00    +0.000 A 
ATOM      6  C   UNL     1     109.841 129.625 138.896  0.00  0.00    +0.000 A 
ATOM      7  C   UNL     1     109.955 130.060 139.588  0.00  0.00    +0.000 A 
ATOM      8  C   UNL     1     110.708 130.337 139.781  0.00  0.00    +0.000 A 
ATOM      9  C   UNL     1     110.179 130.959 141.022  0.00  0.00    +0.000 A 
ATOM     10  C   UNL     1     110.839 130.791 140.499  0.00  0.00    +0.000 A 
ATOM     11  C   UNL     1     109.282 130.219 140.098  0.00  0.00    +0.000 A 
ATOM     12  C   UNL     1     109.394 130.671 140.820  0.00  0.00    +0.000 A 
ENDROOT
BRANCH   5  15
ATOM     13  O   UNL     1     113.020 130.571 136.523  0.00  0.00    +0.000 OA
ATOM     14  O   UNL     1     113.785 129.111 136.599  0.00  0.00    +0.000 OA
ATOM     15  C   UNL     1     111.871 129.585 138.094  0.00  0.00    +0.000 A 
ATOM     16  C   UNL     1     112.127 130.158 137.557  0.00  0.00    +0.000 A 
ATOM     17  C   UNL     1     112.253 128.855 138.133  0.00  0.00    +0.000 A 
ATOM     18  C   UNL     1     112.765 129.999 137.059  0.00  0.00    +0.000 A 
ATOM     19  C   UNL     1     112.891 128.698 137.634  0.00  0.00    +0.000 A 
ATOM     20  C   UNL     1     113.147 129.269 137.097  0.00  0.00    +0.000 A 
ENDBRANCH   5  15
BRANCH   4  21
ATOM     21  O   UNL     1     110.365 129.032 137.706  0.00  0.00    +0.000 OA
BRANCH  21  28
ATOM     22  O   UNL     1     109.745 130.075 136.953  0.00  0.00    +0.000 OA
ATOM     23  O   UNL     1     108.245 128.417 135.891  0.00  0.00    +0.000 OA
ATOM     24  O   UNL     1     108.124 130.013 135.491  0.00  0.00    +0.000 OA
ATOM     25  C   UNL     1     109.306 128.724 136.799  0.00  0.00    +0.000 C 
ATOM     26  C   UNL     1     108.745 128.970 136.245  0.00  0.00    +0.000 C 
ATOM     27  C   UNL     1     108.685 129.768 136.045  0.00  0.00    +0.000 C 
ATOM     28  C   UNL     1     109.806 129.277 137.153  0.00  0.00    +0.000 C 
ATOM     29  C   UNL     1     109.185 130.321 136.399  0.00  0.00    +0.000 C 
BRANCH  29  31
ATOM     30  O   UNL     1     109.772 131.515 135.879  0.00  0.00    +0.000 OA
ATOM     31  C   UNL     1     109.124 131.119 136.199  0.00  0.00    +0.000 C 
ENDBRANCH  29  31
BRANCH  25  32
ATOM     32  O   UNL     1     109.366 127.926 136.999  0.00  0.00    +0.000 OA
BRANCH  32  37
ATOM     33  O   UNL     1     110.113 127.682 135.806  0.00  0.00    +0.000 OA
ATOM     34  O   UNL     1     109.525 126.339 137.422  0.00  0.00    +0.000 OA
ATOM     35  O   UNL     1     110.352 125.302 136.441  0.00  0.00    +0.000 OA
ATOM     36  O   UNL     1     111.020 125.852 135.036  0.00  0.00    +0.000 OA
ATOM     37  C   UNL     1     109.779 127.408 136.508  0.00  0.00    +0.000 C 
ATOM     38  C   UNL     1     109.858 126.614 136.720  0.00  0.00    +0.000 C 
ATOM     39  C   UNL     1     110.272 126.096 136.230  0.00  0.00    +0.000 C 
ATOM     40  C   UNL     1     110.606 126.371 135.527  0.00  0.00    +0.000 C 
ATOM     41  C   UNL     1     110.526 127.164 135.315  0.00  0.00    +0.000 C 
BRANCH  41  43
ATOM     42  O   UNL     1     111.313 128.129 134.613  0.00  0.00    +0.000 OA
ATOM     43  C   UNL     1     110.861 127.439 134.612  0.00  0.00    +0.000 C 
ENDBRANCH  41  43
ENDBRANCH  32  37
ENDBRANCH  25  32
ENDBRANCH  21  28
ENDBRANCH   4  21
BRANCH   9  44
ATOM     44  O   UNL     1     110.296 131.394 141.713  0.00  0.00    +0.000 OA
BRANCH  44  52
ATOM     45  O   UNL     1     110.457 130.296 142.612  0.00  0.00    +0.000 OA
ATOM     46  O   UNL     1     112.260 131.520 143.785  0.00  0.00    +0.000 OA
ATOM     47  O   UNL     1     111.498 132.211 142.495  0.00  0.00    +0.000 OA
ATOM     48  O   UNL     1     111.820 130.014 144.294  0.00  0.00    +0.000 OA
ATOM     49  C   UNL     1     111.659 131.112 143.394  0.00  0.00    +0.000 C 
ATOM     50  C   UNL     1     111.278 131.457 142.749  0.00  0.00    +0.000 C 
ATOM     51  C   UNL     1     111.439 130.359 143.649  0.00  0.00    +0.000 C 
ATOM     52  C   UNL     1     110.677 131.049 142.358  0.00  0.00    +0.000 C 
ATOM     53  C   UNL     1     110.838 129.951 143.258  0.00  0.00    +0.000 C 
BRANCH  53  56
ATOM     54  O   UNL     1     109.990 129.107 144.040  0.00  0.00    +0.000 OA
ATOM     55  O   UNL     1     111.026 128.534 143.239  0.00  0.00    +0.000 OA
ATOM     56  C   UNL     1     110.618 129.197 143.512  0.00  0.00    +0.000 C 
ENDBRANCH  53  56
ENDBRANCH  44  52
ENDBRANCH   9  44
TORSDOF 10
ENDMDL
MODEL 3
REMARK VINA RESULT:     -10.2      2.737      4.874
REMARK  Name = 74978169
REMARK  10 active torsions:
REMARK  status: ('A' for Active; 'I' for Inactive)
REMARK    1  A    between atoms: O_1  and  C_24
REMARK    2  A    between atoms: O_1  and  C_27
REMARK    3  A    between atoms: O_4  and  C_29
REMARK    4  A    between atoms: O_4  and  C_39
REMARK    5  A    between atoms: O_13  and  C_40
REMARK    6  A    between atoms: O_13  and  C_47
REMARK    7  A    between atoms: C_30  and  C_34
REMARK    8  A    between atoms: C_33  and  C_35
REMARK    9  A    between atoms: C_41  and  C_46
REMARK   10  A    between atoms: C_42  and  C_48
REMARK                            x       y       z     vdW  Elec       q    Type
REMARK                         _______ _______ _______ _____ _____    ______ ____
ROOT
ATOM      1  O   UNL     1     110.153 130.470 142.914  0.00  0.00    +0.000 OA
ATOM      2  O   UNL     1     111.932 131.311 141.411  0.00  0.00    +0.000 OA
ATOM      3  O   UNL     1     112.764 131.652 142.540  0.00  0.00    +0.000 OA
ATOM      4  C   UNL     1     110.641 130.727 141.595  0.00  0.00    +0.000 A 
ATOM      5  C   UNL     1     110.048 130.447 142.096  0.00  0.00    +0.000 A 
ATOM      6  C   UNL     1     111.339 131.031 141.913  0.00  0.00    +0.000 A 
ATOM      7  C   UNL     1     111.444 131.054 142.730  0.00  0.00    +0.000 A 
ATOM      8  C   UNL     1     110.852 130.774 143.230  0.00  0.00    +0.000 A 
ATOM      9  C   UNL     1     111.674 131.108 144.421  0.00  0.00    +0.000 A 
ATOM     10  C   UNL     1     110.950 130.793 144.084  0.00  0.00    +0.000 A 
ATOM     11  C   UNL     1     112.176 131.373 143.049  0.00  0.00    +0.000 A 
ATOM     12  C   UNL     1     112.293 131.401 143.899  0.00  0.00    +0.000 A 
ENDROOT
BRANCH   5  15
ATOM     13  O   UNL     1     107.441 130.864 141.003  0.00  0.00    +0.000 OA
ATOM     14  O   UNL     1     107.255 129.234 140.824  0.00  0.00    +0.000 OA
ATOM     15  C   UNL     1     109.350 130.143 141.778  0.00  0.00    +0.000 A 
ATOM     16  C   UNL     1     108.744 130.655 141.549  0.00  0.00    +0.000 A 
ATOM     17  C   UNL     1     109.257 129.328 141.688  0.00  0.00    +0.000 A 
ATOM     18  C   UNL     1     108.046 130.352 141.231  0.00  0.00    +0.000 A 
ATOM     19  C   UNL     1     108.558 129.026 141.370  0.00  0.00    +0.000 A 
ATOM     20  C   UNL     1     107.953 129.537 141.142  0.00  0.00    +0.000 A 
ENDBRANCH   5  15
BRANCH   4  21
ATOM     21  O   UNL     1     110.536 130.704 140.777  0.00  0.00    +0.000 OA
BRANCH  21  28
ATOM     22  O   UNL     1     111.455 129.632 140.554  0.00  0.00    +0.000 OA
ATOM     23  O   UNL     1     112.053 130.602 138.357  0.00  0.00    +0.000 OA
ATOM     24  O   UNL     1     112.773 129.207 138.867  0.00  0.00    +0.000 OA
ATOM     25  C   UNL     1     111.294 130.653 139.567  0.00  0.00    +0.000 C 
ATOM     26  C   UNL     1     111.854 130.279 139.090  0.00  0.00    +0.000 C 
ATOM     27  C   UNL     1     112.213 129.582 139.345  0.00  0.00    +0.000 C 
ATOM     28  C   UNL     1     111.095 130.330 140.300  0.00  0.00    +0.000 C 
ATOM     29  C   UNL     1     112.014 129.259 140.078  0.00  0.00    +0.000 C 
BRANCH  29  31
ATOM     30  O   UNL     1     111.917 127.893 140.487  0.00  0.00    +0.000 OA
ATOM     31  C   UNL     1     112.374 128.561 140.332  0.00  0.00    +0.000 C 
ENDBRANCH  29  31
BRANCH  25  32
ATOM     32  O   UNL     1     110.934 131.350 139.312  0.00  0.00    +0.000 OA
BRANCH  32  37
ATOM     33  O   UNL     1     110.096 130.602 138.431  0.00  0.00    +0.000 OA
ATOM     34  O   UNL     1     110.103 132.725 138.936  0.00  0.00    +0.000 OA
ATOM     35  O   UNL     1     108.848 132.663 137.866  0.00  0.00    +0.000 OA
ATOM     36  O   UNL     1     108.425 131.227 137.172  0.00  0.00    +0.000 OA
ATOM     37  C   UNL     1     110.307 131.319 138.777  0.00  0.00    +0.000 C 
ATOM     38  C   UNL     1     109.892 132.007 138.589  0.00  0.00    +0.000 C 
ATOM     39  C   UNL     1     109.264 131.976 138.054  0.00  0.00    +0.000 C 
ATOM     40  C   UNL     1     109.052 131.257 137.707  0.00  0.00    +0.000 C 
ATOM     41  C   UNL     1     109.469 130.571 137.896  0.00  0.00    +0.000 C 
BRANCH  41  43
ATOM     42  O   UNL     1     108.977 129.234 138.018  0.00  0.00    +0.000 OA
ATOM     43  C   UNL     1     109.257 129.852 137.549  0.00  0.00    +0.000 C 
ENDBRANCH  41  43
ENDBRANCH  32  37
ENDBRANCH  25  32
ENDBRANCH  21  28
ENDBRANCH   4  21
BRANCH   9  44
ATOM     44  O   UNL     1     111.777 131.131 145.239  0.00  0.00    +0.000 OA
BRANCH  44  52
ATOM     45  O   UNL     1     110.972 132.296 145.429  0.00  0.00    +0.000 OA
ATOM     46  O   UNL     1     112.365 132.942 147.370  0.00  0.00    +0.000 OA
ATOM     47  O   UNL     1     112.706 131.561 146.533  0.00  0.00    +0.000 OA
ATOM     48  O   UNL     1     111.097 133.892 146.914  0.00  0.00    +0.000 OA
ATOM     49  C   UNL     1     111.901 132.727 146.723  0.00  0.00    +0.000 C 
ATOM     50  C   UNL     1     112.071 132.036 146.305  0.00  0.00    +0.000 C 
ATOM     51  C   UNL     1     111.267 133.202 146.495  0.00  0.00    +0.000 C 
ATOM     52  C   UNL     1     111.607 131.821 145.658  0.00  0.00    +0.000 C 
ATOM     53  C   UNL     1     110.803 132.987 145.848  0.00  0.00    +0.000 C 
BRANCH  53  56
ATOM     54  O   UNL     1     109.424 133.346 145.955  0.00  0.00    +0.000 OA
ATOM     55  O   UNL     1     110.278 134.053 145.055  0.00  0.00    +0.000 OA
ATOM     56  C   UNL     1     110.168 133.462 145.619  0.00  0.00    +0.000 C 
ENDBRANCH  53  56
ENDBRANCH  44  52
ENDBRANCH   9  44
TORSDOF 10
ENDMDL
MODEL 4
REMARK VINA RESULT:     -10.2      1.266      2.409
REMARK  Name = 74978169
REMARK  10 active torsions:
REMARK  status: ('A' for Active; 'I' for Inactive)
REMARK    1  A    between atoms: O_1  and  C_24
REMARK    2  A    between atoms: O_1  and  C_27
REMARK    3  A    between atoms: O_4  and  C_29
REMARK    4  A    between atoms: O_4  and  C_39
REMARK    5  A    between atoms: O_13  and  C_40
REMARK    6  A    between atoms: O_13  and  C_47
REMARK    7  A    between atoms: C_30  and  C_34
REMARK    8  A    between atoms: C_33  and  C_35
REMARK    9  A    between atoms: C_41  and  C_46
REMARK   10  A    between atoms: C_42  and  C_48
REMARK                            x       y       z     vdW  Elec       q    Type
REMARK                         _______ _______ _______ _____ _____    ______ ____
ROOT
ATOM      1  O   UNL     1     111.337 129.674 139.341  0.00  0.00    +0.000 OA
ATOM      2  O   UNL     1     113.333 128.259 138.964  0.00  0.00    +0.000 OA
ATOM      3  O   UNL     1     113.986 128.822 140.122  0.00  0.00    +0.000 OA
ATOM      4  C   UNL     1     112.023 128.680 138.577  0.00  0.00    +0.000 A 
ATOM      5  C   UNL     1     111.358 129.152 138.703  0.00  0.00    +0.000 A 
ATOM      6  C   UNL     1     112.667 128.731 139.090  0.00  0.00    +0.000 A 
ATOM      7  C   UNL     1     112.647 129.254 139.728  0.00  0.00    +0.000 A 
ATOM      8  C   UNL     1     111.982 129.725 139.853  0.00  0.00    +0.000 A 
ATOM      9  C   UNL     1     112.615 130.331 141.052  0.00  0.00    +0.000 A 
ATOM     10  C   UNL     1     111.948 130.273 140.514  0.00  0.00    +0.000 A 
ATOM     11  C   UNL     1     113.324 129.298 140.255  0.00  0.00    +0.000 A 
ATOM     12  C   UNL     1     113.309 129.840 140.921  0.00  0.00    +0.000 A 
ENDROOT
BRANCH   5  15
ATOM     13  O   UNL     1     109.031 127.771 137.786  0.00  0.00    +0.000 OA
ATOM     14  O   UNL     1     108.781 128.944 136.653  0.00  0.00    +0.000 OA
ATOM     15  C   UNL     1     110.714 129.100 138.190  0.00  0.00    +0.000 A 
ATOM     16  C   UNL     1     110.194 128.461 138.244  0.00  0.00    +0.000 A 
ATOM     17  C   UNL     1     110.589 129.687 137.623  0.00  0.00    +0.000 A 
ATOM     18  C   UNL     1     109.550 128.410 137.732  0.00  0.00    +0.000 A 
ATOM     19  C   UNL     1     109.944 129.634 137.111  0.00  0.00    +0.000 A 
ATOM     20  C   UNL     1     109.425 128.996 137.165  0.00  0.00    +0.000 A 
ENDBRANCH   5  15
BRANCH   4  21
ATOM     21  O   UNL     1     112.044 128.157 137.939  0.00  0.00    +0.000 OA
BRANCH  21  28
ATOM     22  O   UNL     1     112.910 128.945 137.119  0.00  0.00    +0.000 OA
ATOM     23  O   UNL     1     113.967 126.882 136.253  0.00  0.00    +0.000 OA
ATOM     24  O   UNL     1     114.480 128.357 135.722  0.00  0.00    +0.000 OA
ATOM     25  C   UNL     1     113.005 127.520 137.096  0.00  0.00    +0.000 C 
ATOM     26  C   UNL     1     113.615 127.570 136.542  0.00  0.00    +0.000 C 
ATOM     27  C   UNL     1     113.871 128.308 136.277  0.00  0.00    +0.000 C 
ATOM     28  C   UNL     1     112.653 128.208 137.385  0.00  0.00    +0.000 C 
ATOM     29  C   UNL     1     113.518 128.995 136.565  0.00  0.00    +0.000 C 
BRANCH  29  31
ATOM     30  O   UNL     1     113.241 130.257 135.954  0.00  0.00    +0.000 OA
ATOM     31  C   UNL     1     113.776 129.733 136.299  0.00  0.00    +0.000 C 
ENDBRANCH  29  31
BRANCH  25  32
ATOM     32  O   UNL     1     112.749 126.782 137.361  0.00  0.00    +0.000 OA
BRANCH  32  37
ATOM     33  O   UNL     1     111.989 126.614 136.164  0.00  0.00    +0.000 OA
ATOM     34  O   UNL     1     112.271 125.288 137.874  0.00  0.00    +0.000 OA
ATOM     35  O   UNL     1     111.272 124.373 136.932  0.00  0.00    +0.000 OA
ATOM     36  O   UNL     1     110.751 124.952 135.478  0.00  0.00    +0.000 OA
ATOM     37  C   UNL     1     112.249 126.324 136.891  0.00  0.00    +0.000 C 
ATOM     38  C   UNL     1     112.011 125.577 137.148  0.00  0.00    +0.000 C 
ATOM     39  C   UNL     1     111.511 125.120 136.677  0.00  0.00    +0.000 C 
ATOM     40  C   UNL     1     111.250 125.409 135.949  0.00  0.00    +0.000 C 
ATOM     41  C   UNL     1     111.489 126.156 135.693  0.00  0.00    +0.000 C 
BRANCH  41  43
ATOM     42  O   UNL     1     110.721 127.096 134.939  0.00  0.00    +0.000 OA
ATOM     43  C   UNL     1     111.228 126.446 134.965  0.00  0.00    +0.000 C 
ENDBRANCH  41  43
ENDBRANCH  32  37
ENDBRANCH  25  32
ENDBRANCH  21  28
ENDBRANCH   4  21
BRANCH   9  44
ATOM     44  O   UNL     1     112.592 130.855 141.689  0.00  0.00    +0.000 OA
BRANCH  44  52
ATOM     45  O   UNL     1     112.025 129.947 142.637  0.00  0.00    +0.000 OA
ATOM     46  O   UNL     1     110.690 131.793 143.605  0.00  0.00    +0.000 OA
ATOM     47  O   UNL     1     111.702 132.085 142.335  0.00  0.00    +0.000 OA
ATOM     48  O   UNL     1     110.568 130.271 144.230  0.00  0.00    +0.000 OA
ATOM     49  C   UNL     1     111.135 131.178 143.282  0.00  0.00    +0.000 C 
ATOM     50  C   UNL     1     111.641 131.324 142.647  0.00  0.00    +0.000 C 
ATOM     51  C   UNL     1     111.074 130.417 143.595  0.00  0.00    +0.000 C 
ATOM     52  C   UNL     1     112.086 130.709 142.324  0.00  0.00    +0.000 C 
ATOM     53  C   UNL     1     111.519 129.802 143.272  0.00  0.00    +0.000 C 
BRANCH  53  56
ATOM     54  O   UNL     1     111.924 128.821 144.229  0.00  0.00    +0.000 OA
ATOM     55  O   UNL     1     110.931 128.500 143.253  0.00  0.00    +0.000 OA
ATOM     56  C   UNL     1     111.458 129.041 143.585  0.00  0.00    +0.000 C 
ENDBRANCH  53  56
ENDBRANCH  44  52
ENDBRANCH   9  44
TORSDOF 10
ENDMDL
MODEL 5
REMARK VINA RESULT:     -10.2      2.938      4.872
REMARK  Name = 74978169
REMARK  10 active torsions:
REMARK  status: ('A' for Active; 'I' for Inactive)
REMARK    1  A    between atoms: O_1  and  C_24
REMARK    2  A    between atoms: O_1  and  C_27
REMARK    3  A    between atoms: O_4  and  C_29
REMARK    4  A    between atoms: O_4  and  C_39
REMARK    5  A    between atoms: O_13  and  C_40
REMARK    6  A    between atoms: O_13  and  C_47
REMARK    7  A    between atoms: C_30  and  C_34
REMARK    8  A    between atoms: C_33  and  C_35
REMARK    9  A    between atoms: C_41  and  C_46
REMARK   10  A    between atoms: C_42  and  C_48
REMARK                            x       y       z     vdW  Elec       q    Type
REMARK                         _______ _______ _______ _____ _____    ______ ____
ROOT
ATOM      1  O   UNL     1     109.934 125.623 139.188  0.00  0.00    +0.000 OA
ATOM      2  O   UNL     1     110.142 128.059 139.580  0.00  0.00    +0.000 OA
ATOM      3  O   UNL     1     109.277 127.976 140.732  0.00  0.00    +0.000 OA
ATOM      4  C   UNL     1     110.468 126.896 138.816  0.00  0.00    +0.000 A 
ATOM      5  C   UNL     1     110.399 126.084 138.685  0.00  0.00    +0.000 A 
ATOM      6  C   UNL     1     110.073 127.247 139.450  0.00  0.00    +0.000 A 
ATOM      7  C   UNL     1     109.608 126.786 139.952  0.00  0.00    +0.000 A 
ATOM      8  C   UNL     1     109.539 125.975 139.821  0.00  0.00    +0.000 A 
ATOM      9  C   UNL     1     108.644 125.843 140.999  0.00  0.00    +0.000 A 
ATOM     10  C   UNL     1     109.058 125.485 140.338  0.00  0.00    +0.000 A 
ATOM     11  C   UNL     1     109.202 127.164 140.608  0.00  0.00    +0.000 A 
ATOM     12  C   UNL     1     108.716 126.690 141.135  0.00  0.00    +0.000 A 
ENDROOT
BRANCH   5  15
ATOM     13  O   UNL     1     110.539 125.450 135.903  0.00  0.00    +0.000 OA
ATOM     14  O   UNL     1     111.979 124.684 136.150  0.00  0.00    +0.000 OA
ATOM     15  C   UNL     1     110.794 125.734 138.052  0.00  0.00    +0.000 A 
ATOM     16  C   UNL     1     110.469 125.767 137.294  0.00  0.00    +0.000 A 
ATOM     17  C   UNL     1     111.514 125.351 138.175  0.00  0.00    +0.000 A 
ATOM     18  C   UNL     1     110.864 125.417 136.660  0.00  0.00    +0.000 A 
ATOM     19  C   UNL     1     111.909 125.000 137.541  0.00  0.00    +0.000 A 
ATOM     20  C   UNL     1     111.584 125.034 136.784  0.00  0.00    +0.000 A 
ENDBRANCH   5  15
BRANCH   4  21
ATOM     21  O   UNL     1     110.933 127.357 138.313  0.00  0.00    +0.000 OA
BRANCH  21  28
ATOM     22  O   UNL     1     112.009 127.539 139.236  0.00  0.00    +0.000 OA
ATOM     23  O   UNL     1     112.400 129.810 138.333  0.00  0.00    +0.000 OA
ATOM     24  O   UNL     1     113.346 129.234 139.556  0.00  0.00    +0.000 OA
ATOM     25  C   UNL     1     111.666 128.583 138.323  0.00  0.00    +0.000 C 
ATOM     26  C   UNL     1     112.269 129.053 138.634  0.00  0.00    +0.000 C 
ATOM     27  C   UNL     1     112.742 128.764 139.245  0.00  0.00    +0.000 C 
ATOM     28  C   UNL     1     111.536 127.826 138.624  0.00  0.00    +0.000 C 
ATOM     29  C   UNL     1     112.612 128.007 139.546  0.00  0.00    +0.000 C 
BRANCH  29  31
ATOM     30  O   UNL     1     113.573 127.068 140.031  0.00  0.00    +0.000 OA
ATOM     31  C   UNL     1     113.086 127.720 140.158  0.00  0.00    +0.000 C 
ENDBRANCH  29  31
BRANCH  25  32
ATOM     32  O   UNL     1     111.193 128.871 137.712  0.00  0.00    +0.000 OA
BRANCH  32  37
ATOM     33  O   UNL     1     112.242 128.613 136.777  0.00  0.00    +0.000 OA
ATOM     34  O   UNL     1     110.227 129.399 136.483  0.00  0.00    +0.000 OA
ATOM     35  O   UNL     1     110.793 129.404 134.933  0.00  0.00    +0.000 OA
ATOM     36  O   UNL     1     112.325 128.883 134.612  0.00  0.00    +0.000 OA
ATOM     37  C   UNL     1     111.476 128.874 136.937  0.00  0.00    +0.000 C 
ATOM     38  C   UNL     1     110.993 129.138 136.323  0.00  0.00    +0.000 C 
ATOM     39  C   UNL     1     111.276 129.141 135.548  0.00  0.00    +0.000 C 
ATOM     40  C   UNL     1     112.042 128.880 135.387  0.00  0.00    +0.000 C 
ATOM     41  C   UNL     1     112.525 128.616 136.002  0.00  0.00    +0.000 C 
BRANCH  41  43
ATOM     42  O   UNL     1     113.524 127.597 136.068  0.00  0.00    +0.000 OA
ATOM     43  C   UNL     1     113.291 128.355 135.842  0.00  0.00    +0.000 C 
ENDBRANCH  41  43
ENDBRANCH  32  37
ENDBRANCH  25  32
ENDBRANCH  21  28
ENDBRANCH   4  21
BRANCH   9  44
ATOM     44  O   UNL     1     108.180 125.380 141.500  0.00  0.00    +0.000 OA
BRANCH  44  52
ATOM     45  O   UNL     1     107.073 125.066 140.653  0.00  0.00    +0.000 OA
ATOM     46  O   UNL     1     105.509 125.704 142.462  0.00  0.00    +0.000 OA
ATOM     47  O   UNL     1     107.137 125.806 142.706  0.00  0.00    +0.000 OA
ATOM     48  O   UNL     1     104.922 125.177 141.013  0.00  0.00    +0.000 OA
ATOM     49  C   UNL     1     106.030 125.491 141.859  0.00  0.00    +0.000 C 
ATOM     50  C   UNL     1     106.845 125.542 141.981  0.00  0.00    +0.000 C 
ATOM     51  C   UNL     1     105.737 125.228 141.135  0.00  0.00    +0.000 C 
ATOM     52  C   UNL     1     107.366 125.329 141.378  0.00  0.00    +0.000 C 
ATOM     53  C   UNL     1     106.258 125.015 140.532  0.00  0.00    +0.000 C 
BRANCH  53  56
ATOM     54  O   UNL     1     105.842 123.946 139.680  0.00  0.00    +0.000 OA
ATOM     55  O   UNL     1     105.796 125.294 139.209  0.00  0.00    +0.000 OA
ATOM     56  C   UNL     1     105.965 124.752 139.807  0.00  0.00    +0.000 C 
ENDBRANCH  53  56
ENDBRANCH  44  52
ENDBRANCH   9  44
TORSDOF 10
ENDMDL
MODEL 6
REMARK VINA RESULT:     -10.1      1.784      6.595
REMARK  Name = 74978169
REMARK  10 active torsions:
REMARK  status: ('A' for Active; 'I' for Inactive)
REMARK    1  A    between atoms: O_1  and  C_24
REMARK    2  A    between atoms: O_1  and  C_27
REMARK    3  A    between atoms: O_4  and  C_29
REMARK    4  A    between atoms: O_4  and  C_39
REMARK    5  A    between atoms: O_13  and  C_40
REMARK    6  A    between atoms: O_13  and  C_47
REMARK    7  A    between atoms: C_30  and  C_34
REMARK    8  A    between atoms: C_33  and  C_35
REMARK    9  A    between atoms: C_41  and  C_46
REMARK   10  A    between atoms: C_42  and  C_48
REMARK                            x       y       z     vdW  Elec       q    Type
REMARK                         _______ _______ _______ _____ _____    ______ ____
ROOT
ATOM      1  O   UNL     1     112.706 128.327 138.591  0.00  0.00    +0.000 OA
ATOM      2  O   UNL     1     110.431 128.352 139.567  0.00  0.00    +0.000 OA
ATOM      3  O   UNL     1     109.938 127.503 138.510  0.00  0.00    +0.000 OA
ATOM      4  C   UNL     1     111.800 128.761 139.608  0.00  0.00    +0.000 A 
ATOM      5  C   UNL     1     112.559 128.752 139.282  0.00  0.00    +0.000 A 
ATOM      6  C   UNL     1     111.190 128.344 139.241  0.00  0.00    +0.000 A 
ATOM      7  C   UNL     1     111.338 127.919 138.549  0.00  0.00    +0.000 A 
ATOM      8  C   UNL     1     112.095 127.911 138.225  0.00  0.00    +0.000 A 
ATOM      9  C   UNL     1     111.630 127.036 137.118  0.00  0.00    +0.000 A 
ATOM     10  C   UNL     1     112.261 127.472 137.505  0.00  0.00    +0.000 A 
ATOM     11  C   UNL     1     110.693 127.489 138.177  0.00  0.00    +0.000 A 
ATOM     12  C   UNL     1     110.840 127.045 137.457  0.00  0.00    +0.000 A 
ENDROOT
BRANCH   5  15
ATOM     13  O   UNL     1     114.226 131.067 139.441  0.00  0.00    +0.000 OA
ATOM     14  O   UNL     1     114.999 130.420 140.748  0.00  0.00    +0.000 OA
ATOM     15  C   UNL     1     113.169 129.169 139.649  0.00  0.00    +0.000 A 
ATOM     16  C   UNL     1     113.393 129.910 139.362  0.00  0.00    +0.000 A 
ATOM     17  C   UNL     1     113.555 128.846 140.302  0.00  0.00    +0.000 A 
ATOM     18  C   UNL     1     114.003 130.327 139.729  0.00  0.00    +0.000 A 
ATOM     19  C   UNL     1     114.165 129.263 140.668  0.00  0.00    +0.000 A 
ATOM     20  C   UNL     1     114.389 130.003 140.382  0.00  0.00    +0.000 A 
ENDBRANCH   5  15
BRANCH   4  21
ATOM     21  O   UNL     1     111.653 129.185 140.299  0.00  0.00    +0.000 OA
BRANCH  21  28
ATOM     22  O   UNL     1     110.952 130.264 139.677  0.00  0.00    +0.000 OA
ATOM     23  O   UNL     1     109.454 130.425 141.641  0.00  0.00    +0.000 OA
ATOM     24  O   UNL     1     109.253 131.450 140.364  0.00  0.00    +0.000 OA
ATOM     25  C   UNL     1     110.554 129.805 140.970  0.00  0.00    +0.000 C 
ATOM     26  C   UNL     1     109.954 130.371 140.986  0.00  0.00    +0.000 C 
ATOM     27  C   UNL     1     109.854 130.884 140.348  0.00  0.00    +0.000 C 
ATOM     28  C   UNL     1     111.053 129.751 140.315  0.00  0.00    +0.000 C 
ATOM     29  C   UNL     1     110.353 130.830 139.693  0.00  0.00    +0.000 C 
BRANCH  29  31
ATOM     30  O   UNL     1     110.863 131.850 138.832  0.00  0.00    +0.000 OA
ATOM     31  C   UNL     1     110.252 131.343 139.055  0.00  0.00    +0.000 C 
ENDBRANCH  29  31
BRANCH  25  32
ATOM     32  O   UNL     1     110.654 129.292 141.609  0.00  0.00    +0.000 OA
BRANCH  32  37
ATOM     33  O   UNL     1     111.298 130.333 142.345  0.00  0.00    +0.000 OA
ATOM     34  O   UNL     1     110.827 128.275 142.896  0.00  0.00    +0.000 OA
ATOM     35  O   UNL     1     111.558 128.808 144.276  0.00  0.00    +0.000 OA
ATOM     36  O   UNL     1     112.116 130.358 144.369  0.00  0.00    +0.000 OA
ATOM     37  C   UNL     1     111.019 129.559 142.299  0.00  0.00    +0.000 C 
ATOM     38  C   UNL     1     111.106 129.049 142.942  0.00  0.00    +0.000 C 
ATOM     39  C   UNL     1     111.471 129.316 143.632  0.00  0.00    +0.000 C 
ATOM     40  C   UNL     1     111.750 130.092 143.679  0.00  0.00    +0.000 C 
ATOM     41  C   UNL     1     111.663 130.600 143.035  0.00  0.00    +0.000 C 
BRANCH  41  43
ATOM     42  O   UNL     1     112.555 131.623 142.587  0.00  0.00    +0.000 OA
ATOM     43  C   UNL     1     111.943 131.375 143.081  0.00  0.00    +0.000 C 
ENDBRANCH  41  43
ENDBRANCH  32  37
ENDBRANCH  25  32
ENDBRANCH  21  28
ENDBRANCH   4  21
BRANCH   9  44
ATOM     44  O   UNL     1     111.781 126.612 136.427  0.00  0.00    +0.000 OA
BRANCH  44  52
ATOM     45  O   UNL     1     112.929 125.814 136.722  0.00  0.00    +0.000 OA
ATOM     46  O   UNL     1     111.680 123.777 136.077  0.00  0.00    +0.000 OA
ATOM     47  O   UNL     1     110.948 125.254 135.996  0.00  0.00    +0.000 OA
ATOM     48  O   UNL     1     113.244 123.658 136.588  0.00  0.00    +0.000 OA
ATOM     49  C   UNL     1     112.096 124.456 136.292  0.00  0.00    +0.000 C 
ATOM     50  C   UNL     1     111.730 125.195 136.252  0.00  0.00    +0.000 C 
ATOM     51  C   UNL     1     112.878 124.396 136.547  0.00  0.00    +0.000 C 
ATOM     52  C   UNL     1     112.147 125.874 136.467  0.00  0.00    +0.000 C 
ATOM     53  C   UNL     1     113.294 125.075 136.762  0.00  0.00    +0.000 C 
BRANCH  53  56
ATOM     54  O   UNL     1     114.241 124.838 137.807  0.00  0.00    +0.000 OA
ATOM     55  O   UNL     1     114.695 125.135 136.485  0.00  0.00    +0.000 OA
ATOM     56  C   UNL     1     114.077 125.016 137.018  0.00  0.00    +0.000 C 
ENDBRANCH  53  56
ENDBRANCH  44  52
ENDBRANCH   9  44
TORSDOF 10
ENDMDL
MODEL 7
REMARK VINA RESULT:     -10.1      2.148      4.118
REMARK  Name = 74978169
REMARK  10 active torsions:
REMARK  status: ('A' for Active; 'I' for Inactive)
REMARK    1  A    between atoms: O_1  and  C_24
REMARK    2  A    between atoms: O_1  and  C_27
REMARK    3  A    between atoms: O_4  and  C_29
REMARK    4  A    between atoms: O_4  and  C_39
REMARK    5  A    between atoms: O_13  and  C_40
REMARK    6  A    between atoms: O_13  and  C_47
REMARK    7  A    between atoms: C_30  and  C_34
REMARK    8  A    between atoms: C_33  and  C_35
REMARK    9  A    between atoms: C_41  and  C_46
REMARK   10  A    between atoms: C_42  and  C_48
REMARK                            x       y       z     vdW  Elec       q    Type
REMARK                         _______ _______ _______ _____ _____    ______ ____
ROOT
ATOM      1  O   UNL     1     111.562 129.540 143.119  0.00  0.00    +0.000 OA
ATOM      2  O   UNL     1     111.941 131.299 141.419  0.00  0.00    +0.000 OA
ATOM      3  O   UNL     1     112.106 132.297 142.447  0.00  0.00    +0.000 OA
ATOM      4  C   UNL     1     111.671 129.935 141.750  0.00  0.00    +0.000 A 
ATOM      5  C   UNL     1     111.545 129.349 142.317  0.00  0.00    +0.000 A 
ATOM      6  C   UNL     1     111.814 130.712 141.986  0.00  0.00    +0.000 A 
ATOM      7  C   UNL     1     111.831 130.904 142.788  0.00  0.00    +0.000 A 
ATOM      8  C   UNL     1     111.705 130.318 143.354  0.00  0.00    +0.000 A 
ATOM      9  C   UNL     1     111.868 131.312 144.445  0.00  0.00    +0.000 A 
ATOM     10  C   UNL     1     111.720 130.505 144.193  0.00  0.00    +0.000 A 
ATOM     11  C   UNL     1     111.981 131.717 143.021  0.00  0.00    +0.000 A 
ATOM     12  C   UNL     1     112.000 131.923 143.855  0.00  0.00    +0.000 A 
ENDROOT
BRANCH   5  15
ATOM     13  O   UNL     1     109.729 127.323 141.444  0.00  0.00    +0.000 OA
ATOM     14  O   UNL     1     110.971 126.240 141.372  0.00  0.00    +0.000 OA
ATOM     15  C   UNL     1     111.402 128.571 142.081  0.00  0.00    +0.000 A 
ATOM     16  C   UNL     1     110.637 128.336 141.880  0.00  0.00    +0.000 A 
ATOM     17  C   UNL     1     112.023 128.030 142.045  0.00  0.00    +0.000 A 
ATOM     18  C   UNL     1     110.494 127.558 141.644  0.00  0.00    +0.000 A 
ATOM     19  C   UNL     1     111.879 127.252 141.808  0.00  0.00    +0.000 A 
ATOM     20  C   UNL     1     111.115 127.017 141.608  0.00  0.00    +0.000 A 
ENDBRANCH   5  15
BRANCH   4  21
ATOM     21  O   UNL     1     111.655 129.744 140.947  0.00  0.00    +0.000 OA
BRANCH  21  28
ATOM     22  O   UNL     1     113.065 129.842 140.739  0.00  0.00    +0.000 OA
ATOM     23  O   UNL     1     112.666 130.720 138.459  0.00  0.00    +0.000 OA
ATOM     24  O   UNL     1     114.209 130.526 139.011  0.00  0.00    +0.000 OA
ATOM     25  C   UNL     1     112.160 130.232 139.704  0.00  0.00    +0.000 C 
ATOM     26  C   UNL     1     112.799 130.428 139.219  0.00  0.00    +0.000 C 
ATOM     27  C   UNL     1     113.570 130.330 139.495  0.00  0.00    +0.000 C 
ATOM     28  C   UNL     1     112.293 129.939 140.464  0.00  0.00    +0.000 C 
ATOM     29  C   UNL     1     113.703 130.038 140.255  0.00  0.00    +0.000 C 
BRANCH  29  31
ATOM     30  O   UNL     1     114.748 129.192 140.739  0.00  0.00    +0.000 OA
ATOM     31  C   UNL     1     114.475 129.941 140.530  0.00  0.00    +0.000 C 
ENDBRANCH  29  31
BRANCH  25  32
ATOM     32  O   UNL     1     111.389 130.329 139.428  0.00  0.00    +0.000 OA
BRANCH  32  37
ATOM     33  O   UNL     1     111.507 129.129 138.663  0.00  0.00    +0.000 OA
ATOM     34  O   UNL     1     109.803 130.452 138.989  0.00  0.00    +0.000 OA
ATOM     35  O   UNL     1     109.129 129.313 138.004  0.00  0.00    +0.000 OA
ATOM     36  O   UNL     1     110.040 128.050 137.458  0.00  0.00    +0.000 OA
ATOM     37  C   UNL     1     111.052 129.759 138.935  0.00  0.00    +0.000 C 
ATOM     38  C   UNL     1     110.259 129.821 138.716  0.00  0.00    +0.000 C 
ATOM     39  C   UNL     1     109.921 129.252 138.224  0.00  0.00    +0.000 C 
ATOM     40  C   UNL     1     110.377 128.620 137.950  0.00  0.00    +0.000 C 
ATOM     41  C   UNL     1     111.170 128.559 138.170  0.00  0.00    +0.000 C 
BRANCH  41  43
ATOM     42  O   UNL     1     111.860 127.332 138.418  0.00  0.00    +0.000 OA
ATOM     43  C   UNL     1     111.626 127.927 137.897  0.00  0.00    +0.000 C 
ENDBRANCH  41  43
ENDBRANCH  32  37
ENDBRANCH  25  32
ENDBRANCH  21  28
ENDBRANCH   4  21
BRANCH   9  44
ATOM     44  O   UNL     1     111.885 131.501 145.248  0.00  0.00    +0.000 OA
BRANCH  44  52
ATOM     45  O   UNL     1     110.497 131.823 145.368  0.00  0.00    +0.000 OA
ATOM     46  O   UNL     1     111.054 133.621 146.975  0.00  0.00    +0.000 OA
ATOM     47  O   UNL     1     112.255 132.700 146.320  0.00  0.00    +0.000 OA
ATOM     48  O   UNL     1     109.481 133.344 146.560  0.00  0.00    +0.000 OA
ATOM     49  C   UNL     1     110.868 133.022 146.439  0.00  0.00    +0.000 C 
ATOM     50  C   UNL     1     111.469 132.561 146.112  0.00  0.00    +0.000 C 
ATOM     51  C   UNL     1     110.082 132.883 146.232  0.00  0.00    +0.000 C 
ATOM     52  C   UNL     1     111.284 131.961 145.576  0.00  0.00    +0.000 C 
ATOM     53  C   UNL     1     109.897 132.284 145.696  0.00  0.00    +0.000 C 
BRANCH  53  56
ATOM     54  O   UNL     1     108.673 131.571 145.888  0.00  0.00    +0.000 OA
ATOM     55  O   UNL     1     108.761 132.580 144.881  0.00  0.00    +0.000 OA
ATOM     56  C   UNL     1     109.111 132.145 145.488  0.00  0.00    +0.000 C 
ENDBRANCH  53  56
ENDBRANCH  44  52
ENDBRANCH   9  44
TORSDOF 10
ENDMDL
MODEL 8
REMARK VINA RESULT:     -10.0      2.423      5.255
REMARK  Name = 74978169
REMARK  10 active torsions:
REMARK  status: ('A' for Active; 'I' for Inactive)
REMARK    1  A    between atoms: O_1  and  C_24
REMARK    2  A    between atoms: O_1  and  C_27
REMARK    3  A    between atoms: O_4  and  C_29
REMARK    4  A    between atoms: O_4  and  C_39
REMARK    5  A    between atoms: O_13  and  C_40
REMARK    6  A    between atoms: O_13  and  C_47
REMARK    7  A    between atoms: C_30  and  C_34
REMARK    8  A    between atoms: C_33  and  C_35
REMARK    9  A    between atoms: C_41  and  C_46
REMARK   10  A    between atoms: C_42  and  C_48
REMARK                            x       y       z     vdW  Elec       q    Type
REMARK                         _______ _______ _______ _____ _____    ______ ____
ROOT
ATOM      1  O   UNL     1     111.901 130.509 142.597  0.00  0.00    +0.000 OA
ATOM      2  O   UNL     1     111.579 128.147 143.264  0.00  0.00    +0.000 OA
ATOM      3  O   UNL     1     111.490 128.522 144.655  0.00  0.00    +0.000 OA
ATOM      4  C   UNL     1     111.782 129.129 142.246  0.00  0.00    +0.000 A 
ATOM      5  C   UNL     1     111.889 129.917 142.023  0.00  0.00    +0.000 A 
ATOM      6  C   UNL     1     111.686 128.935 143.042  0.00  0.00    +0.000 A 
ATOM      7  C   UNL     1     111.698 129.528 143.616  0.00  0.00    +0.000 A 
ATOM      8  C   UNL     1     111.805 130.314 143.393  0.00  0.00    +0.000 A 
ATOM      9  C   UNL     1     111.720 130.746 144.812  0.00  0.00    +0.000 A 
ATOM     10  C   UNL     1     111.819 130.941 143.981  0.00  0.00    +0.000 A 
ATOM     11  C   UNL     1     111.597 129.313 144.441  0.00  0.00    +0.000 A 
ATOM     12  C   UNL     1     111.608 129.925 145.044  0.00  0.00    +0.000 A 
ENDROOT
BRANCH   5  15
ATOM     13  O   UNL     1     113.573 130.206 139.733  0.00  0.00    +0.000 OA
ATOM     14  O   UNL     1     112.274 130.690 138.839  0.00  0.00    +0.000 OA
ATOM     15  C   UNL     1     111.985 130.110 141.227  0.00  0.00    +0.000 A 
ATOM     16  C   UNL     1     112.731 130.061 140.878  0.00  0.00    +0.000 A 
ATOM     17  C   UNL     1     111.335 130.353 140.780  0.00  0.00    +0.000 A 
ATOM     18  C   UNL     1     112.827 130.255 140.082  0.00  0.00    +0.000 A 
ATOM     19  C   UNL     1     111.432 130.546 139.984  0.00  0.00    +0.000 A 
ATOM     20  C   UNL     1     112.177 130.497 139.635  0.00  0.00    +0.000 A 
ENDBRANCH   5  15
BRANCH   4  21
ATOM     21  O   UNL     1     111.770 128.536 141.672  0.00  0.00    +0.000 OA
BRANCH  21  28
ATOM     22  O   UNL     1     110.366 128.288 141.764  0.00  0.00    +0.000 OA
ATOM     23  O   UNL     1     110.754 125.899 141.247  0.00  0.00    +0.000 OA
ATOM     24  O   UNL     1     109.220 126.447 141.511  0.00  0.00    +0.000 OA
ATOM     25  C   UNL     1     111.262 127.218 141.460  0.00  0.00    +0.000 C 
ATOM     26  C   UNL     1     110.625 126.695 141.419  0.00  0.00    +0.000 C 
ATOM     27  C   UNL     1     109.858 126.970 141.551  0.00  0.00    +0.000 C 
ATOM     28  C   UNL     1     111.133 128.014 141.632  0.00  0.00    +0.000 C 
ATOM     29  C   UNL     1     109.729 127.766 141.723  0.00  0.00    +0.000 C 
BRANCH  29  31
ATOM     30  O   UNL     1     108.638 128.615 141.362  0.00  0.00    +0.000 OA
ATOM     31  C   UNL     1     108.961 128.040 141.855  0.00  0.00    +0.000 C 
ENDBRANCH  29  31
BRANCH  25  32
ATOM     32  O   UNL     1     112.029 126.943 141.328  0.00  0.00    +0.000 OA
BRANCH  32  37
ATOM     33  O   UNL     1     111.783 126.900 139.922  0.00  0.00    +0.000 OA
ATOM     34  O   UNL     1     113.626 126.627 141.057  0.00  0.00    +0.000 OA
ATOM     35  O   UNL     1     114.177 126.426 139.515  0.00  0.00    +0.000 OA
ATOM     36  O   UNL     1     113.132 126.541 138.244  0.00  0.00    +0.000 OA
ATOM     37  C   UNL     1     112.305 126.843 140.557  0.00  0.00    +0.000 C 
ATOM     38  C   UNL     1     113.103 126.685 140.422  0.00  0.00    +0.000 C 
ATOM     39  C   UNL     1     113.379 126.584 139.651  0.00  0.00    +0.000 C 
ATOM     40  C   UNL     1     112.856 126.642 139.015  0.00  0.00    +0.000 C 
ATOM     41  C   UNL     1     112.058 126.800 139.151  0.00  0.00    +0.000 C 
BRANCH  41  43
ATOM     42  O   UNL     1     111.229 127.592 138.298  0.00  0.00    +0.000 OA
ATOM     43  C   UNL     1     111.535 126.857 138.514  0.00  0.00    +0.000 C 
ENDBRANCH  41  43
ENDBRANCH  32  37
ENDBRANCH  25  32
ENDBRANCH  21  28
ENDBRANCH   4  21
BRANCH   9  44
ATOM     44  O   UNL     1     111.732 131.341 145.383  0.00  0.00    +0.000 OA
BRANCH  44  52
ATOM     45  O   UNL     1     110.339 131.650 145.310  0.00  0.00    +0.000 OA
ATOM     46  O   UNL     1     110.847 134.036 145.730  0.00  0.00    +0.000 OA
ATOM     47  O   UNL     1     112.071 132.931 145.663  0.00  0.00    +0.000 OA
ATOM     48  O   UNL     1     109.285 133.551 145.517  0.00  0.00    +0.000 OA
ATOM     49  C   UNL     1     110.678 133.240 145.590  0.00  0.00    +0.000 C 
ATOM     50  C   UNL     1     111.290 132.688 145.557  0.00  0.00    +0.000 C 
ATOM     51  C   UNL     1     109.897 132.999 145.483  0.00  0.00    +0.000 C 
ATOM     52  C   UNL     1     111.121 131.893 145.416  0.00  0.00    +0.000 C 
ATOM     53  C   UNL     1     109.728 132.203 145.343  0.00  0.00    +0.000 C 
BRANCH  53  56
ATOM     54  O   UNL     1     108.517 131.660 145.874  0.00  0.00    +0.000 OA
ATOM     55  O   UNL     1     108.594 132.018 144.493  0.00  0.00    +0.000 OA
ATOM     56  C   UNL     1     108.946 131.961 145.237  0.00  0.00    +0.000 C 
ENDBRANCH  53  56
ENDBRANCH  44  52
ENDBRANCH   9  44
TORSDOF 10
ENDMDL
MODEL 9
REMARK VINA RESULT:     -10.0      2.407      4.821
REMARK  Name = 74978169
REMARK  10 active torsions:
REMARK  status: ('A' for Active; 'I' for Inactive)
REMARK    1  A    between atoms: O_1  and  C_24
REMARK    2  A    between atoms: O_1  and  C_27
REMARK    3  A    between atoms: O_4  and  C_29
REMARK    4  A    between atoms: O_4  and  C_39
REMARK    5  A    between atoms: O_13  and  C_40
REMARK    6  A    between atoms: O_13  and  C_47
REMARK    7  A    between atoms: C_30  and  C_34
REMARK    8  A    between atoms: C_33  and  C_35
REMARK    9  A    between atoms: C_41  and  C_46
REMARK   10  A    between atoms: C_42  and  C_48
REMARK                            x       y       z     vdW  Elec       q    Type
REMARK                         _______ _______ _______ _____ _____    ______ ____
ROOT
ATOM      1  O   UNL     1     111.625 129.836 143.286  0.00  0.00    +0.000 OA
ATOM      2  O   UNL     1     111.661 131.672 141.626  0.00  0.00    +0.000 OA
ATOM      3  O   UNL     1     111.752 132.658 142.676  0.00  0.00    +0.000 OA
ATOM      4  C   UNL     1     111.598 130.276 141.926  0.00  0.00    +0.000 A 
ATOM      5  C   UNL     1     111.586 129.664 142.480  0.00  0.00    +0.000 A 
ATOM      6  C   UNL     1     111.649 131.060 142.180  0.00  0.00    +0.000 A 
ATOM      7  C   UNL     1     111.688 131.231 142.986  0.00  0.00    +0.000 A 
ATOM      8  C   UNL     1     111.675 130.620 143.538  0.00  0.00    +0.000 A 
ATOM      9  C   UNL     1     111.768 131.600 144.651  0.00  0.00    +0.000 A 
ATOM     10  C   UNL     1     111.715 130.786 144.380  0.00  0.00    +0.000 A 
ATOM     11  C   UNL     1     111.740 132.052 143.236  0.00  0.00    +0.000 A 
ATOM     12  C   UNL     1     111.781 132.238 144.074  0.00  0.00    +0.000 A 
ENDROOT
BRANCH   5  15
ATOM     13  O   UNL     1     110.032 127.315 142.004  0.00  0.00    +0.000 OA
ATOM     14  O   UNL     1     111.381 126.531 141.467  0.00  0.00    +0.000 OA
ATOM     15  C   UNL     1     111.535 128.881 142.227  0.00  0.00    +0.000 A 
ATOM     16  C   UNL     1     110.809 128.489 142.242  0.00  0.00    +0.000 A 
ATOM     17  C   UNL     1     112.210 128.489 141.959  0.00  0.00    +0.000 A 
ATOM     18  C   UNL     1     110.758 127.706 141.989  0.00  0.00    +0.000 A 
ATOM     19  C   UNL     1     112.158 127.705 141.706  0.00  0.00    +0.000 A 
ATOM     20  C   UNL     1     111.432 127.314 141.720  0.00  0.00    +0.000 A 
ENDBRANCH   5  15
BRANCH   4  21
ATOM     21  O   UNL     1     111.560 130.104 141.120  0.00  0.00    +0.000 OA
BRANCH  21  28
ATOM     22  O   UNL     1     110.196 130.482 140.923  0.00  0.00    +0.000 OA
ATOM     23  O   UNL     1     110.776 131.422 138.708  0.00  0.00    +0.000 OA
ATOM     24  O   UNL     1     109.218 131.486 139.249  0.00  0.00    +0.000 OA
ATOM     25  C   UNL     1     111.168 130.763 139.915  0.00  0.00    +0.000 C 
ATOM     26  C   UNL     1     110.583 131.108 139.447  0.00  0.00    +0.000 C 
ATOM     27  C   UNL     1     109.804 131.140 139.718  0.00  0.00    +0.000 C 
ATOM     28  C   UNL     1     110.975 130.449 140.653  0.00  0.00    +0.000 C 
ATOM     29  C   UNL     1     109.611 130.827 140.456  0.00  0.00    +0.000 C 
BRANCH  29  31
ATOM     30  O   UNL     1     108.412 130.163 140.861  0.00  0.00    +0.000 OA
ATOM     31  C   UNL     1     108.832 130.859 140.726  0.00  0.00    +0.000 C 
ENDBRANCH  29  31
BRANCH  25  32
ATOM     32  O   UNL     1     111.947 130.731 139.644  0.00  0.00    +0.000 OA
BRANCH  32  37
ATOM     33  O   UNL     1     111.621 129.606 138.826  0.00  0.00    +0.000 OA
ATOM     34  O   UNL     1     113.460 130.771 138.987  0.00  0.00    +0.000 OA
ATOM     35  O   UNL     1     113.891 129.665 137.841  0.00  0.00    +0.000 OA
ATOM     36  O   UNL     1     112.809 128.520 137.351  0.00  0.00    +0.000 OA
ATOM     37  C   UNL     1     112.162 130.178 139.071  0.00  0.00    +0.000 C 
ATOM     38  C   UNL     1     112.919 130.199 138.743  0.00  0.00    +0.000 C 
ATOM     39  C   UNL     1     113.135 129.646 138.169  0.00  0.00    +0.000 C 
ATOM     40  C   UNL     1     112.593 129.073 137.924  0.00  0.00    +0.000 C 
ATOM     41  C   UNL     1     111.837 129.053 138.253  0.00  0.00    +0.000 C 
BRANCH  41  43
ATOM     42  O   UNL     1     111.077 127.874 138.522  0.00  0.00    +0.000 OA
ATOM     43  C   UNL     1     111.296 128.480 138.008  0.00  0.00    +0.000 C 
ENDBRANCH  41  43
ENDBRANCH  32  37
ENDBRANCH  25  32
ENDBRANCH  21  28
ENDBRANCH   4  21
BRANCH   9  44
ATOM     44  O   UNL     1     111.806 131.768 145.457  0.00  0.00    +0.000 OA
BRANCH  44  52
ATOM     45  O   UNL     1     110.414 132.055 145.598  0.00  0.00    +0.000 OA
ATOM     46  O   UNL     1     110.934 133.722 147.352  0.00  0.00    +0.000 OA
ATOM     47  O   UNL     1     112.153 132.880 146.626  0.00  0.00    +0.000 OA
ATOM     48  O   UNL     1     109.368 133.453 146.909  0.00  0.00    +0.000 OA
ATOM     49  C   UNL     1     110.761 133.166 146.767  0.00  0.00    +0.000 C 
ATOM     50  C   UNL     1     111.370 132.745 146.404  0.00  0.00    +0.000 C 
ATOM     51  C   UNL     1     109.978 133.032 146.546  0.00  0.00    +0.000 C 
ATOM     52  C   UNL     1     111.197 132.190 145.820  0.00  0.00    +0.000 C 
ATOM     53  C   UNL     1     109.804 132.477 145.962  0.00  0.00    +0.000 C 
BRANCH  53  56
ATOM     54  O   UNL     1     108.660 132.831 145.182  0.00  0.00    +0.000 OA
ATOM     55  O   UNL     1     108.598 131.718 146.076  0.00  0.00    +0.000 OA
ATOM     56  C   UNL     1     109.021 132.342 145.740  0.00  0.00    +0.000 C 
ENDBRANCH  53  56
ENDBRANCH  44  52
ENDBRANCH   9  44
TORSDOF 10
ENDMDL
MODEL 10
REMARK VINA RESULT:     -10.0      2.327      5.731
REMARK  Name = 74978169
REMARK  10 active torsions:
REMARK  status: ('A' for Active; 'I' for Inactive)
REMARK    1  A    between atoms: O_1  and  C_24
REMARK    2  A    between atoms: O_1  and  C_27
REMARK    3  A    between atoms: O_4  and  C_29
REMARK    4  A    between atoms: O_4  and  C_39
REMARK    5  A    between atoms: O_13  and  C_40
REMARK    6  A    between atoms: O_13  and  C_47
REMARK    7  A    between atoms: C_30  and  C_34
REMARK    8  A    between atoms: C_33  and  C_35
REMARK    9  A    between atoms: C_41  and  C_46
REMARK   10  A    between atoms: C_42  and  C_48
REMARK                            x       y       z     vdW  Elec       q    Type
REMARK                         _______ _______ _______ _____ _____    ______ ____
ROOT
ATOM      1  O   UNL     1     112.692 128.510 137.947  0.00  0.00    +0.000 OA
ATOM      2  O   UNL     1     110.336 128.618 138.701  0.00  0.00    +0.000 OA
ATOM      3  O   UNL     1     110.380 127.240 139.127  0.00  0.00    +0.000 OA
ATOM      4  C   UNL     1     111.479 129.247 138.117  0.00  0.00    +0.000 A 
ATOM      5  C   UNL     1     112.264 129.211 137.866  0.00  0.00    +0.000 A 
ATOM      6  C   UNL     1     111.122 128.582 138.449  0.00  0.00    +0.000 A 
ATOM      7  C   UNL     1     111.549 127.881 138.531  0.00  0.00    +0.000 A 
ATOM      8  C   UNL     1     112.334 127.846 138.280  0.00  0.00    +0.000 A 
ATOM      9  C   UNL     1     112.423 126.425 138.704  0.00  0.00    +0.000 A 
ATOM     10  C   UNL     1     112.789 127.121 138.359  0.00  0.00    +0.000 A 
ATOM     11  C   UNL     1     111.165 127.195 138.879  0.00  0.00    +0.000 A 
ATOM     12  C   UNL     1     111.605 126.462 138.966  0.00  0.00    +0.000 A 
ENDROOT
BRANCH   5  15
ATOM     13  O   UNL     1     113.932 131.516 138.132  0.00  0.00    +0.000 OA
ATOM     14  O   UNL     1     113.693 131.873 136.539  0.00  0.00    +0.000 OA
ATOM     15  C   UNL     1     112.621 129.877 137.533  0.00  0.00    +0.000 A 
ATOM     16  C   UNL     1     113.098 130.364 137.999  0.00  0.00    +0.000 A 
ATOM     17  C   UNL     1     112.502 130.055 136.737  0.00  0.00    +0.000 A 
ATOM     18  C   UNL     1     113.455 131.029 137.666  0.00  0.00    +0.000 A 
ATOM     19  C   UNL     1     112.859 130.721 136.406  0.00  0.00    +0.000 A 
ATOM     20  C   UNL     1     113.336 131.208 136.870  0.00  0.00    +0.000 A 
ENDBRANCH   5  15
BRANCH   4  21
ATOM     21  O   UNL     1     111.051 129.948 138.036  0.00  0.00    +0.000 OA
BRANCH  21  28
ATOM     22  O   UNL     1     111.078 130.306 139.419  0.00  0.00    +0.000 OA
ATOM     23  O   UNL     1     108.807 131.267 139.215  0.00  0.00    +0.000 OA
ATOM     24  O   UNL     1     109.591 131.304 140.666  0.00  0.00    +0.000 OA
ATOM     25  C   UNL     1     109.929 130.607 138.625  0.00  0.00    +0.000 C 
ATOM     26  C   UNL     1     109.564 130.947 139.283  0.00  0.00    +0.000 C 
ATOM     27  C   UNL     1     109.956 130.965 140.008  0.00  0.00    +0.000 C 
ATOM     28  C   UNL     1     110.686 130.287 138.693  0.00  0.00    +0.000 C 
ATOM     29  C   UNL     1     110.713 130.644 140.076  0.00  0.00    +0.000 C 
BRANCH  29  31
ATOM     30  O   UNL     1     111.840 131.030 140.866  0.00  0.00    +0.000 OA
ATOM     31  C   UNL     1     111.105 130.663 140.803  0.00  0.00    +0.000 C 
ENDBRANCH  29  31
BRANCH  25  32
ATOM     32  O   UNL     1     109.537 130.589 137.900  0.00  0.00    +0.000 OA
BRANCH  32  37
ATOM     33  O   UNL     1     109.990 131.914 137.618  0.00  0.00    +0.000 OA
ATOM     34  O   UNL     1     108.677 130.585 136.491  0.00  0.00    +0.000 OA
ATOM     35  O   UNL     1     108.701 131.908 135.506  0.00  0.00    +0.000 OA
ATOM     36  O   UNL     1     109.584 133.236 135.929  0.00  0.00    +0.000 OA
ATOM     37  C   UNL     1     109.549 131.251 137.407  0.00  0.00    +0.000 C 
ATOM     38  C   UNL     1     109.118 131.248 136.703  0.00  0.00    +0.000 C 
ATOM     39  C   UNL     1     109.130 131.909 136.210  0.00  0.00    +0.000 C 
ATOM     40  C   UNL     1     109.572 132.574 136.421  0.00  0.00    +0.000 C 
ATOM     41  C   UNL     1     110.002 132.576 137.126  0.00  0.00    +0.000 C 
BRANCH  41  43
ATOM     42  O   UNL     1     110.271 133.645 138.035  0.00  0.00    +0.000 OA
ATOM     43  C   UNL     1     110.444 133.240 137.337  0.00  0.00    +0.000 C 
ENDBRANCH  41  43
ENDBRANCH  32  37
ENDBRANCH  25  32
ENDBRANCH  21  28
ENDBRANCH   4  21
BRANCH   9  44
ATOM     44  O   UNL     1     112.853 125.726 138.784  0.00  0.00    +0.000 OA
BRANCH  44  52
ATOM     45  O   UNL     1     112.410 124.943 137.673  0.00  0.00    +0.000 OA
ATOM     46  O   UNL     1     114.762 124.543 137.016  0.00  0.00    +0.000 OA
ATOM     47  O   UNL     1     114.421 125.459 138.346  0.00  0.00    +0.000 OA
ATOM     48  O   UNL     1     113.535 123.894 136.124  0.00  0.00    +0.000 OA
ATOM     49  C   UNL     1     113.978 124.677 137.235  0.00  0.00    +0.000 C 
ATOM     50  C   UNL     1     113.808 125.134 137.900  0.00  0.00    +0.000 C 
ATOM     51  C   UNL     1     113.365 124.352 136.789  0.00  0.00    +0.000 C 
ATOM     52  C   UNL     1     113.023 125.268 138.119  0.00  0.00    +0.000 C 
ATOM     53  C   UNL     1     112.581 124.485 137.008  0.00  0.00    +0.000 C 
BRANCH  53  56
ATOM     54  O   UNL     1     111.710 123.391 136.713  0.00  0.00    +0.000 OA
ATOM     55  O   UNL     1     111.609 124.606 135.967  0.00  0.00    +0.000 OA
ATOM     56  C   UNL     1     111.967 124.161 136.563  0.00  0.00    +0.000 C 
ENDBRANCH  53  56
ENDBRANCH  44  52
ENDBRANCH   9  44
TORSDOF 10
ENDMDL
