MODEL 1
REMARK VINA RESULT:      -9.3      0.000      0.000
REMARK  Name = 78054226
REMARK  5 active torsions:
REMARK  status: ('A' for Active; 'I' for Inactive)
REMARK    1  A    between atoms: O_2  and  C_16
REMARK    2  A    between atoms: O_2  and  C_23
REMARK    3  A    between atoms: O_10  and  C_28
REMARK    4  A    between atoms: C_17  and  C_24
REMARK    5  A    between atoms: C_18  and  C_21
REMARK                            x       y       z     vdW  Elec       q    Type
REMARK                         _______ _______ _______ _____ _____    ______ ____
ROOT
ATOM      1  C   UNL     1     105.247 125.016 147.176  0.00  0.00    +0.000 A 
ATOM      2  C   UNL     1     106.383 125.665 146.599  0.00  0.00    +0.000 A 
ATOM      3  C   UNL     1     105.567 125.545 146.629  0.00  0.00    +0.000 A 
ATOM      4  C   UNL     1     105.742 124.607 147.692  0.00  0.00    +0.000 A 
ATOM      5  C   UNL     1     106.879 125.255 147.117  0.00  0.00    +0.000 A 
ATOM      6  C   UNL     1     106.558 124.726 147.663  0.00  0.00    +0.000 A 
ENDROOT
BRANCH   1  11
ATOM      7  O   UNL     1     104.080 124.324 146.723  0.00  0.00    +0.000 OA
ATOM      8  O   UNL     1     104.315 125.921 148.194  0.00  0.00    +0.000 OA
ATOM      9  O   UNL     1     101.491 124.999 147.811  0.00  0.00    +0.000 OA
ATOM     10  O   UNL     1     101.716 122.904 145.788  0.00  0.00    +0.000 OA
ATOM     11  C   UNL     1     104.431 124.897 147.204  0.00  0.00    +0.000 C 
ATOM     12  C   UNL     1     103.965 125.349 147.713  0.00  0.00    +0.000 C 
ATOM     13  C   UNL     1     103.149 125.230 147.742  0.00  0.00    +0.000 C 
ATOM     14  C   UNL     1     102.799 124.657 147.260  0.00  0.00    +0.000 A 
ATOM     15  C   UNL     1     103.265 124.205 146.751  0.00  0.00    +0.000 A 
ATOM     16  C   UNL     1     101.949 124.542 147.299  0.00  0.00    +0.000 A 
ATOM     17  C   UNL     1     102.913 123.607 146.246  0.00  0.00    +0.000 A 
ATOM     18  C   UNL     1     101.578 123.948 146.801  0.00  0.00    +0.000 A 
ATOM     19  C   UNL     1     102.063 123.477 146.270  0.00  0.00    +0.000 A 
ENDBRANCH   1  11
BRANCH   5  20
ATOM     20  O   UNL     1     107.694 125.375 147.087  0.00  0.00    +0.000 OA
ATOM     21  C   UNL     1     108.167 125.155 147.728  0.00  0.00    +0.000 C 
ENDBRANCH   5  20
BRANCH   2  22
ATOM     22  O   UNL     1     106.702 126.193 146.054  0.00  0.00    +0.000 OA
BRANCH  22  30
ATOM     23  O   UNL     1     106.342 125.567 144.820  0.00  0.00    +0.000 OA
ATOM     24  O   UNL     1     105.528 127.739 143.956  0.00  0.00    +0.000 OA
ATOM     25  O   UNL     1     106.159 127.641 145.478  0.00  0.00    +0.000 OA
ATOM     26  O   UNL     1     105.440 126.389 143.011  0.00  0.00    +0.000 OA
ATOM     27  C   UNL     1     105.799 127.015 144.244  0.00  0.00    +0.000 C 
ATOM     28  C   UNL     1     106.115 126.967 145.005  0.00  0.00    +0.000 C 
ATOM     29  C   UNL     1     105.755 126.341 143.772  0.00  0.00    +0.000 C 
ATOM     30  C   UNL     1     106.387 126.243 145.293  0.00  0.00    +0.000 C 
ATOM     31  C   UNL     1     106.027 125.617 144.060  0.00  0.00    +0.000 C 
BRANCH  31  34
ATOM     32  O   UNL     1     106.628 124.721 143.123  0.00  0.00    +0.000 OA
ATOM     33  O   UNL     1     105.295 124.489 143.579  0.00  0.00    +0.000 OA
ATOM     34  C   UNL     1     105.983 124.942 143.587  0.00  0.00    +0.000 C 
ENDBRANCH  31  34
ENDBRANCH  22  30
ENDBRANCH   2  22
TORSDOF 5
ENDMDL
MODEL 2
REMARK VINA RESULT:      -9.3      1.256      2.168
REMARK  Name = 78054226
REMARK  5 active torsions:
REMARK  status: ('A' for Active; 'I' for Inactive)
REMARK    1  A    between atoms: O_2  and  C_16
REMARK    2  A    between atoms: O_2  and  C_23
REMARK    3  A    between atoms: O_10  and  C_28
REMARK    4  A    between atoms: C_17  and  C_24
REMARK    5  A    between atoms: C_18  and  C_21
REMARK                            x       y       z     vdW  Elec       q    Type
REMARK                         _______ _______ _______ _____ _____    ______ ____
ROOT
ATOM      1  C   UNL     1     105.042 124.818 148.490  0.00  0.00    +0.000 A 
ATOM      2  C   UNL     1     106.300 124.720 147.819  0.00  0.00    +0.000 A 
ATOM      3  C   UNL     1     105.480 124.810 147.792  0.00  0.00    +0.000 A 
ATOM      4  C   UNL     1     105.423 124.737 149.217  0.00  0.00    +0.000 A 
ATOM      5  C   UNL     1     106.681 124.638 148.547  0.00  0.00    +0.000 A 
ATOM      6  C   UNL     1     106.243 124.647 149.246  0.00  0.00    +0.000 A 
ENDROOT
BRANCH   1  11
ATOM      7  O   UNL     1     103.747 124.282 148.206  0.00  0.00    +0.000 OA
ATOM      8  O   UNL     1     104.351 126.247 148.941  0.00  0.00    +0.000 OA
ATOM      9  O   UNL     1     101.394 125.910 148.604  0.00  0.00    +0.000 OA
ATOM     10  O   UNL     1     101.119 123.173 147.623  0.00  0.00    +0.000 OA
ATOM     11  C   UNL     1     104.222 124.908 148.461  0.00  0.00    +0.000 C 
ATOM     12  C   UNL     1     103.877 125.622 148.686  0.00  0.00    +0.000 C 
ATOM     13  C   UNL     1     103.057 125.712 148.657  0.00  0.00    +0.000 C 
ATOM     14  C   UNL     1     102.582 125.086 148.403  0.00  0.00    +0.000 A 
ATOM     15  C   UNL     1     102.928 124.372 148.177  0.00  0.00    +0.000 A 
ATOM     16  C   UNL     1     101.731 125.191 148.376  0.00  0.00    +0.000 A 
ATOM     17  C   UNL     1     102.445 123.713 147.910  0.00  0.00    +0.000 A 
ATOM     18  C   UNL     1     101.231 124.544 148.112  0.00  0.00    +0.000 A 
ATOM     19  C   UNL     1     101.591 123.800 147.878  0.00  0.00    +0.000 A 
ENDBRANCH   1  11
BRANCH   5  20
ATOM     20  O   UNL     1     107.501 124.549 148.575  0.00  0.00    +0.000 OA
ATOM     21  C   UNL     1     107.873 124.383 149.293  0.00  0.00    +0.000 C 
ENDBRANCH   5  20
BRANCH   2  22
ATOM     22  O   UNL     1     106.738 124.712 147.121  0.00  0.00    +0.000 OA
BRANCH  22  30
ATOM     23  O   UNL     1     106.817 126.110 146.834  0.00  0.00    +0.000 OA
ATOM     24  O   UNL     1     106.190 125.662 144.482  0.00  0.00    +0.000 OA
ATOM     25  O   UNL     1     106.320 124.414 145.553  0.00  0.00    +0.000 OA
ATOM     26  O   UNL     1     106.478 127.209 144.979  0.00  0.00    +0.000 OA
ATOM     27  C   UNL     1     106.399 125.811 145.266  0.00  0.00    +0.000 C 
ATOM     28  C   UNL     1     106.464 125.186 145.801  0.00  0.00    +0.000 C 
ATOM     29  C   UNL     1     106.543 126.584 145.515  0.00  0.00    +0.000 C 
ATOM     30  C   UNL     1     106.673 125.336 146.585  0.00  0.00    +0.000 C 
ATOM     31  C   UNL     1     106.752 126.733 146.299  0.00  0.00    +0.000 C 
BRANCH  31  34
ATOM     32  O   UNL     1     106.270 127.983 146.797  0.00  0.00    +0.000 OA
ATOM     33  O   UNL     1     107.665 127.804 146.547  0.00  0.00    +0.000 OA
ATOM     34  C   UNL     1     106.896 127.507 146.548  0.00  0.00    +0.000 C 
ENDBRANCH  31  34
ENDBRANCH  22  30
ENDBRANCH   2  22
TORSDOF 5
ENDMDL
MODEL 3
REMARK VINA RESULT:      -9.2     11.900     13.325
REMARK  Name = 78054226
REMARK  5 active torsions:
REMARK  status: ('A' for Active; 'I' for Inactive)
REMARK    1  A    between atoms: O_2  and  C_16
REMARK    2  A    between atoms: O_2  and  C_23
REMARK    3  A    between atoms: O_10  and  C_28
REMARK    4  A    between atoms: C_17  and  C_24
REMARK    5  A    between atoms: C_18  and  C_21
REMARK                            x       y       z     vdW  Elec       q    Type
REMARK                         _______ _______ _______ _____ _____    ______ ____
ROOT
ATOM      1  C   UNL     1     113.804 128.580 136.048  0.00  0.00    +0.000 A 
ATOM      2  C   UNL     1     114.132 129.875 136.554  0.00  0.00    +0.000 A 
ATOM      3  C   UNL     1     113.823 129.119 136.671  0.00  0.00    +0.000 A 
ATOM      4  C   UNL     1     114.092 128.797 135.306  0.00  0.00    +0.000 A 
ATOM      5  C   UNL     1     114.420 130.092 135.812  0.00  0.00    +0.000 A 
ATOM      6  C   UNL     1     114.401 129.553 135.188  0.00  0.00    +0.000 A 
ENDROOT
BRANCH   1  11
ATOM      7  O   UNL     1     113.964 127.236 136.507  0.00  0.00    +0.000 OA
ATOM      8  O   UNL     1     112.251 128.243 135.604  0.00  0.00    +0.000 OA
ATOM      9  O   UNL     1     111.770 125.368 136.298  0.00  0.00    +0.000 OA
ATOM     10  O   UNL     1     114.310 124.502 137.449  0.00  0.00    +0.000 OA
ATOM     11  C   UNL     1     113.495 127.824 136.166  0.00  0.00    +0.000 C 
ATOM     12  C   UNL     1     112.719 127.655 135.944  0.00  0.00    +0.000 C 
ATOM     13  C   UNL     1     112.410 126.899 136.063  0.00  0.00    +0.000 C 
ATOM     14  C   UNL     1     112.879 126.311 136.404  0.00  0.00    +0.000 A 
ATOM     15  C   UNL     1     113.656 126.480 136.626  0.00  0.00    +0.000 A 
ATOM     16  C   UNL     1     112.548 125.528 136.523  0.00  0.00    +0.000 A 
ATOM     17  C   UNL     1     114.154 125.877 136.982  0.00  0.00    +0.000 A 
ATOM     18  C   UNL     1     113.030 124.912 136.877  0.00  0.00    +0.000 A 
ATOM     19  C   UNL     1     113.839 125.087 137.108  0.00  0.00    +0.000 A 
ENDBRANCH   1  11
BRANCH   5  20
ATOM     20  O   UNL     1     114.729 130.848 135.694  0.00  0.00    +0.000 OA
ATOM     21  C   UNL     1     115.263 130.985 135.080  0.00  0.00    +0.000 C 
ENDBRANCH   5  20
BRANCH   2  22
ATOM     22  O   UNL     1     114.151 130.414 137.177  0.00  0.00    +0.000 OA
BRANCH  22  30
ATOM     23  O   UNL     1     112.806 130.897 137.174  0.00  0.00    +0.000 OA
ATOM     24  O   UNL     1     112.682 130.569 139.624  0.00  0.00    +0.000 OA
ATOM     25  O   UNL     1     114.068 130.196 138.811  0.00  0.00    +0.000 OA
ATOM     26  O   UNL     1     111.378 131.161 138.803  0.00  0.00    +0.000 OA
ATOM     27  C   UNL     1     112.723 130.678 138.807  0.00  0.00    +0.000 C 
ATOM     28  C   UNL     1     113.417 130.491 138.401  0.00  0.00    +0.000 C 
ATOM     29  C   UNL     1     112.072 130.974 138.397  0.00  0.00    +0.000 C 
ATOM     30  C   UNL     1     113.459 130.601 137.584  0.00  0.00    +0.000 C 
ATOM     31  C   UNL     1     112.113 131.083 137.580  0.00  0.00    +0.000 C 
BRANCH  31  34
ATOM     32  O   UNL     1     111.415 132.184 136.996  0.00  0.00    +0.000 OA
ATOM     33  O   UNL     1     110.857 130.871 136.934  0.00  0.00    +0.000 OA
ATOM     34  C   UNL     1     111.461 131.379 137.170  0.00  0.00    +0.000 C 
ENDBRANCH  31  34
ENDBRANCH  22  30
ENDBRANCH   2  22
TORSDOF 5
ENDMDL
MODEL 4
REMARK VINA RESULT:      -9.2      9.165     12.355
REMARK  Name = 78054226
REMARK  5 active torsions:
REMARK  status: ('A' for Active; 'I' for Inactive)
REMARK    1  A    between atoms: O_2  and  C_16
REMARK    2  A    between atoms: O_2  and  C_23
REMARK    3  A    between atoms: O_10  and  C_28
REMARK    4  A    between atoms: C_17  and  C_24
REMARK    5  A    between atoms: C_18  and  C_21
REMARK                            x       y       z     vdW  Elec       q    Type
REMARK                         _______ _______ _______ _____ _____    ______ ____
ROOT
ATOM      1  C   UNL     1     113.107 127.172 136.771  0.00  0.00    +0.000 A 
ATOM      2  C   UNL     1     112.203 126.081 136.581  0.00  0.00    +0.000 A 
ATOM      3  C   UNL     1     112.338 126.890 136.669  0.00  0.00    +0.000 A 
ATOM      4  C   UNL     1     113.740 126.645 136.784  0.00  0.00    +0.000 A 
ATOM      5  C   UNL     1     112.838 125.554 136.594  0.00  0.00    +0.000 A 
ATOM      6  C   UNL     1     113.607 125.835 136.696  0.00  0.00    +0.000 A 
ENDROOT
BRANCH   1  11
ATOM      7  O   UNL     1     113.163 128.334 137.602  0.00  0.00    +0.000 OA
ATOM      8  O   UNL     1     113.529 128.087 135.465  0.00  0.00    +0.000 OA
ATOM      9  O   UNL     1     113.860 130.893 136.459  0.00  0.00    +0.000 OA
ATOM     10  O   UNL     1     113.272 130.689 139.312  0.00  0.00    +0.000 OA
ATOM     11  C   UNL     1     113.241 127.981 136.859  0.00  0.00    +0.000 C 
ATOM     12  C   UNL     1     113.452 128.439 136.207  0.00  0.00    +0.000 C 
ATOM     13  C   UNL     1     113.585 129.248 136.295  0.00  0.00    +0.000 C 
ATOM     14  C   UNL     1     113.508 129.600 137.038  0.00  0.00    +0.000 A 
ATOM     15  C   UNL     1     113.296 129.142 137.691  0.00  0.00    +0.000 A 
ATOM     16  C   UNL     1     113.649 130.443 137.118  0.00  0.00    +0.000 A 
ATOM     17  C   UNL     1     113.212 129.497 138.469  0.00  0.00    +0.000 A 
ATOM     18  C   UNL     1     113.570 130.816 137.888  0.00  0.00    +0.000 A 
ATOM     19  C   UNL     1     113.350 130.340 138.569  0.00  0.00    +0.000 A 
ENDBRANCH   1  11
BRANCH   5  20
ATOM     20  O   UNL     1     112.703 124.745 136.506  0.00  0.00    +0.000 OA
ATOM     21  C   UNL     1     113.341 124.221 136.474  0.00  0.00    +0.000 C 
ENDBRANCH   5  20
BRANCH   2  22
ATOM     22  O   UNL     1     111.435 125.800 136.479  0.00  0.00    +0.000 OA
BRANCH  22  30
ATOM     23  O   UNL     1     110.977 125.913 137.828  0.00  0.00    +0.000 OA
ATOM     24  O   UNL     1     108.815 126.804 137.020  0.00  0.00    +0.000 OA
ATOM     25  O   UNL     1     109.993 126.394 135.940  0.00  0.00    +0.000 OA
ATOM     26  O   UNL     1     109.078 126.620 138.638  0.00  0.00    +0.000 OA
ATOM     27  C   UNL     1     109.536 126.507 137.289  0.00  0.00    +0.000 C 
ATOM     28  C   UNL     1     110.125 126.302 136.749  0.00  0.00    +0.000 C 
ATOM     29  C   UNL     1     109.667 126.415 138.098  0.00  0.00    +0.000 C 
ATOM     30  C   UNL     1     110.845 126.005 137.018  0.00  0.00    +0.000 C 
ATOM     31  C   UNL     1     110.388 126.118 138.367  0.00  0.00    +0.000 C 
BRANCH  31  34
ATOM     32  O   UNL     1     110.399 125.291 139.533  0.00  0.00    +0.000 OA
ATOM     33  O   UNL     1     110.771 126.667 139.630  0.00  0.00    +0.000 OA
ATOM     34  C   UNL     1     110.519 126.025 139.177  0.00  0.00    +0.000 C 
ENDBRANCH  31  34
ENDBRANCH  22  30
ENDBRANCH   2  22
TORSDOF 5
ENDMDL
MODEL 5
REMARK VINA RESULT:      -9.1     11.481     12.822
REMARK  Name = 78054226
REMARK  5 active torsions:
REMARK  status: ('A' for Active; 'I' for Inactive)
REMARK    1  A    between atoms: O_2  and  C_16
REMARK    2  A    between atoms: O_2  and  C_23
REMARK    3  A    between atoms: O_10  and  C_28
REMARK    4  A    between atoms: C_17  and  C_24
REMARK    5  A    between atoms: C_18  and  C_21
REMARK                            x       y       z     vdW  Elec       q    Type
REMARK                         _______ _______ _______ _____ _____    ______ ____
ROOT
ATOM      1  C   UNL     1     113.027 128.323 135.958  0.00  0.00    +0.000 A 
ATOM      2  C   UNL     1     113.150 129.736 136.133  0.00  0.00    +0.000 A 
ATOM      3  C   UNL     1     112.707 129.043 136.202  0.00  0.00    +0.000 A 
ATOM      4  C   UNL     1     113.789 128.295 135.645  0.00  0.00    +0.000 A 
ATOM      5  C   UNL     1     113.913 129.708 135.820  0.00  0.00    +0.000 A 
ATOM      6  C   UNL     1     114.233 128.987 135.577  0.00  0.00    +0.000 A 
ENDROOT
BRANCH   1  11
ATOM      7  O   UNL     1     111.945 127.498 135.520  0.00  0.00    +0.000 OA
ATOM      8  O   UNL     1     113.413 127.205 137.108  0.00  0.00    +0.000 OA
ATOM      9  O   UNL     1     111.440 124.969 136.822  0.00  0.00    +0.000 OA
ATOM     10  O   UNL     1     109.735 125.831 134.613  0.00  0.00    +0.000 OA
ATOM     11  C   UNL     1     112.583 127.631 136.027  0.00  0.00    +0.000 C 
ATOM     12  C   UNL     1     112.776 127.072 136.601  0.00  0.00    +0.000 C 
ATOM     13  C   UNL     1     112.332 126.380 136.670  0.00  0.00    +0.000 C 
ATOM     14  C   UNL     1     111.694 126.247 136.163  0.00  0.00    +0.000 A 
ATOM     15  C   UNL     1     111.501 126.807 135.588  0.00  0.00    +0.000 A 
ATOM     16  C   UNL     1     111.239 125.523 136.244  0.00  0.00    +0.000 A 
ATOM     17  C   UNL     1     110.839 126.680 135.055  0.00  0.00    +0.000 A 
ATOM     18  C   UNL     1     110.574 125.379 135.720  0.00  0.00    +0.000 A 
ATOM     19  C   UNL     1     110.372 125.961 135.121  0.00  0.00    +0.000 A 
ENDBRANCH   1  11
BRANCH   5  20
ATOM     20  O   UNL     1     114.356 130.400 135.752  0.00  0.00    +0.000 OA
ATOM     21  C   UNL     1     115.050 130.403 135.305  0.00  0.00    +0.000 C 
ENDBRANCH   5  20
BRANCH   2  22
ATOM     22  O   UNL     1     112.830 130.455 136.377  0.00  0.00    +0.000 OA
BRANCH  22  30
ATOM     23  O   UNL     1     113.027 130.338 137.787  0.00  0.00    +0.000 OA
ATOM     24  O   UNL     1     110.743 131.210 138.178  0.00  0.00    +0.000 OA
ATOM     25  O   UNL     1     111.308 131.037 136.637  0.00  0.00    +0.000 OA
ATOM     26  O   UNL     1     111.701 130.802 139.458  0.00  0.00    +0.000 OA
ATOM     27  C   UNL     1     111.504 130.919 138.048  0.00  0.00    +0.000 C 
ATOM     28  C   UNL     1     111.786 130.833 137.277  0.00  0.00    +0.000 C 
ATOM     29  C   UNL     1     111.983 130.715 138.687  0.00  0.00    +0.000 C 
ATOM     30  C   UNL     1     112.547 130.542 137.147  0.00  0.00    +0.000 C 
ATOM     31  C   UNL     1     112.744 130.425 138.557  0.00  0.00    +0.000 C 
BRANCH  31  34
ATOM     32  O   UNL     1     113.770 130.763 139.493  0.00  0.00    +0.000 OA
ATOM     33  O   UNL     1     113.155 129.475 139.542  0.00  0.00    +0.000 OA
ATOM     34  C   UNL     1     113.223 130.220 139.198  0.00  0.00    +0.000 C 
ENDBRANCH  31  34
ENDBRANCH  22  30
ENDBRANCH   2  22
TORSDOF 5
ENDMDL
MODEL 6
REMARK VINA RESULT:      -9.0      9.669     12.113
REMARK  Name = 78054226
REMARK  5 active torsions:
REMARK  status: ('A' for Active; 'I' for Inactive)
REMARK    1  A    between atoms: O_2  and  C_16
REMARK    2  A    between atoms: O_2  and  C_23
REMARK    3  A    between atoms: O_10  and  C_28
REMARK    4  A    between atoms: C_17  and  C_24
REMARK    5  A    between atoms: C_18  and  C_21
REMARK                            x       y       z     vdW  Elec       q    Type
REMARK                         _______ _______ _______ _____ _____    ______ ____
ROOT
ATOM      1  C   UNL     1     111.121 127.025 135.907  0.00  0.00    +0.000 A 
ATOM      2  C   UNL     1     110.414 128.190 136.337  0.00  0.00    +0.000 A 
ATOM      3  C   UNL     1     110.755 127.458 136.506  0.00  0.00    +0.000 A 
ATOM      4  C   UNL     1     111.145 127.323 135.139  0.00  0.00    +0.000 A 
ATOM      5  C   UNL     1     110.438 128.488 135.567  0.00  0.00    +0.000 A 
ATOM      6  C   UNL     1     110.804 128.054 134.968  0.00  0.00    +0.000 A 
ENDROOT
BRANCH   1  11
ATOM      7  O   UNL     1     112.247 126.253 136.332  0.00  0.00    +0.000 OA
ATOM      8  O   UNL     1     110.237 125.642 135.741  0.00  0.00    +0.000 OA
ATOM      9  O   UNL     1     112.042 123.377 136.509  0.00  0.00    +0.000 OA
ATOM     10  O   UNL     1     114.553 124.699 137.199  0.00  0.00    +0.000 OA
ATOM     11  C   UNL     1     111.462 126.293 136.078  0.00  0.00    +0.000 C 
ATOM     12  C   UNL     1     111.021 125.602 135.995  0.00  0.00    +0.000 C 
ATOM     13  C   UNL     1     111.362 124.870 136.166  0.00  0.00    +0.000 C 
ATOM     14  C   UNL     1     112.147 124.831 136.420  0.00  0.00    +0.000 A 
ATOM     15  C   UNL     1     112.589 125.523 136.502  0.00  0.00    +0.000 A 
ATOM     16  C   UNL     1     112.492 124.064 136.594  0.00  0.00    +0.000 A 
ATOM     17  C   UNL     1     113.406 125.495 136.766  0.00  0.00    +0.000 A 
ATOM     18  C   UNL     1     113.307 124.016 136.859  0.00  0.00    +0.000 A 
ATOM     19  C   UNL     1     113.768 124.736 136.945  0.00  0.00    +0.000 A 
ENDBRANCH   1  11
BRANCH   5  20
ATOM     20  O   UNL     1     110.097 129.219 135.398  0.00  0.00    +0.000 OA
ATOM     21  C   UNL     1     109.975 129.446 134.613  0.00  0.00    +0.000 C 
ENDBRANCH   5  20
BRANCH   2  22
ATOM     22  O   UNL     1     110.048 128.623 136.935  0.00  0.00    +0.000 OA
BRANCH  22  30
ATOM     23  O   UNL     1     111.209 129.084 137.629  0.00  0.00    +0.000 OA
ATOM     24  O   UNL     1     110.120 128.571 139.791  0.00  0.00    +0.000 OA
ATOM     25  O   UNL     1     109.322 128.281 138.376  0.00  0.00    +0.000 OA
ATOM     26  O   UNL     1     111.644 129.202 139.764  0.00  0.00    +0.000 OA
ATOM     27  C   UNL     1     110.483 128.742 139.070  0.00  0.00    +0.000 C 
ATOM     28  C   UNL     1     110.084 128.597 138.363  0.00  0.00    +0.000 C 
ATOM     29  C   UNL     1     111.245 129.057 139.057  0.00  0.00    +0.000 C 
ATOM     30  C   UNL     1     110.447 128.768 137.642  0.00  0.00    +0.000 C 
ATOM     31  C   UNL     1     111.608 129.228 138.336  0.00  0.00    +0.000 C 
BRANCH  31  34
ATOM     32  O   UNL     1     112.477 130.360 138.268  0.00  0.00    +0.000 OA
ATOM     33  O   UNL     1     113.024 129.045 138.365  0.00  0.00    +0.000 OA
ATOM     34  C   UNL     1     112.370 129.544 138.323  0.00  0.00    +0.000 C 
ENDBRANCH  31  34
ENDBRANCH  22  30
ENDBRANCH   2  22
TORSDOF 5
ENDMDL
MODEL 7
REMARK VINA RESULT:      -8.9      9.994     11.751
REMARK  Name = 78054226
REMARK  5 active torsions:
REMARK  status: ('A' for Active; 'I' for Inactive)
REMARK    1  A    between atoms: O_2  and  C_16
REMARK    2  A    between atoms: O_2  and  C_23
REMARK    3  A    between atoms: O_10  and  C_28
REMARK    4  A    between atoms: C_17  and  C_24
REMARK    5  A    between atoms: C_18  and  C_21
REMARK                            x       y       z     vdW  Elec       q    Type
REMARK                         _______ _______ _______ _____ _____    ______ ____
ROOT
ATOM      1  C   UNL     1     111.577 127.639 138.021  0.00  0.00    +0.000 A 
ATOM      2  C   UNL     1     111.957 126.411 138.647  0.00  0.00    +0.000 A 
ATOM      3  C   UNL     1     111.627 126.816 138.008  0.00  0.00    +0.000 A 
ATOM      4  C   UNL     1     111.856 128.058 138.674  0.00  0.00    +0.000 A 
ATOM      5  C   UNL     1     112.236 126.831 139.301  0.00  0.00    +0.000 A 
ATOM      6  C   UNL     1     112.186 127.655 139.314  0.00  0.00    +0.000 A 
ENDROOT
BRANCH   1  11
ATOM      7  O   UNL     1     110.429 128.046 137.273  0.00  0.00    +0.000 OA
ATOM      8  O   UNL     1     112.553 128.438 136.958  0.00  0.00    +0.000 OA
ATOM      9  O   UNL     1     110.751 129.668 134.905  0.00  0.00    +0.000 OA
ATOM     10  O   UNL     1     108.078 128.864 135.762  0.00  0.00    +0.000 OA
ATOM     11  C   UNL     1     111.248 128.042 137.381  0.00  0.00    +0.000 C 
ATOM     12  C   UNL     1     111.735 128.442 136.850  0.00  0.00    +0.000 C 
ATOM     13  C   UNL     1     111.406 128.845 136.210  0.00  0.00    +0.000 C 
ATOM     14  C   UNL     1     110.587 128.848 136.102  0.00  0.00    +0.000 A 
ATOM     15  C   UNL     1     110.099 128.448 136.634  0.00  0.00    +0.000 A 
ATOM     16  C   UNL     1     110.255 129.271 135.432  0.00  0.00    +0.000 A 
ATOM     17  C   UNL     1     109.246 128.445 136.532  0.00  0.00    +0.000 A 
ATOM     18  C   UNL     1     109.404 129.279 135.314  0.00  0.00    +0.000 A 
ATOM     19  C   UNL     1     108.896 128.863 135.868  0.00  0.00    +0.000 A 
ENDBRANCH   1  11
BRANCH   5  20
ATOM     20  O   UNL     1     112.565 126.427 139.940  0.00  0.00    +0.000 OA
ATOM     21  C   UNL     1     112.699 126.822 140.653  0.00  0.00    +0.000 C 
ENDBRANCH   5  20
BRANCH   2  22
ATOM     22  O   UNL     1     112.007 125.589 138.633  0.00  0.00    +0.000 OA
BRANCH  22  30
ATOM     23  O   UNL     1     113.174 125.393 137.833  0.00  0.00    +0.000 OA
ATOM     24  O   UNL     1     111.967 123.701 136.488  0.00  0.00    +0.000 OA
ATOM     25  O   UNL     1     111.202 124.461 137.737  0.00  0.00    +0.000 OA
ATOM     26  O   UNL     1     113.537 124.069 136.135  0.00  0.00    +0.000 OA
ATOM     27  C   UNL     1     112.369 124.265 136.936  0.00  0.00    +0.000 C 
ATOM     28  C   UNL     1     111.986 124.645 137.561  0.00  0.00    +0.000 C 
ATOM     29  C   UNL     1     113.153 124.449 136.760  0.00  0.00    +0.000 C 
ATOM     30  C   UNL     1     112.388 125.209 138.009  0.00  0.00    +0.000 C 
ATOM     31  C   UNL     1     113.556 125.013 137.208  0.00  0.00    +0.000 C 
BRANCH  31  34
ATOM     32  O   UNL     1     114.953 124.817 137.433  0.00  0.00    +0.000 OA
ATOM     33  O   UNL     1     114.513 125.760 136.455  0.00  0.00    +0.000 OA
ATOM     34  C   UNL     1     114.341 125.197 137.032  0.00  0.00    +0.000 C 
ENDBRANCH  31  34
ENDBRANCH  22  30
ENDBRANCH   2  22
TORSDOF 5
ENDMDL
MODEL 8
REMARK VINA RESULT:      -8.9      9.400     11.618
REMARK  Name = 78054226
REMARK  5 active torsions:
REMARK  status: ('A' for Active; 'I' for Inactive)
REMARK    1  A    between atoms: O_2  and  C_16
REMARK    2  A    between atoms: O_2  and  C_23
REMARK    3  A    between atoms: O_10  and  C_28
REMARK    4  A    between atoms: C_17  and  C_24
REMARK    5  A    between atoms: C_18  and  C_21
REMARK                            x       y       z     vdW  Elec       q    Type
REMARK                         _______ _______ _______ _____ _____    ______ ____
ROOT
ATOM      1  C   UNL     1     111.377 126.923 138.197  0.00  0.00    +0.000 A 
ATOM      2  C   UNL     1     110.986 128.292 138.066  0.00  0.00    +0.000 A 
ATOM      3  C   UNL     1     111.346 127.619 137.754  0.00  0.00    +0.000 A 
ATOM      4  C   UNL     1     111.046 126.901 138.952  0.00  0.00    +0.000 A 
ATOM      5  C   UNL     1     110.655 128.269 138.823  0.00  0.00    +0.000 A 
ATOM      6  C   UNL     1     110.686 127.574 139.266  0.00  0.00    +0.000 A 
ENDROOT
BRANCH   1  11
ATOM      7  O   UNL     1     112.561 126.190 137.878  0.00  0.00    +0.000 OA
ATOM      8  O   UNL     1     110.454 125.701 137.583  0.00  0.00    +0.000 OA
ATOM      9  O   UNL     1     112.357 123.595 136.624  0.00  0.00    +0.000 OA
ATOM     10  O   UNL     1     114.986 124.709 137.236  0.00  0.00    +0.000 OA
ATOM     11  C   UNL     1     111.738 126.251 137.884  0.00  0.00    +0.000 C 
ATOM     12  C   UNL     1     111.277 125.640 137.577  0.00  0.00    +0.000 C 
ATOM     13  C   UNL     1     111.638 124.967 137.264  0.00  0.00    +0.000 C 
ATOM     14  C   UNL     1     112.462 124.906 137.258  0.00  0.00    +0.000 A 
ATOM     15  C   UNL     1     112.922 125.518 137.566  0.00  0.00    +0.000 A 
ATOM     16  C   UNL     1     112.826 124.202 136.930  0.00  0.00    +0.000 A 
ATOM     17  C   UNL     1     113.780 125.466 137.565  0.00  0.00    +0.000 A 
ATOM     18  C   UNL     1     113.682 124.132 136.921  0.00  0.00    +0.000 A 
ATOM     19  C   UNL     1     114.163 124.768 137.241  0.00  0.00    +0.000 A 
ENDBRANCH   1  11
BRANCH   5  20
ATOM     20  O   UNL     1     110.295 128.942 139.135  0.00  0.00    +0.000 OA
ATOM     21  C   UNL     1     110.103 128.973 139.937  0.00  0.00    +0.000 C 
ENDBRANCH   5  20
BRANCH   2  22
ATOM     22  O   UNL     1     110.955 128.986 137.624  0.00  0.00    +0.000 OA
BRANCH  22  30
ATOM     23  O   UNL     1     109.842 128.719 136.769  0.00  0.00    +0.000 OA
ATOM     24  O   UNL     1     111.155 129.493 134.818  0.00  0.00    +0.000 OA
ATOM     25  O   UNL     1     111.830 129.502 136.323  0.00  0.00    +0.000 OA
ATOM     26  O   UNL     1     109.604 128.968 134.613  0.00  0.00    +0.000 OA
ATOM     27  C   UNL     1     110.717 129.235 135.468  0.00  0.00    +0.000 C 
ATOM     28  C   UNL     1     111.056 129.240 136.221  0.00  0.00    +0.000 C 
ATOM     29  C   UNL     1     109.942 128.973 135.366  0.00  0.00    +0.000 C 
ATOM     30  C   UNL     1     110.618 128.982 136.871  0.00  0.00    +0.000 C 
ATOM     31  C   UNL     1     109.505 128.715 136.016  0.00  0.00    +0.000 C 
BRANCH  31  34
ATOM     32  O   UNL     1     108.102 128.985 135.973  0.00  0.00    +0.000 OA
ATOM     33  O   UNL     1     108.580 127.658 135.752  0.00  0.00    +0.000 OA
ATOM     34  C   UNL     1     108.729 128.452 135.914  0.00  0.00    +0.000 C 
ENDBRANCH  31  34
ENDBRANCH  22  30
ENDBRANCH   2  22
TORSDOF 5
ENDMDL
MODEL 9
REMARK VINA RESULT:      -8.9      1.597      4.417
REMARK  Name = 78054226
REMARK  5 active torsions:
REMARK  status: ('A' for Active; 'I' for Inactive)
REMARK    1  A    between atoms: O_2  and  C_16
REMARK    2  A    between atoms: O_2  and  C_23
REMARK    3  A    between atoms: O_10  and  C_28
REMARK    4  A    between atoms: C_17  and  C_24
REMARK    5  A    between atoms: C_18  and  C_21
REMARK                            x       y       z     vdW  Elec       q    Type
REMARK                         _______ _______ _______ _____ _____    ______ ____
ROOT
ATOM      1  C   UNL     1     106.564 126.153 147.361  0.00  0.00    +0.000 A 
ATOM      2  C   UNL     1     105.868 125.119 148.059  0.00  0.00    +0.000 A 
ATOM      3  C   UNL     1     105.856 125.796 147.588  0.00  0.00    +0.000 A 
ATOM      4  C   UNL     1     107.284 125.834 147.606  0.00  0.00    +0.000 A 
ATOM      5  C   UNL     1     106.588 124.799 148.304  0.00  0.00    +0.000 A 
ATOM      6  C   UNL     1     107.297 125.157 148.077  0.00  0.00    +0.000 A 
ENDROOT
BRANCH   1  11
ATOM      7  O   UNL     1     106.296 127.549 147.207  0.00  0.00    +0.000 OA
ATOM      8  O   UNL     1     107.050 126.073 145.786  0.00  0.00    +0.000 OA
ATOM      9  O   UNL     1     106.761 128.835 144.662  0.00  0.00    +0.000 OA
ATOM     10  O   UNL     1     105.742 130.393 146.913  0.00  0.00    +0.000 OA
ATOM     11  C   UNL     1     106.552 126.830 146.890  0.00  0.00    +0.000 C 
ATOM     12  C   UNL     1     106.794 126.791 146.103  0.00  0.00    +0.000 C 
ATOM     13  C   UNL     1     106.781 127.468 145.632  0.00  0.00    +0.000 C 
ATOM     14  C   UNL     1     106.525 128.186 145.949  0.00  0.00    +0.000 A 
ATOM     15  C   UNL     1     106.283 128.226 146.737  0.00  0.00    +0.000 A 
ATOM     16  C   UNL     1     106.516 128.884 145.449  0.00  0.00    +0.000 A 
ATOM     17  C   UNL     1     106.014 128.967 147.078  0.00  0.00    +0.000 A 
ATOM     18  C   UNL     1     106.251 129.635 145.773  0.00  0.00    +0.000 A 
ATOM     19  C   UNL     1     105.998 129.677 146.593  0.00  0.00    +0.000 A 
ENDBRANCH   1  11
BRANCH   5  20
ATOM     20  O   UNL     1     106.600 124.122 148.775  0.00  0.00    +0.000 OA
ATOM     21  C   UNL     1     107.221 123.999 149.305  0.00  0.00    +0.000 C 
ENDBRANCH   5  20
BRANCH   2  22
ATOM     22  O   UNL     1     105.160 124.761 148.285  0.00  0.00    +0.000 OA
BRANCH  22  30
ATOM     23  O   UNL     1     104.746 124.217 147.031  0.00  0.00    +0.000 OA
ATOM     24  O   UNL     1     102.444 125.032 147.437  0.00  0.00    +0.000 OA
ATOM     25  O   UNL     1     103.626 125.305 148.556  0.00  0.00    +0.000 OA
ATOM     26  O   UNL     1     102.797 124.215 146.048  0.00  0.00    +0.000 OA
ATOM     27  C   UNL     1     103.212 124.760 147.302  0.00  0.00    +0.000 C 
ATOM     28  C   UNL     1     103.802 124.897 147.862  0.00  0.00    +0.000 C 
ATOM     29  C   UNL     1     103.387 124.352 146.608  0.00  0.00    +0.000 C 
ATOM     30  C   UNL     1     104.569 124.625 147.726  0.00  0.00    +0.000 C 
ATOM     31  C   UNL     1     104.155 124.080 146.472  0.00  0.00    +0.000 C 
BRANCH  31  34
ATOM     32  O   UNL     1     104.475 124.088 145.079  0.00  0.00    +0.000 OA
ATOM     33  O   UNL     1     104.364 122.848 145.779  0.00  0.00    +0.000 OA
ATOM     34  C   UNL     1     104.331 123.672 145.777  0.00  0.00    +0.000 C 
ENDBRANCH  31  34
ENDBRANCH  22  30
ENDBRANCH   2  22
TORSDOF 5
ENDMDL
MODEL 10
REMARK VINA RESULT:      -8.9      8.171     11.333
REMARK  Name = 78054226
REMARK  5 active torsions:
REMARK  status: ('A' for Active; 'I' for Inactive)
REMARK    1  A    between atoms: O_2  and  C_16
REMARK    2  A    between atoms: O_2  and  C_23
REMARK    3  A    between atoms: O_10  and  C_28
REMARK    4  A    between atoms: C_17  and  C_24
REMARK    5  A    between atoms: C_18  and  C_21
REMARK                            x       y       z     vdW  Elec       q    Type
REMARK                         _______ _______ _______ _____ _____    ______ ____
ROOT
ATOM      1  C   UNL     1     111.086 126.272 136.391  0.00  0.00    +0.000 A 
ATOM      2  C   UNL     1     111.683 125.516 137.447  0.00  0.00    +0.000 A 
ATOM      3  C   UNL     1     111.423 126.238 137.143  0.00  0.00    +0.000 A 
ATOM      4  C   UNL     1     111.009 125.584 135.942  0.00  0.00    +0.000 A 
ATOM      5  C   UNL     1     111.605 124.828 136.998  0.00  0.00    +0.000 A 
ATOM      6  C   UNL     1     111.269 124.862 136.245  0.00  0.00    +0.000 A 
ENDROOT
BRANCH   1  11
ATOM      7  O   UNL     1     110.051 127.243 136.223  0.00  0.00    +0.000 OA
ATOM      8  O   UNL     1     112.116 127.218 135.515  0.00  0.00    +0.000 OA
ATOM      9  O   UNL     1     110.568 129.659 134.725  0.00  0.00    +0.000 OA
ATOM     10  O   UNL     1     107.929 129.210 135.891  0.00  0.00    +0.000 OA
ATOM     11  C   UNL     1     110.826 126.994 136.087  0.00  0.00    +0.000 C 
ATOM     12  C   UNL     1     111.341 127.467 135.650  0.00  0.00    +0.000 C 
ATOM     13  C   UNL     1     111.081 128.189 135.347  0.00  0.00    +0.000 C 
ATOM     14  C   UNL     1     110.305 128.438 135.482  0.00  0.00    +0.000 A 
ATOM     15  C   UNL     1     109.791 127.964 135.920  0.00  0.00    +0.000 A 
ATOM     16  C   UNL     1     110.046 129.192 135.162  0.00  0.00    +0.000 A 
ATOM     17  C   UNL     1     108.982 128.213 136.067  0.00  0.00    +0.000 A 
ATOM     18  C   UNL     1     109.241 129.457 135.299  0.00  0.00    +0.000 A 
ATOM     19  C   UNL     1     108.704 128.964 135.755  0.00  0.00    +0.000 A 
ENDBRANCH   1  11
BRANCH   5  20
ATOM     20  O   UNL     1     111.865 124.107 137.302  0.00  0.00    +0.000 OA
ATOM     21  C   UNL     1     112.020 123.476 136.792  0.00  0.00    +0.000 C 
ENDBRANCH   5  20
BRANCH   2  22
ATOM     22  O   UNL     1     112.019 125.483 138.199  0.00  0.00    +0.000 OA
BRANCH  22  30
ATOM     23  O   UNL     1     110.852 125.687 138.998  0.00  0.00    +0.000 OA
ATOM     24  O   UNL     1     112.104 127.277 140.421  0.00  0.00    +0.000 OA
ATOM     25  O   UNL     1     112.854 126.543 139.148  0.00  0.00    +0.000 OA
ATOM     26  O   UNL     1     110.520 126.951 140.746  0.00  0.00    +0.000 OA
ATOM     27  C   UNL     1     111.687 126.747 139.947  0.00  0.00    +0.000 C 
ATOM     28  C   UNL     1     112.062 126.380 139.310  0.00  0.00    +0.000 C 
ATOM     29  C   UNL     1     110.895 126.584 140.109  0.00  0.00    +0.000 C 
ATOM     30  C   UNL     1     111.645 125.850 138.835  0.00  0.00    +0.000 C 
ATOM     31  C   UNL     1     110.477 126.054 139.634  0.00  0.00    +0.000 C 
BRANCH  31  34
ATOM     32  O   UNL     1     109.487 125.264 140.295  0.00  0.00    +0.000 OA
ATOM     33  O   UNL     1     109.091 126.354 139.461  0.00  0.00    +0.000 OA
ATOM     34  C   UNL     1     109.684 125.891 139.797  0.00  0.00    +0.000 C 
ENDBRANCH  31  34
ENDBRANCH  22  30
ENDBRANCH   2  22
TORSDOF 5
ENDMDL
