MODEL 1
REMARK VINA RESULT:      -9.7      0.000      0.000
REMARK  Name = 44257914
REMARK  5 active torsions:
REMARK  status: ('A' for Active; 'I' for Inactive)
REMARK    1  A    between atoms: O_2  and  C_13
REMARK    2  A    between atoms: O_2  and  C_25
REMARK    3  A    between atoms: C_15  and  C_18
REMARK    4  A    between atoms: C_17  and  C_19
REMARK    5  A    between atoms: C_28  and  C_30
REMARK                            x       y       z     vdW  Elec       q    Type
REMARK                         _______ _______ _______ _____ _____    ______ ____
ROOT
ATOM      1  O   UNL     1     105.927 124.329 141.655  0.00  0.00    +0.000 OA
ATOM      2  O   UNL     1     105.321 127.038 140.973  0.00  0.00    +0.000 OA
ATOM      3  O   UNL     1     104.304 124.903 139.327  0.00  0.00    +0.000 OA
ATOM      4  O   UNL     1     105.436 123.232 140.857  0.00  0.00    +0.000 OA
ATOM      5  C   UNL     1     105.624 125.684 141.314  0.00  0.00    +0.000 A 
ATOM      6  C   UNL     1     105.559 124.876 141.158  0.00  0.00    +0.000 A 
ATOM      7  C   UNL     1     105.256 126.231 140.817  0.00  0.00    +0.000 A 
ATOM      8  C   UNL     1     105.126 124.616 140.506  0.00  0.00    +0.000 A 
ATOM      9  C   UNL     1     104.823 125.969 140.165  0.00  0.00    +0.000 A 
ATOM     10  C   UNL     1     104.758 125.162 140.010  0.00  0.00    +0.000 A 
ATOM     11  C   UNL     1     105.065 123.772 140.355  0.00  0.00    +0.000 A 
ATOM     12  C   UNL     1     104.233 124.063 139.160  0.00  0.00    +0.000 A 
ATOM     13  C   UNL     1     104.616 123.494 139.677  0.00  0.00    +0.000 A 
ENDROOT
BRANCH   5  19
ATOM     14  O   UNL     1     105.696 125.996 142.706  0.00  0.00    +0.000 OA
ATOM     15  O   UNL     1     108.076 126.623 142.443  0.00  0.00    +0.000 OA
ATOM     16  O   UNL     1     107.355 126.725 143.923  0.00  0.00    +0.000 OA
ATOM     17  C   UNL     1     106.850 126.154 141.878  0.00  0.00    +0.000 C 
ATOM     18  C   UNL     1     107.283 126.414 142.531  0.00  0.00    +0.000 C 
ATOM     19  C   UNL     1     106.057 125.945 141.965  0.00  0.00    +0.000 C 
ATOM     20  C   UNL     1     106.922 126.465 143.270  0.00  0.00    +0.000 C 
ATOM     21  C   UNL     1     106.129 126.256 143.358  0.00  0.00    +0.000 C 
BRANCH  21  23
ATOM     22  O   UNL     1     105.089 126.767 144.195  0.00  0.00    +0.000 OA
ATOM     23  C   UNL     1     105.768 126.307 144.098  0.00  0.00    +0.000 C 
ENDBRANCH  21  23
BRANCH  17  24
ATOM     24  O   UNL     1     107.210 126.102 141.138  0.00  0.00    +0.000 OA
BRANCH  24  26
ATOM     25  O   UNL     1     108.408 125.339 141.298  0.00  0.00    +0.000 OA
ATOM     26  C   UNL     1     108.031 126.040 141.082  0.00  0.00    +0.000 C 
ATOM     27  C   UNL     1     108.476 126.681 140.810  0.00  0.00    +0.000 C 
ENDBRANCH  24  26
ENDBRANCH  17  24
ENDBRANCH   5  19
BRANCH  12  30
ATOM     28  O   UNL     1     104.147 123.009 136.506  0.00  0.00    +0.000 OA
ATOM     29  O   UNL     1     102.498 123.030 136.549  0.00  0.00    +0.000 OA
ATOM     30  C   UNL     1     103.799 123.805 138.508  0.00  0.00    +0.000 A 
ATOM     31  C   UNL     1     104.190 123.536 137.833  0.00  0.00    +0.000 A 
ATOM     32  C   UNL     1     102.974 123.815 138.530  0.00  0.00    +0.000 A 
ATOM     33  C   UNL     1     103.756 123.278 137.180  0.00  0.00    +0.000 A 
ATOM     34  C   UNL     1     102.541 123.557 137.877  0.00  0.00    +0.000 A 
ATOM     35  C   UNL     1     102.932 123.288 137.202  0.00  0.00    +0.000 A 
ENDBRANCH  12  30
TORSDOF 5
ENDMDL
MODEL 2
REMARK VINA RESULT:      -9.6      6.882      9.956
REMARK  Name = 44257914
REMARK  5 active torsions:
REMARK  status: ('A' for Active; 'I' for Inactive)
REMARK    1  A    between atoms: O_2  and  C_13
REMARK    2  A    between atoms: O_2  and  C_25
REMARK    3  A    between atoms: C_15  and  C_18
REMARK    4  A    between atoms: C_17  and  C_19
REMARK    5  A    between atoms: C_28  and  C_30
REMARK                            x       y       z     vdW  Elec       q    Type
REMARK                         _______ _______ _______ _____ _____    ______ ____
ROOT
ATOM      1  O   UNL     1     112.917 126.129 139.175  0.00  0.00    +0.000 OA
ATOM      2  O   UNL     1     112.796 127.624 136.742  0.00  0.00    +0.000 OA
ATOM      3  O   UNL     1     113.592 128.944 139.176  0.00  0.00    +0.000 OA
ATOM      4  O   UNL     1     113.310 126.753 140.414  0.00  0.00    +0.000 OA
ATOM      5  C   UNL     1     112.857 126.877 137.958  0.00  0.00    +0.000 A 
ATOM      6  C   UNL     1     113.008 126.842 138.769  0.00  0.00    +0.000 A 
ATOM      7  C   UNL     1     112.947 127.589 137.552  0.00  0.00    +0.000 A 
ATOM      8  C   UNL     1     113.250 127.519 139.172  0.00  0.00    +0.000 A 
ATOM      9  C   UNL     1     113.189 128.267 137.957  0.00  0.00    +0.000 A 
ATOM     10  C   UNL     1     113.340 128.232 138.766  0.00  0.00    +0.000 A 
ATOM     11  C   UNL     1     113.404 127.470 140.016  0.00  0.00    +0.000 A 
ATOM     12  C   UNL     1     113.751 128.914 140.020  0.00  0.00    +0.000 A 
ATOM     13  C   UNL     1     113.656 128.172 140.443  0.00  0.00    +0.000 A 
ENDROOT
BRANCH   5  19
ATOM     14  O   UNL     1     111.812 126.011 137.509  0.00  0.00    +0.000 OA
ATOM     15  O   UNL     1     113.490 124.544 136.433  0.00  0.00    +0.000 OA
ATOM     16  O   UNL     1     111.887 124.168 136.344  0.00  0.00    +0.000 OA
ATOM     17  C   UNL     1     113.174 125.711 137.195  0.00  0.00    +0.000 C 
ATOM     18  C   UNL     1     112.931 125.033 136.792  0.00  0.00    +0.000 C 
ATOM     19  C   UNL     1     112.615 126.200 137.554  0.00  0.00    +0.000 C 
ATOM     20  C   UNL     1     112.129 124.845 136.747  0.00  0.00    +0.000 C 
ATOM     21  C   UNL     1     111.570 125.334 137.106  0.00  0.00    +0.000 C 
BRANCH  21  23
ATOM     22  O   UNL     1     110.200 125.738 137.153  0.00  0.00    +0.000 OA
ATOM     23  C   UNL     1     110.768 125.146 137.061  0.00  0.00    +0.000 C 
ENDBRANCH  21  23
BRANCH  17  24
ATOM     24  O   UNL     1     113.975 125.899 137.240  0.00  0.00    +0.000 OA
BRANCH  24  26
ATOM     25  O   UNL     1     114.730 124.731 137.570  0.00  0.00    +0.000 OA
ATOM     26  C   UNL     1     114.543 125.335 137.040  0.00  0.00    +0.000 C 
ATOM     27  C   UNL     1     114.925 125.375 136.309  0.00  0.00    +0.000 C 
ENDBRANCH  24  26
ENDBRANCH  17  24
ENDBRANCH   5  19
BRANCH  12  30
ATOM     28  O   UNL     1     113.185 131.052 141.829  0.00  0.00    +0.000 OA
ATOM     29  O   UNL     1     114.718 131.629 141.628  0.00  0.00    +0.000 OA
ATOM     30  C   UNL     1     113.993 129.592 140.422  0.00  0.00    +0.000 A 
ATOM     31  C   UNL     1     113.468 129.983 140.925  0.00  0.00    +0.000 A 
ATOM     32  C   UNL     1     114.759 129.880 140.321  0.00  0.00    +0.000 A 
ATOM     33  C   UNL     1     113.710 130.662 141.326  0.00  0.00    +0.000 A 
ATOM     34  C   UNL     1     115.000 130.560 140.723  0.00  0.00    +0.000 A 
ATOM     35  C   UNL     1     114.476 130.950 141.226  0.00  0.00    +0.000 A 
ENDBRANCH  12  30
TORSDOF 5
ENDMDL
MODEL 3
REMARK VINA RESULT:      -9.5      6.546      9.985
REMARK  Name = 44257914
REMARK  5 active torsions:
REMARK  status: ('A' for Active; 'I' for Inactive)
REMARK    1  A    between atoms: O_2  and  C_13
REMARK    2  A    between atoms: O_2  and  C_25
REMARK    3  A    between atoms: C_15  and  C_18
REMARK    4  A    between atoms: C_17  and  C_19
REMARK    5  A    between atoms: C_28  and  C_30
REMARK                            x       y       z     vdW  Elec       q    Type
REMARK                         _______ _______ _______ _____ _____    ______ ____
ROOT
ATOM      1  O   UNL     1     113.645 126.109 139.355  0.00  0.00    +0.000 OA
ATOM      2  O   UNL     1     112.799 127.610 137.074  0.00  0.00    +0.000 OA
ATOM      3  O   UNL     1     113.370 128.985 139.540  0.00  0.00    +0.000 OA
ATOM      4  O   UNL     1     113.941 126.760 140.607  0.00  0.00    +0.000 OA
ATOM      5  C   UNL     1     113.222 126.860 138.214  0.00  0.00    +0.000 A 
ATOM      6  C   UNL     1     113.459 126.833 139.004  0.00  0.00    +0.000 A 
ATOM      7  C   UNL     1     113.036 127.583 137.863  0.00  0.00    +0.000 A 
ATOM      8  C   UNL     1     113.509 127.529 139.443  0.00  0.00    +0.000 A 
ATOM      9  C   UNL     1     113.086 128.279 138.303  0.00  0.00    +0.000 A 
ATOM     10  C   UNL     1     113.322 128.252 139.093  0.00  0.00    +0.000 A 
ATOM     11  C   UNL     1     113.756 127.488 140.265  0.00  0.00    +0.000 A 
ATOM     12  C   UNL     1     113.616 128.963 140.363  0.00  0.00    +0.000 A 
ATOM     13  C   UNL     1     113.810 128.210 140.728  0.00  0.00    +0.000 A 
ENDROOT
BRANCH   5  19
ATOM     14  O   UNL     1     113.845 125.861 137.404  0.00  0.00    +0.000 OA
ATOM     15  O   UNL     1     111.681 124.678 137.198  0.00  0.00    +0.000 OA
ATOM     16  O   UNL     1     113.025 124.074 136.457  0.00  0.00    +0.000 OA
ATOM     17  C   UNL     1     112.451 125.769 137.706  0.00  0.00    +0.000 C 
ATOM     18  C   UNL     1     112.402 125.072 137.267  0.00  0.00    +0.000 C 
ATOM     19  C   UNL     1     113.172 126.163 137.775  0.00  0.00    +0.000 C 
ATOM     20  C   UNL     1     113.074 124.770 136.896  0.00  0.00    +0.000 C 
ATOM     21  C   UNL     1     113.795 125.164 136.965  0.00  0.00    +0.000 C 
BRANCH  21  23
ATOM     22  O   UNL     1     114.960 125.364 136.162  0.00  0.00    +0.000 OA
ATOM     23  C   UNL     1     114.468 124.862 136.594  0.00  0.00    +0.000 C 
ENDBRANCH  21  23
BRANCH  17  24
ATOM     24  O   UNL     1     111.779 126.071 138.077  0.00  0.00    +0.000 OA
BRANCH  24  26
ATOM     25  O   UNL     1     111.111 124.989 138.729  0.00  0.00    +0.000 OA
ATOM     26  C   UNL     1     111.111 125.596 138.170  0.00  0.00    +0.000 C 
ATOM     27  C   UNL     1     110.442 125.728 137.705  0.00  0.00    +0.000 C 
ENDBRANCH  24  26
ENDBRANCH  17  24
ENDBRANCH   5  19
BRANCH  12  30
ATOM     28  O   UNL     1     115.004 131.369 141.037  0.00  0.00    +0.000 OA
ATOM     29  O   UNL     1     113.813 131.755 142.112  0.00  0.00    +0.000 OA
ATOM     30  C   UNL     1     113.665 129.661 140.800  0.00  0.00    +0.000 A 
ATOM     31  C   UNL     1     114.310 130.166 140.700  0.00  0.00    +0.000 A 
ATOM     32  C   UNL     1     113.070 129.854 141.338  0.00  0.00    +0.000 A 
ATOM     33  C   UNL     1     114.359 130.864 141.137  0.00  0.00    +0.000 A 
ATOM     34  C   UNL     1     113.120 130.552 141.775  0.00  0.00    +0.000 A 
ATOM     35  C   UNL     1     113.764 131.057 141.675  0.00  0.00    +0.000 A 
ENDBRANCH  12  30
TORSDOF 5
ENDMDL
MODEL 4
REMARK VINA RESULT:      -9.4      7.085      8.526
REMARK  Name = 44257914
REMARK  5 active torsions:
REMARK  status: ('A' for Active; 'I' for Inactive)
REMARK    1  A    between atoms: O_2  and  C_13
REMARK    2  A    between atoms: O_2  and  C_25
REMARK    3  A    between atoms: C_15  and  C_18
REMARK    4  A    between atoms: C_17  and  C_19
REMARK    5  A    between atoms: C_28  and  C_30
REMARK                            x       y       z     vdW  Elec       q    Type
REMARK                         _______ _______ _______ _____ _____    ______ ____
ROOT
ATOM      1  O   UNL     1     112.690 129.058 139.136  0.00  0.00    +0.000 OA
ATOM      2  O   UNL     1     114.242 127.660 141.088  0.00  0.00    +0.000 OA
ATOM      3  O   UNL     1     113.101 126.204 138.879  0.00  0.00    +0.000 OA
ATOM      4  O   UNL     1     112.103 128.365 138.016  0.00  0.00    +0.000 OA
ATOM      5  C   UNL     1     113.467 128.359 140.112  0.00  0.00    +0.000 A 
ATOM      6  C   UNL     1     113.017 128.355 139.420  0.00  0.00    +0.000 A 
ATOM      7  C   UNL     1     113.793 127.656 140.396  0.00  0.00    +0.000 A 
ATOM      8  C   UNL     1     112.895 127.649 139.012  0.00  0.00    +0.000 A 
ATOM      9  C   UNL     1     113.670 126.950 139.987  0.00  0.00    +0.000 A 
ATOM     10  C   UNL     1     113.222 126.946 139.296  0.00  0.00    +0.000 A 
ATOM     11  C   UNL     1     112.425 127.657 138.292  0.00  0.00    +0.000 A 
ATOM     12  C   UNL     1     112.634 126.194 138.158  0.00  0.00    +0.000 A 
ATOM     13  C   UNL     1     112.294 126.925 137.863  0.00  0.00    +0.000 A 
ENDROOT
BRANCH   5  19
ATOM     14  O   UNL     1     114.213 129.562 140.306  0.00  0.00    +0.000 OA
ATOM     15  O   UNL     1     112.710 130.193 142.169  0.00  0.00    +0.000 OA
ATOM     16  O   UNL     1     113.957 131.185 141.742  0.00  0.00    +0.000 OA
ATOM     17  C   UNL     1     113.088 129.276 141.141  0.00  0.00    +0.000 C 
ATOM     18  C   UNL     1     113.211 129.983 141.548  0.00  0.00    +0.000 C 
ATOM     19  C   UNL     1     113.589 129.065 140.520  0.00  0.00    +0.000 C 
ATOM     20  C   UNL     1     113.834 130.479 141.335  0.00  0.00    +0.000 C 
ATOM     21  C   UNL     1     114.335 130.269 140.714  0.00  0.00    +0.000 C 
BRANCH  21  23
ATOM     22  O   UNL     1     115.704 130.446 140.344  0.00  0.00    +0.000 OA
ATOM     23  C   UNL     1     114.958 130.765 140.500  0.00  0.00    +0.000 C 
ENDBRANCH  21  23
BRANCH  17  24
ATOM     24  O   UNL     1     112.465 128.780 141.354  0.00  0.00    +0.000 OA
BRANCH  24  26
ATOM     25  O   UNL     1     111.292 129.582 141.505  0.00  0.00    +0.000 OA
ATOM     26  C   UNL     1     111.851 129.067 141.825  0.00  0.00    +0.000 C 
ATOM     27  C   UNL     1     111.797 128.840 142.617  0.00  0.00    +0.000 C 
ENDBRANCH  24  26
ENDBRANCH  17  24
ENDBRANCH   5  19
BRANCH  12  30
ATOM     28  O   UNL     1     113.584 124.166 136.383  0.00  0.00    +0.000 OA
ATOM     29  O   UNL     1     112.151 123.362 136.532  0.00  0.00    +0.000 OA
ATOM     30  C   UNL     1     112.513 125.486 137.752  0.00  0.00    +0.000 A 
ATOM     31  C   UNL     1     113.109 125.180 137.270  0.00  0.00    +0.000 A 
ATOM     32  C   UNL     1     111.796 125.084 137.827  0.00  0.00    +0.000 A 
ATOM     33  C   UNL     1     112.988 124.472 136.864  0.00  0.00    +0.000 A 
ATOM     34  C   UNL     1     111.676 124.376 137.420  0.00  0.00    +0.000 A 
ATOM     35  C   UNL     1     112.272 124.070 136.938  0.00  0.00    +0.000 A 
ENDBRANCH  12  30
TORSDOF 5
ENDMDL
MODEL 5
REMARK VINA RESULT:      -9.3      4.566      6.213
REMARK  Name = 44257914
REMARK  5 active torsions:
REMARK  status: ('A' for Active; 'I' for Inactive)
REMARK    1  A    between atoms: O_2  and  C_13
REMARK    2  A    between atoms: O_2  and  C_25
REMARK    3  A    between atoms: C_15  and  C_18
REMARK    4  A    between atoms: C_17  and  C_19
REMARK    5  A    between atoms: C_28  and  C_30
REMARK                            x       y       z     vdW  Elec       q    Type
REMARK                         _______ _______ _______ _____ _____    ______ ____
ROOT
ATOM      1  O   UNL     1     105.988 127.087 146.747  0.00  0.00    +0.000 OA
ATOM      2  O   UNL     1     106.302 124.623 145.334  0.00  0.00    +0.000 OA
ATOM      3  O   UNL     1     105.590 127.006 143.881  0.00  0.00    +0.000 OA
ATOM      4  O   UNL     1     105.632 128.302 146.057  0.00  0.00    +0.000 OA
ATOM      5  C   UNL     1     106.145 125.854 146.040  0.00  0.00    +0.000 A 
ATOM      6  C   UNL     1     105.975 126.662 146.040  0.00  0.00    +0.000 A 
ATOM      7  C   UNL     1     106.132 125.429 145.333  0.00  0.00    +0.000 A 
ATOM      8  C   UNL     1     105.792 127.044 145.332  0.00  0.00    +0.000 A 
ATOM      9  C   UNL     1     105.949 125.812 144.626  0.00  0.00    +0.000 A 
ATOM     10  C   UNL     1     105.779 126.619 144.625  0.00  0.00    +0.000 A 
ATOM     11  C   UNL     1     105.616 127.885 145.344  0.00  0.00    +0.000 A 
ATOM     12  C   UNL     1     105.412 127.847 143.875  0.00  0.00    +0.000 A 
ATOM     13  C   UNL     1     105.425 128.289 144.611  0.00  0.00    +0.000 A 
ENDROOT
BRANCH   5  19
ATOM     14  O   UNL     1     107.105 125.473 147.028  0.00  0.00    +0.000 OA
ATOM     15  O   UNL     1     105.328 124.325 148.312  0.00  0.00    +0.000 OA
ATOM     16  O   UNL     1     106.880 124.327 148.872  0.00  0.00    +0.000 OA
ATOM     17  C   UNL     1     105.736 125.089 147.176  0.00  0.00    +0.000 C 
ATOM     18  C   UNL     1     105.921 124.708 147.884  0.00  0.00    +0.000 C 
ATOM     19  C   UNL     1     106.328 125.472 146.748  0.00  0.00    +0.000 C 
ATOM     20  C   UNL     1     106.696 124.709 148.164  0.00  0.00    +0.000 C 
ATOM     21  C   UNL     1     107.288 125.092 147.736  0.00  0.00    +0.000 C 
BRANCH  21  23
ATOM     22  O   UNL     1     108.689 125.238 147.496  0.00  0.00    +0.000 OA
ATOM     23  C   UNL     1     108.064 125.093 148.016  0.00  0.00    +0.000 C 
ENDBRANCH  21  23
BRANCH  17  24
ATOM     24  O   UNL     1     104.961 125.088 146.896  0.00  0.00    +0.000 OA
BRANCH  24  26
ATOM     25  O   UNL     1     104.152 125.512 147.996  0.00  0.00    +0.000 OA
ATOM     26  C   UNL     1     104.335 124.954 147.417  0.00  0.00    +0.000 C 
ATOM     27  C   UNL     1     103.890 124.260 147.357  0.00  0.00    +0.000 C 
ENDBRANCH  24  26
ENDBRANCH  17  24
ENDBRANCH   5  19
BRANCH  12  30
ATOM     28  O   UNL     1     106.236 128.921 141.358  0.00  0.00    +0.000 OA
ATOM     29  O   UNL     1     104.681 129.367 141.038  0.00  0.00    +0.000 OA
ATOM     30  C   UNL     1     105.229 128.227 143.165  0.00  0.00    +0.000 A 
ATOM     31  C   UNL     1     105.824 128.384 142.616  0.00  0.00    +0.000 A 
ATOM     32  C   UNL     1     104.451 128.449 143.006  0.00  0.00    +0.000 A 
ATOM     33  C   UNL     1     105.641 128.764 141.907  0.00  0.00    +0.000 A 
ATOM     34  C   UNL     1     104.268 128.830 142.296  0.00  0.00    +0.000 A 
ATOM     35  C   UNL     1     104.864 128.987 141.747  0.00  0.00    +0.000 A 
ENDBRANCH  12  30
TORSDOF 5
ENDMDL
MODEL 6
REMARK VINA RESULT:      -9.2      7.659     10.936
REMARK  Name = 44257914
REMARK  5 active torsions:
REMARK  status: ('A' for Active; 'I' for Inactive)
REMARK    1  A    between atoms: O_2  and  C_13
REMARK    2  A    between atoms: O_2  and  C_25
REMARK    3  A    between atoms: C_15  and  C_18
REMARK    4  A    between atoms: C_17  and  C_19
REMARK    5  A    between atoms: C_28  and  C_30
REMARK                            x       y       z     vdW  Elec       q    Type
REMARK                         _______ _______ _______ _____ _____    ______ ____
ROOT
ATOM      1  O   UNL     1     111.628 132.352 142.565  0.00  0.00    +0.000 OA
ATOM      2  O   UNL     1     111.105 129.619 143.220  0.00  0.00    +0.000 OA
ATOM      3  O   UNL     1     111.815 131.466 145.315  0.00  0.00    +0.000 OA
ATOM      4  O   UNL     1     111.986 133.307 143.584  0.00  0.00    +0.000 OA
ATOM      5  C   UNL     1     111.366 130.985 142.893  0.00  0.00    +0.000 A 
ATOM      6  C   UNL     1     111.571 131.750 143.127  0.00  0.00    +0.000 A 
ATOM      7  C   UNL     1     111.310 130.383 143.454  0.00  0.00    +0.000 A 
ATOM      8  C   UNL     1     111.719 131.911 143.922  0.00  0.00    +0.000 A 
ATOM      9  C   UNL     1     111.458 130.546 144.249  0.00  0.00    +0.000 A 
ATOM     10  C   UNL     1     111.663 131.310 144.483  0.00  0.00    +0.000 A 
ATOM     11  C   UNL     1     111.932 132.712 144.153  0.00  0.00    +0.000 A 
ATOM     12  C   UNL     1     112.029 132.260 145.564  0.00  0.00    +0.000 A 
ATOM     13  C   UNL     1     112.088 132.887 144.979  0.00  0.00    +0.000 A 
ENDROOT
BRANCH   5  19
ATOM     14  O   UNL     1     110.463 130.946 141.786  0.00  0.00    +0.000 OA
ATOM     15  O   UNL     1     112.279 130.094 140.335  0.00  0.00    +0.000 OA
ATOM     16  O   UNL     1     110.771 130.339 139.713  0.00  0.00    +0.000 OA
ATOM     17  C   UNL     1     111.823 130.539 141.614  0.00  0.00    +0.000 C 
ATOM     18  C   UNL     1     111.674 130.378 140.819  0.00  0.00    +0.000 C 
ATOM     19  C   UNL     1     111.218 130.823 142.098  0.00  0.00    +0.000 C 
ATOM     20  C   UNL     1     110.920 130.500 140.507  0.00  0.00    +0.000 C 
ATOM     21  C   UNL     1     110.315 130.784 140.991  0.00  0.00    +0.000 C 
BRANCH  21  23
ATOM     22  O   UNL     1     108.966 131.224 141.156  0.00  0.00    +0.000 OA
ATOM     23  C   UNL     1     109.561 130.907 140.680  0.00  0.00    +0.000 C 
ENDBRANCH  21  23
BRANCH  17  24
ATOM     24  O   UNL     1     112.577 130.417 141.926  0.00  0.00    +0.000 OA
BRANCH  24  26
ATOM     25  O   UNL     1     113.541 131.027 141.065  0.00  0.00    +0.000 OA
ATOM     26  C   UNL     1     113.226 130.353 141.421  0.00  0.00    +0.000 C 
ATOM     27  C   UNL     1     113.561 129.613 141.272  0.00  0.00    +0.000 C 
ENDBRANCH  24  26
ENDBRANCH  17  24
ENDBRANCH   5  19
BRANCH  12  30
ATOM     28  O   UNL     1     111.253 133.480 148.029  0.00  0.00    +0.000 OA
ATOM     29  O   UNL     1     112.619 132.899 148.748  0.00  0.00    +0.000 OA
ATOM     30  C   UNL     1     112.177 132.420 146.360  0.00  0.00    +0.000 A 
ATOM     31  C   UNL     1     111.641 132.870 146.797  0.00  0.00    +0.000 A 
ATOM     32  C   UNL     1     112.860 132.129 146.719  0.00  0.00    +0.000 A 
ATOM     33  C   UNL     1     111.789 133.030 147.592  0.00  0.00    +0.000 A 
ATOM     34  C   UNL     1     113.007 132.289 147.515  0.00  0.00    +0.000 A 
ATOM     35  C   UNL     1     112.472 132.739 147.952  0.00  0.00    +0.000 A 
ENDBRANCH  12  30
TORSDOF 5
ENDMDL
MODEL 7
REMARK VINA RESULT:      -9.2      3.816      5.664
REMARK  Name = 44257914
REMARK  5 active torsions:
REMARK  status: ('A' for Active; 'I' for Inactive)
REMARK    1  A    between atoms: O_2  and  C_13
REMARK    2  A    between atoms: O_2  and  C_25
REMARK    3  A    between atoms: C_15  and  C_18
REMARK    4  A    between atoms: C_17  and  C_19
REMARK    5  A    between atoms: C_28  and  C_30
REMARK                            x       y       z     vdW  Elec       q    Type
REMARK                         _______ _______ _______ _____ _____    ______ ____
ROOT
ATOM      1  O   UNL     1     104.796 127.889 141.375  0.00  0.00    +0.000 OA
ATOM      2  O   UNL     1     105.444 128.632 144.057  0.00  0.00    +0.000 OA
ATOM      3  O   UNL     1     103.498 130.172 142.593  0.00  0.00    +0.000 OA
ATOM      4  O   UNL     1     103.828 128.633 140.608  0.00  0.00    +0.000 OA
ATOM      5  C   UNL     1     105.121 128.260 142.717  0.00  0.00    +0.000 A 
ATOM      6  C   UNL     1     104.691 128.388 142.023  0.00  0.00    +0.000 A 
ATOM      7  C   UNL     1     105.015 128.760 143.365  0.00  0.00    +0.000 A 
ATOM      8  C   UNL     1     104.157 129.015 141.979  0.00  0.00    +0.000 A 
ATOM      9  C   UNL     1     104.481 129.387 143.320  0.00  0.00    +0.000 A 
ATOM     10  C   UNL     1     104.052 129.515 142.627  0.00  0.00    +0.000 A 
ATOM     11  C   UNL     1     103.716 129.138 141.251  0.00  0.00    +0.000 A 
ATOM     12  C   UNL     1     103.049 130.309 141.874  0.00  0.00    +0.000 A 
ATOM     13  C   UNL     1     103.158 129.789 141.199  0.00  0.00    +0.000 A 
ENDROOT
BRANCH   5  19
ATOM     14  O   UNL     1     105.388 126.878 142.963  0.00  0.00    +0.000 OA
ATOM     15  O   UNL     1     107.787 127.258 142.491  0.00  0.00    +0.000 OA
ATOM     16  O   UNL     1     107.254 125.750 142.894  0.00  0.00    +0.000 OA
ATOM     17  C   UNL     1     106.454 127.760 142.604  0.00  0.00    +0.000 C 
ATOM     18  C   UNL     1     106.987 127.132 142.648  0.00  0.00    +0.000 C 
ATOM     19  C   UNL     1     105.654 127.633 142.761  0.00  0.00    +0.000 C 
ATOM     20  C   UNL     1     106.721 126.378 142.850  0.00  0.00    +0.000 C 
ATOM     21  C   UNL     1     105.922 126.251 143.007  0.00  0.00    +0.000 C 
BRANCH  21  23
ATOM     22  O   UNL     1     105.214 125.387 143.898  0.00  0.00    +0.000 OA
ATOM     23  C   UNL     1     105.655 125.497 143.209  0.00  0.00    +0.000 C 
ENDBRANCH  21  23
BRANCH  17  24
ATOM     24  O   UNL     1     106.720 128.514 142.402  0.00  0.00    +0.000 OA
BRANCH  24  26
ATOM     25  O   UNL     1     107.520 128.388 141.224  0.00  0.00    +0.000 OA
ATOM     26  C   UNL     1     107.444 128.606 142.016  0.00  0.00    +0.000 C 
ATOM     27  C   UNL     1     108.092 128.917 142.422  0.00  0.00    +0.000 C 
ENDBRANCH  24  26
ENDBRANCH  17  24
ENDBRANCH   5  19
BRANCH  12  30
ATOM     28  O   UNL     1     102.518 133.078 141.408  0.00  0.00    +0.000 OA
ATOM     29  O   UNL     1     100.915 132.822 141.705  0.00  0.00    +0.000 OA
ATOM     30  C   UNL     1     102.515 130.937 141.832  0.00  0.00    +0.000 A 
ATOM     31  C   UNL     1     102.783 131.694 141.641  0.00  0.00    +0.000 A 
ATOM     32  C   UNL     1     101.714 130.809 141.981  0.00  0.00    +0.000 A 
ATOM     33  C   UNL     1     102.250 132.322 141.599  0.00  0.00    +0.000 A 
ATOM     34  C   UNL     1     101.181 131.437 141.938  0.00  0.00    +0.000 A 
ATOM     35  C   UNL     1     101.449 132.194 141.747  0.00  0.00    +0.000 A 
ENDBRANCH  12  30
TORSDOF 5
ENDMDL
MODEL 8
REMARK VINA RESULT:      -9.1      4.162      6.864
REMARK  Name = 44257914
REMARK  5 active torsions:
REMARK  status: ('A' for Active; 'I' for Inactive)
REMARK    1  A    between atoms: O_2  and  C_13
REMARK    2  A    between atoms: O_2  and  C_25
REMARK    3  A    between atoms: C_15  and  C_18
REMARK    4  A    between atoms: C_17  and  C_19
REMARK    5  A    between atoms: C_28  and  C_30
REMARK                            x       y       z     vdW  Elec       q    Type
REMARK                         _______ _______ _______ _____ _____    ______ ____
ROOT
ATOM      1  O   UNL     1     106.678 128.099 144.789  0.00  0.00    +0.000 OA
ATOM      2  O   UNL     1     105.595 125.813 143.459  0.00  0.00    +0.000 OA
ATOM      3  O   UNL     1     106.528 125.561 146.173  0.00  0.00    +0.000 OA
ATOM      4  O   UNL     1     107.156 128.014 146.148  0.00  0.00    +0.000 OA
ATOM      5  C   UNL     1     106.136 126.956 144.124  0.00  0.00    +0.000 A 
ATOM      6  C   UNL     1     106.472 127.300 144.795  0.00  0.00    +0.000 A 
ATOM      7  C   UNL     1     105.930 126.157 144.129  0.00  0.00    +0.000 A 
ATOM      8  C   UNL     1     106.603 126.844 145.470  0.00  0.00    +0.000 A 
ATOM      9  C   UNL     1     106.061 125.702 144.805  0.00  0.00    +0.000 A 
ATOM     10  C   UNL     1     106.397 126.046 145.475  0.00  0.00    +0.000 A 
ATOM     11  C   UNL     1     106.953 127.214 146.162  0.00  0.00    +0.000 A 
ATOM     12  C   UNL     1     106.878 125.914 146.874  0.00  0.00    +0.000 A 
ATOM     13  C   UNL     1     107.092 126.745 146.869  0.00  0.00    +0.000 A 
ENDROOT
BRANCH   5  19
ATOM     14  O   UNL     1     105.307 127.845 143.372  0.00  0.00    +0.000 OA
ATOM     15  O   UNL     1     107.008 127.912 141.576  0.00  0.00    +0.000 OA
ATOM     16  O   UNL     1     105.613 128.778 141.424  0.00  0.00    +0.000 OA
ATOM     17  C   UNL     1     106.573 127.434 142.850  0.00  0.00    +0.000 C 
ATOM     18  C   UNL     1     106.441 127.890 142.175  0.00  0.00    +0.000 C 
ATOM     19  C   UNL     1     106.006 127.411 143.449  0.00  0.00    +0.000 C 
ATOM     20  C   UNL     1     105.744 128.323 142.098  0.00  0.00    +0.000 C 
ATOM     21  C   UNL     1     105.177 128.300 142.697  0.00  0.00    +0.000 C 
BRANCH  21  23
ATOM     22  O   UNL     1     104.191 129.166 143.263  0.00  0.00    +0.000 OA
ATOM     23  C   UNL     1     104.479 128.733 142.621  0.00  0.00    +0.000 C 
ENDBRANCH  21  23
BRANCH  17  24
ATOM     24  O   UNL     1     107.270 127.000 142.926  0.00  0.00    +0.000 OA
BRANCH  24  26
ATOM     25  O   UNL     1     108.391 127.833 142.621  0.00  0.00    +0.000 OA
ATOM     26  C   UNL     1     107.920 127.178 142.450  0.00  0.00    +0.000 C 
ATOM     27  C   UNL     1     108.099 126.700 141.801  0.00  0.00    +0.000 C 
ENDBRANCH  24  26
ENDBRANCH  17  24
ENDBRANCH   5  19
BRANCH  12  30
ATOM     28  O   UNL     1     105.863 124.547 149.170  0.00  0.00    +0.000 OA
ATOM     29  O   UNL     1     107.395 124.084 149.572  0.00  0.00    +0.000 OA
ATOM     30  C   UNL     1     107.007 125.456 147.548  0.00  0.00    +0.000 A 
ATOM     31  C   UNL     1     106.370 125.230 148.022  0.00  0.00    +0.000 A 
ATOM     32  C   UNL     1     107.773 125.225 147.749  0.00  0.00    +0.000 A 
ATOM     33  C   UNL     1     106.500 124.773 148.696  0.00  0.00    +0.000 A 
ATOM     34  C   UNL     1     107.902 124.767 148.424  0.00  0.00    +0.000 A 
ATOM     35  C   UNL     1     107.265 124.541 148.898  0.00  0.00    +0.000 A 
ENDBRANCH  12  30
TORSDOF 5
ENDMDL
MODEL 9
REMARK VINA RESULT:      -9.1      7.596      8.645
REMARK  Name = 44257914
REMARK  5 active torsions:
REMARK  status: ('A' for Active; 'I' for Inactive)
REMARK    1  A    between atoms: O_2  and  C_13
REMARK    2  A    between atoms: O_2  and  C_25
REMARK    3  A    between atoms: C_15  and  C_18
REMARK    4  A    between atoms: C_17  and  C_19
REMARK    5  A    between atoms: C_28  and  C_30
REMARK                            x       y       z     vdW  Elec       q    Type
REMARK                         _______ _______ _______ _____ _____    ______ ____
ROOT
ATOM      1  O   UNL     1     112.286 128.992 139.520  0.00  0.00    +0.000 OA
ATOM      2  O   UNL     1     114.165 127.858 141.350  0.00  0.00    +0.000 OA
ATOM      3  O   UNL     1     113.590 126.488 138.882  0.00  0.00    +0.000 OA
ATOM      4  O   UNL     1     111.971 128.337 138.274  0.00  0.00    +0.000 OA
ATOM      5  C   UNL     1     113.226 128.425 140.436  0.00  0.00    +0.000 A 
ATOM      6  C   UNL     1     112.814 128.391 139.721  0.00  0.00    +0.000 A 
ATOM      7  C   UNL     1     113.754 127.824 140.636  0.00  0.00    +0.000 A 
ATOM      8  C   UNL     1     112.932 127.756 139.208  0.00  0.00    +0.000 A 
ATOM      9  C   UNL     1     113.871 127.189 140.122  0.00  0.00    +0.000 A 
ATOM     10  C   UNL     1     113.460 127.155 139.408  0.00  0.00    +0.000 A 
ATOM     11  C   UNL     1     112.497 127.732 138.466  0.00  0.00    +0.000 A 
ATOM     12  C   UNL     1     113.165 126.447 138.137  0.00  0.00    +0.000 A 
ATOM     13  C   UNL     1     112.615 127.073 137.928  0.00  0.00    +0.000 A 
ENDROOT
BRANCH   5  19
ATOM     14  O   UNL     1     112.493 129.037 141.498  0.00  0.00    +0.000 OA
ATOM     15  O   UNL     1     113.984 131.010 141.390  0.00  0.00    +0.000 OA
ATOM     16  O   UNL     1     112.755 130.964 142.488  0.00  0.00    +0.000 OA
ATOM     17  C   UNL     1     113.606 129.718 140.912  0.00  0.00    +0.000 C 
ATOM     18  C   UNL     1     113.487 130.352 141.426  0.00  0.00    +0.000 C 
ATOM     19  C   UNL     1     113.109 129.060 140.949  0.00  0.00    +0.000 C 
ATOM     20  C   UNL     1     112.873 130.330 141.975  0.00  0.00    +0.000 C 
ATOM     21  C   UNL     1     112.376 129.673 142.011  0.00  0.00    +0.000 C 
BRANCH  21  23
ATOM     22  O   UNL     1     111.530 128.929 142.891  0.00  0.00    +0.000 OA
ATOM     23  C   UNL     1     111.761 129.649 142.561  0.00  0.00    +0.000 C 
ENDBRANCH  21  23
BRANCH  17  24
ATOM     24  O   UNL     1     114.220 129.740 140.363  0.00  0.00    +0.000 OA
BRANCH  24  26
ATOM     25  O   UNL     1     114.209 131.002 139.692  0.00  0.00    +0.000 OA
ATOM     26  C   UNL     1     114.586 130.457 140.183  0.00  0.00    +0.000 C 
ATOM     27  C   UNL     1     115.331 130.630 140.495  0.00  0.00    +0.000 C 
ENDBRANCH  24  26
ENDBRANCH  17  24
ENDBRANCH   5  19
BRANCH  12  30
ATOM     28  O   UNL     1     112.325 123.926 137.086  0.00  0.00    +0.000 OA
ATOM     29  O   UNL     1     113.640 123.902 136.090  0.00  0.00    +0.000 OA
ATOM     30  C   UNL     1     113.284 125.811 137.625  0.00  0.00    +0.000 A 
ATOM     31  C   UNL     1     112.745 125.187 137.611  0.00  0.00    +0.000 A 
ATOM     32  C   UNL     1     113.942 125.800 137.127  0.00  0.00    +0.000 A 
ATOM     33  C   UNL     1     112.864 124.551 137.099  0.00  0.00    +0.000 A 
ATOM     34  C   UNL     1     114.060 125.163 136.615  0.00  0.00    +0.000 A 
ATOM     35  C   UNL     1     113.521 124.538 136.602  0.00  0.00    +0.000 A 
ENDBRANCH  12  30
TORSDOF 5
ENDMDL
MODEL 10
REMARK VINA RESULT:      -9.0      7.081      9.701
REMARK  Name = 44257914
REMARK  5 active torsions:
REMARK  status: ('A' for Active; 'I' for Inactive)
REMARK    1  A    between atoms: O_2  and  C_13
REMARK    2  A    between atoms: O_2  and  C_25
REMARK    3  A    between atoms: C_15  and  C_18
REMARK    4  A    between atoms: C_17  and  C_19
REMARK    5  A    between atoms: C_28  and  C_30
REMARK                            x       y       z     vdW  Elec       q    Type
REMARK                         _______ _______ _______ _____ _____    ______ ____
ROOT
ATOM      1  O   UNL     1     110.903 127.349 137.647  0.00  0.00    +0.000 OA
ATOM      2  O   UNL     1     113.121 127.000 135.880  0.00  0.00    +0.000 OA
ATOM      3  O   UNL     1     113.468 128.521 138.302  0.00  0.00    +0.000 OA
ATOM      4  O   UNL     1     111.036 128.104 138.869  0.00  0.00    +0.000 OA
ATOM      5  C   UNL     1     112.013 127.175 136.763  0.00  0.00    +0.000 A 
ATOM      6  C   UNL     1     111.695 127.484 137.460  0.00  0.00    +0.000 A 
ATOM      7  C   UNL     1     112.805 127.309 136.575  0.00  0.00    +0.000 A 
ATOM      8  C   UNL     1     112.171 127.927 137.968  0.00  0.00    +0.000 A 
ATOM      9  C   UNL     1     113.279 127.752 137.084  0.00  0.00    +0.000 A 
ATOM     10  C   UNL     1     112.963 128.061 137.780  0.00  0.00    +0.000 A 
ATOM     11  C   UNL     1     111.829 128.243 138.690  0.00  0.00    +0.000 A 
ATOM     12  C   UNL     1     113.143 128.846 139.028  0.00  0.00    +0.000 A 
ATOM     13  C   UNL     1     112.318 128.706 139.223  0.00  0.00    +0.000 A 
ENDROOT
BRANCH   5  19
ATOM     14  O   UNL     1     111.073 127.112 135.688  0.00  0.00    +0.000 OA
ATOM     15  O   UNL     1     111.037 124.644 135.863  0.00  0.00    +0.000 OA
ATOM     16  O   UNL     1     110.110 125.404 134.730  0.00  0.00    +0.000 OA
ATOM     17  C   UNL     1     111.525 125.909 136.313  0.00  0.00    +0.000 C 
ATOM     18  C   UNL     1     111.049 125.466 135.804  0.00  0.00    +0.000 C 
ATOM     19  C   UNL     1     111.537 126.731 136.255  0.00  0.00    +0.000 C 
ATOM     20  C   UNL     1     110.586 125.846 135.238  0.00  0.00    +0.000 C 
ATOM     21  C   UNL     1     110.598 126.669 135.180  0.00  0.00    +0.000 C 
BRANCH  21  23
ATOM     22  O   UNL     1     110.069 127.873 134.620  0.00  0.00    +0.000 OA
ATOM     23  C   UNL     1     110.134 127.050 134.614  0.00  0.00    +0.000 C 
ENDBRANCH  21  23
BRANCH  17  24
ATOM     24  O   UNL     1     111.988 125.529 136.879  0.00  0.00    +0.000 OA
BRANCH  24  26
ATOM     25  O   UNL     1     111.178 124.570 137.563  0.00  0.00    +0.000 OA
ATOM     26  C   UNL     1     111.828 124.746 137.086  0.00  0.00    +0.000 C 
ATOM     27  C   UNL     1     112.318 124.139 136.816  0.00  0.00    +0.000 C 
ENDBRANCH  24  26
ENDBRANCH  17  24
ENDBRANCH   5  19
BRANCH  12  30
ATOM     28  O   UNL     1     114.482 131.290 139.660  0.00  0.00    +0.000 OA
ATOM     29  O   UNL     1     115.052 130.618 141.054  0.00  0.00    +0.000 OA
ATOM     30  C   UNL     1     113.620 129.288 139.535  0.00  0.00    +0.000 A 
ATOM     31  C   UNL     1     113.813 130.068 139.344  0.00  0.00    +0.000 A 
ATOM     32  C   UNL     1     113.905 128.952 140.232  0.00  0.00    +0.000 A 
ATOM     33  C   UNL     1     114.290 130.511 139.850  0.00  0.00    +0.000 A 
ATOM     34  C   UNL     1     114.383 129.396 140.738  0.00  0.00    +0.000 A 
ATOM     35  C   UNL     1     114.575 130.175 140.548  0.00  0.00    +0.000 A 
ENDBRANCH  12  30
TORSDOF 5
ENDMDL
