MODEL 1
REMARK VINA RESULT:      -8.6      0.000      0.000
REMARK  Name = 15227613
REMARK  3 active torsions:
REMARK  status: ('A' for Active; 'I' for Inactive)
REMARK    1  A    between atoms: O_5  and  C_17
REMARK    2  A    between atoms: O_6  and  C_21
REMARK    3  A    between atoms: C_7  and  C_9
REMARK                            x       y       z     vdW  Elec       q    Type
REMARK                         _______ _______ _______ _____ _____    ______ ____
ROOT
ATOM      1  O   UNL     1     104.593 123.655 138.285  0.00  0.00    +0.000 OA
ATOM      2  O   UNL     1     102.144 123.587 138.642  0.00  0.00    +0.000 OA
ATOM      3  O   UNL     1     101.926 123.193 137.272  0.00  0.00    +0.000 OA
ATOM      4  C   UNL     1     104.278 123.838 139.026  0.00  0.00    +0.000 C 
ATOM      5  C   UNL     1     103.462 123.815 139.145  0.00  0.00    +0.000 C 
ATOM      6  C   UNL     1     103.274 123.426 137.783  0.00  0.00    +0.000 A 
ATOM      7  C   UNL     1     102.960 123.609 138.523  0.00  0.00    +0.000 C 
ATOM      8  C   UNL     1     104.090 123.449 137.664  0.00  0.00    +0.000 A 
ATOM      9  C   UNL     1     102.741 123.213 137.144  0.00  0.00    +0.000 A 
ATOM     10  C   UNL     1     104.429 123.260 136.897  0.00  0.00    +0.000 A 
ATOM     11  C   UNL     1     103.912 123.045 136.246  0.00  0.00    +0.000 A 
ATOM     12  C   UNL     1     103.062 123.021 136.370  0.00  0.00    +0.000 A 
ENDROOT
BRANCH   4  14
ATOM     13  O   UNL     1     104.729 125.411 139.237  0.00  0.00    +0.000 OA
ATOM     14  C   UNL     1     104.780 124.044 139.647  0.00  0.00    +0.000 A 
ATOM     15  C   UNL     1     105.006 124.830 139.753  0.00  0.00    +0.000 A 
ATOM     16  C   UNL     1     105.057 123.462 140.164  0.00  0.00    +0.000 A 
ATOM     17  C   UNL     1     105.509 125.035 140.375  0.00  0.00    +0.000 A 
ATOM     18  C   UNL     1     105.560 123.668 140.785  0.00  0.00    +0.000 A 
ATOM     19  C   UNL     1     105.785 124.454 140.890  0.00  0.00    +0.000 A 
BRANCH  19  20
ATOM     20  O   UNL     1     106.288 124.659 141.512  0.00  0.00    +0.000 OA
ATOM     21  C   UNL     1     105.999 124.692 142.283  0.00  0.00    +0.000 C 
ENDBRANCH  19  20
ENDBRANCH   4  14
BRANCH  11  22
ATOM     22  O   UNL     1     104.230 122.862 135.507  0.00  0.00    +0.000 OA
ATOM     23  C   UNL     1     104.290 123.448 134.929  0.00  0.00    +0.000 C 
ENDBRANCH  11  22
TORSDOF 3
ENDMDL
MODEL 2
REMARK VINA RESULT:      -8.4      7.489      9.205
REMARK  Name = 15227613
REMARK  3 active torsions:
REMARK  status: ('A' for Active; 'I' for Inactive)
REMARK    1  A    between atoms: O_5  and  C_17
REMARK    2  A    between atoms: O_6  and  C_21
REMARK    3  A    between atoms: C_7  and  C_9
REMARK                            x       y       z     vdW  Elec       q    Type
REMARK                         _______ _______ _______ _____ _____    ______ ____
ROOT
ATOM      1  O   UNL     1     104.930 124.287 147.201  0.00  0.00    +0.000 OA
ATOM      2  O   UNL     1     106.036 125.371 145.270  0.00  0.00    +0.000 OA
ATOM      3  O   UNL     1     107.185 125.702 146.078  0.00  0.00    +0.000 OA
ATOM      4  C   UNL     1     104.552 124.310 146.467  0.00  0.00    +0.000 C 
ATOM      5  C   UNL     1     104.920 124.672 145.824  0.00  0.00    +0.000 C 
ATOM      6  C   UNL     1     106.046 124.987 146.646  0.00  0.00    +0.000 A 
ATOM      7  C   UNL     1     105.668 125.010 145.914  0.00  0.00    +0.000 C 
ATOM      8  C   UNL     1     105.677 124.625 147.289  0.00  0.00    +0.000 A 
ATOM      9  C   UNL     1     106.824 125.343 146.727  0.00  0.00    +0.000 A 
ATOM     10  C   UNL     1     106.061 124.595 148.058  0.00  0.00    +0.000 A 
ATOM     11  C   UNL     1     106.839 124.945 148.157  0.00  0.00    +0.000 A 
ATOM     12  C   UNL     1     107.223 125.321 147.487  0.00  0.00    +0.000 A 
ENDROOT
BRANCH   4  14
ATOM     13  O   UNL     1     104.397 122.816 145.785  0.00  0.00    +0.000 OA
ATOM     14  C   UNL     1     103.805 123.972 146.378  0.00  0.00    +0.000 A 
ATOM     15  C   UNL     1     103.727 123.225 146.037  0.00  0.00    +0.000 A 
ATOM     16  C   UNL     1     103.134 124.382 146.631  0.00  0.00    +0.000 A 
ATOM     17  C   UNL     1     102.979 122.887 145.949  0.00  0.00    +0.000 A 
ATOM     18  C   UNL     1     102.387 124.043 146.543  0.00  0.00    +0.000 A 
ATOM     19  C   UNL     1     102.310 123.296 146.201  0.00  0.00    +0.000 A 
BRANCH  19  20
ATOM     20  O   UNL     1     101.562 122.959 146.113  0.00  0.00    +0.000 OA
ATOM     21  C   UNL     1     101.049 123.237 145.530  0.00  0.00    +0.000 C 
ENDBRANCH  19  20
ENDBRANCH   4  14
BRANCH  11  22
ATOM     22  O   UNL     1     107.215 124.920 148.892  0.00  0.00    +0.000 OA
ATOM     23  C   UNL     1     107.902 124.473 148.988  0.00  0.00    +0.000 C 
ENDBRANCH  11  22
TORSDOF 3
ENDMDL
MODEL 3
REMARK VINA RESULT:      -7.8      6.604      8.296
REMARK  Name = 15227613
REMARK  3 active torsions:
REMARK  status: ('A' for Active; 'I' for Inactive)
REMARK    1  A    between atoms: O_5  and  C_17
REMARK    2  A    between atoms: O_6  and  C_21
REMARK    3  A    between atoms: C_7  and  C_9
REMARK                            x       y       z     vdW  Elec       q    Type
REMARK                         _______ _______ _______ _____ _____    ______ ____
ROOT
ATOM      1  O   UNL     1     102.985 130.472 142.169  0.00  0.00    +0.000 OA
ATOM      2  O   UNL     1     102.838 129.242 140.026  0.00  0.00    +0.000 OA
ATOM      3  O   UNL     1     103.782 128.256 140.494  0.00  0.00    +0.000 OA
ATOM      4  C   UNL     1     102.491 130.748 141.567  0.00  0.00    +0.000 C 
ATOM      5  C   UNL     1     102.442 130.338 140.853  0.00  0.00    +0.000 C 
ATOM      6  C   UNL     1     103.379 129.376 141.341  0.00  0.00    +0.000 A 
ATOM      7  C   UNL     1     102.887 129.652 140.741  0.00  0.00    +0.000 C 
ATOM      8  C   UNL     1     103.428 129.786 142.055  0.00  0.00    +0.000 A 
ATOM      9  C   UNL     1     103.837 128.660 141.212  0.00  0.00    +0.000 A 
ATOM     10  C   UNL     1     103.939 129.508 142.689  0.00  0.00    +0.000 A 
ATOM     11  C   UNL     1     104.403 128.795 142.577  0.00  0.00    +0.000 A 
ATOM     12  C   UNL     1     104.352 128.368 141.834  0.00  0.00    +0.000 A 
ENDROOT
BRANCH   4  14
ATOM     13  O   UNL     1     103.122 132.217 141.157  0.00  0.00    +0.000 OA
ATOM     14  C   UNL     1     102.048 131.434 141.681  0.00  0.00    +0.000 A 
ATOM     15  C   UNL     1     102.363 132.168 141.476  0.00  0.00    +0.000 A 
ATOM     16  C   UNL     1     101.288 131.385 142.000  0.00  0.00    +0.000 A 
ATOM     17  C   UNL     1     101.918 132.854 141.590  0.00  0.00    +0.000 A 
ATOM     18  C   UNL     1     100.844 132.071 142.113  0.00  0.00    +0.000 A 
ATOM     19  C   UNL     1     101.159 132.806 141.908  0.00  0.00    +0.000 A 
BRANCH  19  20
ATOM     20  O   UNL     1     100.714 133.491 142.023  0.00  0.00    +0.000 OA
ATOM     21  C   UNL     1     100.737 133.882 142.748  0.00  0.00    +0.000 C 
ENDBRANCH  19  20
ENDBRANCH   4  14
BRANCH  11  22
ATOM     22  O   UNL     1     104.895 128.521 143.181  0.00  0.00    +0.000 OA
ATOM     23  C   UNL     1     105.672 128.794 143.234  0.00  0.00    +0.000 C 
ENDBRANCH  11  22
TORSDOF 3
ENDMDL
MODEL 4
REMARK VINA RESULT:      -7.8      1.004      4.580
REMARK  Name = 15227613
REMARK  3 active torsions:
REMARK  status: ('A' for Active; 'I' for Inactive)
REMARK    1  A    between atoms: O_5  and  C_17
REMARK    2  A    between atoms: O_6  and  C_21
REMARK    3  A    between atoms: C_7  and  C_9
REMARK                            x       y       z     vdW  Elec       q    Type
REMARK                         _______ _______ _______ _____ _____    ______ ____
ROOT
ATOM      1  O   UNL     1     104.530 124.599 139.199  0.00  0.00    +0.000 OA
ATOM      2  O   UNL     1     105.818 122.800 140.308  0.00  0.00    +0.000 OA
ATOM      3  O   UNL     1     106.385 123.742 141.242  0.00  0.00    +0.000 OA
ATOM      4  C   UNL     1     104.471 123.822 138.928  0.00  0.00    +0.000 C 
ATOM      5  C   UNL     1     104.900 123.222 139.298  0.00  0.00    +0.000 C 
ATOM      6  C   UNL     1     105.447 124.176 140.210  0.00  0.00    +0.000 A 
ATOM      7  C   UNL     1     105.388 123.400 139.939  0.00  0.00    +0.000 C 
ATOM      8  C   UNL     1     105.018 124.776 139.840  0.00  0.00    +0.000 A 
ATOM      9  C   UNL     1     105.959 124.348 140.879  0.00  0.00    +0.000 A 
ATOM     10  C   UNL     1     105.071 125.589 140.114  0.00  0.00    +0.000 A 
ATOM     11  C   UNL     1     105.577 125.779 140.781  0.00  0.00    +0.000 A 
ATOM     12  C   UNL     1     106.024 125.155 141.166  0.00  0.00    +0.000 A 
ENDROOT
BRANCH   4  14
ATOM     13  O   UNL     1     102.840 123.691 139.143  0.00  0.00    +0.000 OA
ATOM     14  C   UNL     1     103.983 123.645 138.287  0.00  0.00    +0.000 A 
ATOM     15  C   UNL     1     103.167 123.580 138.394  0.00  0.00    +0.000 A 
ATOM     16  C   UNL     1     104.311 123.534 137.537  0.00  0.00    +0.000 A 
ATOM     17  C   UNL     1     102.680 123.404 137.752  0.00  0.00    +0.000 A 
ATOM     18  C   UNL     1     103.822 123.357 136.896  0.00  0.00    +0.000 A 
ATOM     19  C   UNL     1     103.007 123.292 137.004  0.00  0.00    +0.000 A 
BRANCH  19  20
ATOM     20  O   UNL     1     102.520 123.116 136.362  0.00  0.00    +0.000 OA
ATOM     21  C   UNL     1     102.838 123.065 135.603  0.00  0.00    +0.000 C 
ENDBRANCH  19  20
ENDBRANCH   4  14
BRANCH  11  22
ATOM     22  O   UNL     1     105.634 126.558 141.050  0.00  0.00    +0.000 OA
ATOM     23  C   UNL     1     105.471 126.734 141.840  0.00  0.00    +0.000 C 
ENDBRANCH  11  22
TORSDOF 3
ENDMDL
MODEL 5
REMARK VINA RESULT:      -7.7      7.644      8.771
REMARK  Name = 15227613
REMARK  3 active torsions:
REMARK  status: ('A' for Active; 'I' for Inactive)
REMARK    1  A    between atoms: O_5  and  C_17
REMARK    2  A    between atoms: O_6  and  C_21
REMARK    3  A    between atoms: C_7  and  C_9
REMARK                            x       y       z     vdW  Elec       q    Type
REMARK                         _______ _______ _______ _____ _____    ______ ____
ROOT
ATOM      1  O   UNL     1     111.985 125.830 136.338  0.00  0.00    +0.000 OA
ATOM      2  O   UNL     1     111.757 123.481 137.084  0.00  0.00    +0.000 OA
ATOM      3  O   UNL     1     113.190 123.342 137.180  0.00  0.00    +0.000 OA
ATOM      4  C   UNL     1     111.235 125.493 136.419  0.00  0.00    +0.000 C 
ATOM      5  C   UNL     1     111.159 124.710 136.668  0.00  0.00    +0.000 C 
ATOM      6  C   UNL     1     112.581 124.600 136.755  0.00  0.00    +0.000 A 
ATOM      7  C   UNL     1     111.833 124.264 136.835  0.00  0.00    +0.000 C 
ATOM      8  C   UNL     1     112.657 125.383 136.506  0.00  0.00    +0.000 A 
ATOM      9  C   UNL     1     113.275 124.125 136.932  0.00  0.00    +0.000 A 
ATOM     10  C   UNL     1     113.432 125.745 136.418  0.00  0.00    +0.000 A 
ATOM     11  C   UNL     1     114.137 125.285 136.591  0.00  0.00    +0.000 A 
ATOM     12  C   UNL     1     114.058 124.469 136.850  0.00  0.00    +0.000 A 
ENDROOT
BRANCH   4  14
ATOM     13  O   UNL     1     110.614 125.508 134.891  0.00  0.00    +0.000 OA
ATOM     14  C   UNL     1     110.562 125.940 136.251  0.00  0.00    +0.000 A 
ATOM     15  C   UNL     1     110.252 125.948 135.487  0.00  0.00    +0.000 A 
ATOM     16  C   UNL     1     110.200 126.380 136.849  0.00  0.00    +0.000 A 
ATOM     17  C   UNL     1     109.579 126.395 135.320  0.00  0.00    +0.000 A 
ATOM     18  C   UNL     1     109.528 126.827 136.681  0.00  0.00    +0.000 A 
ATOM     19  C   UNL     1     109.217 126.834 135.917  0.00  0.00    +0.000 A 
BRANCH  19  20
ATOM     20  O   UNL     1     108.544 127.282 135.750  0.00  0.00    +0.000 OA
ATOM     21  C   UNL     1     108.581 128.105 135.765  0.00  0.00    +0.000 C 
ENDBRANCH  19  20
ENDBRANCH   4  14
BRANCH  11  22
ATOM     22  O   UNL     1     114.884 125.625 136.510  0.00  0.00    +0.000 OA
ATOM     23  C   UNL     1     115.323 125.494 135.823  0.00  0.00    +0.000 C 
ENDBRANCH  11  22
TORSDOF 3
ENDMDL
MODEL 6
REMARK VINA RESULT:      -7.6      7.315      8.588
REMARK  Name = 15227613
REMARK  3 active torsions:
REMARK  status: ('A' for Active; 'I' for Inactive)
REMARK    1  A    between atoms: O_5  and  C_17
REMARK    2  A    between atoms: O_6  and  C_21
REMARK    3  A    between atoms: C_7  and  C_9
REMARK                            x       y       z     vdW  Elec       q    Type
REMARK                         _______ _______ _______ _____ _____    ______ ____
ROOT
ATOM      1  O   UNL     1     104.579 124.655 145.858  0.00  0.00    +0.000 OA
ATOM      2  O   UNL     1     105.675 124.423 148.065  0.00  0.00    +0.000 OA
ATOM      3  O   UNL     1     106.782 125.242 147.634  0.00  0.00    +0.000 OA
ATOM      4  C   UNL     1     104.220 124.210 146.453  0.00  0.00    +0.000 C 
ATOM      5  C   UNL     1     104.585 124.132 147.189  0.00  0.00    +0.000 C 
ATOM      6  C   UNL     1     105.669 124.946 146.736  0.00  0.00    +0.000 A 
ATOM      7  C   UNL     1     105.310 124.501 147.329  0.00  0.00    +0.000 C 
ATOM      8  C   UNL     1     105.304 125.023 146.000  0.00  0.00    +0.000 A 
ATOM      9  C   UNL     1     106.424 125.325 146.895  0.00  0.00    +0.000 A 
ATOM     10  C   UNL     1     105.668 125.485 145.373  0.00  0.00    +0.000 A 
ATOM     11  C   UNL     1     106.422 125.870 145.514  0.00  0.00    +0.000 A 
ATOM     12  C   UNL     1     106.803 125.790 146.280  0.00  0.00    +0.000 A 
ENDROOT
BRANCH   4  14
ATOM     13  O   UNL     1     104.172 122.739 145.706  0.00  0.00    +0.000 OA
ATOM     14  C   UNL     1     103.495 123.842 146.311  0.00  0.00    +0.000 A 
ATOM     15  C   UNL     1     103.471 123.106 145.937  0.00  0.00    +0.000 A 
ATOM     16  C   UNL     1     102.793 124.210 146.543  0.00  0.00    +0.000 A 
ATOM     17  C   UNL     1     102.746 122.740 145.796  0.00  0.00    +0.000 A 
ATOM     18  C   UNL     1     102.069 123.842 146.401  0.00  0.00    +0.000 A 
ATOM     19  C   UNL     1     102.045 123.107 146.027  0.00  0.00    +0.000 A 
BRANCH  19  20
ATOM     20  O   UNL     1     101.320 122.740 145.886  0.00  0.00    +0.000 OA
ATOM     21  C   UNL     1     100.817 123.030 145.300  0.00  0.00    +0.000 C 
ENDBRANCH  19  20
ENDBRANCH   4  14
BRANCH  11  22
ATOM     22  O   UNL     1     106.779 126.315 144.917  0.00  0.00    +0.000 OA
ATOM     23  C   UNL     1     106.544 127.095 144.789  0.00  0.00    +0.000 C 
ENDBRANCH  11  22
TORSDOF 3
ENDMDL
MODEL 7
REMARK VINA RESULT:      -7.6      6.997      7.875
REMARK  Name = 15227613
REMARK  3 active torsions:
REMARK  status: ('A' for Active; 'I' for Inactive)
REMARK    1  A    between atoms: O_5  and  C_17
REMARK    2  A    between atoms: O_6  and  C_21
REMARK    3  A    between atoms: C_7  and  C_9
REMARK                            x       y       z     vdW  Elec       q    Type
REMARK                         _______ _______ _______ _____ _____    ______ ____
ROOT
ATOM      1  O   UNL     1     110.600 127.276 136.060  0.00  0.00    +0.000 OA
ATOM      2  O   UNL     1     108.127 127.178 136.038  0.00  0.00    +0.000 OA
ATOM      3  O   UNL     1     108.044 128.592 135.770  0.00  0.00    +0.000 OA
ATOM      4  C   UNL     1     110.214 126.558 136.190  0.00  0.00    +0.000 C 
ATOM      5  C   UNL     1     109.390 126.525 136.183  0.00  0.00    +0.000 C 
ATOM      6  C   UNL     1     109.337 127.928 135.916  0.00  0.00    +0.000 A 
ATOM      7  C   UNL     1     108.952 127.211 136.046  0.00  0.00    +0.000 C 
ATOM      8  C   UNL     1     110.161 127.961 135.924  0.00  0.00    +0.000 A 
ATOM      9  C   UNL     1     108.868 128.635 135.775  0.00  0.00    +0.000 A 
ATOM     10  C   UNL     1     110.574 128.703 135.790  0.00  0.00    +0.000 A 
ATOM     11  C   UNL     1     110.122 129.420 135.647  0.00  0.00    +0.000 A 
ATOM     12  C   UNL     1     109.264 129.385 135.640  0.00  0.00    +0.000 A 
ENDROOT
BRANCH   4  14
ATOM     13  O   UNL     1     110.625 125.574 134.930  0.00  0.00    +0.000 OA
ATOM     14  C   UNL     1     110.654 125.873 136.326  0.00  0.00    +0.000 A 
ATOM     15  C   UNL     1     110.859 125.382 135.697  0.00  0.00    +0.000 A 
ATOM     16  C   UNL     1     110.888 125.681 137.094  0.00  0.00    +0.000 A 
ATOM     17  C   UNL     1     111.299 124.697 135.835  0.00  0.00    +0.000 A 
ATOM     18  C   UNL     1     111.328 124.996 137.231  0.00  0.00    +0.000 A 
ATOM     19  C   UNL     1     111.533 124.504 136.601  0.00  0.00    +0.000 A 
BRANCH  19  20
ATOM     20  O   UNL     1     111.973 123.820 136.739  0.00  0.00    +0.000 OA
ATOM     21  C   UNL     1     112.789 123.867 136.845  0.00  0.00    +0.000 C 
ENDBRANCH  19  20
ENDBRANCH   4  14
BRANCH  11  22
ATOM     22  O   UNL     1     110.511 130.136 135.518  0.00  0.00    +0.000 OA
ATOM     23  C   UNL     1     110.723 130.611 136.159  0.00  0.00    +0.000 C 
ENDBRANCH  11  22
TORSDOF 3
ENDMDL
MODEL 8
REMARK VINA RESULT:      -7.5      8.062      9.290
REMARK  Name = 15227613
REMARK  3 active torsions:
REMARK  status: ('A' for Active; 'I' for Inactive)
REMARK    1  A    between atoms: O_5  and  C_17
REMARK    2  A    between atoms: O_6  and  C_21
REMARK    3  A    between atoms: C_7  and  C_9
REMARK                            x       y       z     vdW  Elec       q    Type
REMARK                         _______ _______ _______ _____ _____    ______ ____
ROOT
ATOM      1  O   UNL     1     112.619 126.124 138.389  0.00  0.00    +0.000 OA
ATOM      2  O   UNL     1     114.776 125.141 137.677  0.00  0.00    +0.000 OA
ATOM      3  O   UNL     1     114.117 124.359 136.660  0.00  0.00    +0.000 OA
ATOM      4  C   UNL     1     113.318 126.342 138.770  0.00  0.00    +0.000 C 
ATOM      5  C   UNL     1     114.037 126.014 138.533  0.00  0.00    +0.000 C 
ATOM      6  C   UNL     1     113.359 125.251 137.533  0.00  0.00    +0.000 A 
ATOM      7  C   UNL     1     114.057 125.469 137.914  0.00  0.00    +0.000 C 
ATOM      8  C   UNL     1     112.640 125.578 137.770  0.00  0.00    +0.000 A 
ATOM      9  C   UNL     1     113.394 124.681 136.890  0.00  0.00    +0.000 A 
ATOM     10  C   UNL     1     111.906 125.359 137.381  0.00  0.00    +0.000 A 
ATOM     11  C   UNL     1     111.921 124.792 136.736  0.00  0.00    +0.000 A 
ATOM     12  C   UNL     1     112.670 124.451 136.489  0.00  0.00    +0.000 A 
ENDROOT
BRANCH   4  14
ATOM     13  O   UNL     1     113.314 127.960 138.445  0.00  0.00    +0.000 OA
ATOM     14  C   UNL     1     113.297 126.887 139.389  0.00  0.00    +0.000 A 
ATOM     15  C   UNL     1     113.294 127.696 139.226  0.00  0.00    +0.000 A 
ATOM     16  C   UNL     1     113.278 126.623 140.171  0.00  0.00    +0.000 A 
ATOM     17  C   UNL     1     113.273 128.241 139.846  0.00  0.00    +0.000 A 
ATOM     18  C   UNL     1     113.256 127.169 140.789  0.00  0.00    +0.000 A 
ATOM     19  C   UNL     1     113.254 127.978 140.627  0.00  0.00    +0.000 A 
BRANCH  19  20
ATOM     20  O   UNL     1     113.233 128.522 141.246  0.00  0.00    +0.000 OA
ATOM     21  C   UNL     1     112.529 128.658 141.653  0.00  0.00    +0.000 C 
ENDBRANCH  19  20
ENDBRANCH   4  14
BRANCH  11  22
ATOM     22  O   UNL     1     111.220 124.576 136.357  0.00  0.00    +0.000 OA
ATOM     23  C   UNL     1     110.909 125.056 135.763  0.00  0.00    +0.000 C 
ENDBRANCH  11  22
TORSDOF 3
ENDMDL
MODEL 9
REMARK VINA RESULT:      -7.5      8.791      9.710
REMARK  Name = 15227613
REMARK  3 active torsions:
REMARK  status: ('A' for Active; 'I' for Inactive)
REMARK    1  A    between atoms: O_5  and  C_17
REMARK    2  A    between atoms: O_6  and  C_21
REMARK    3  A    between atoms: C_7  and  C_9
REMARK                            x       y       z     vdW  Elec       q    Type
REMARK                         _______ _______ _______ _____ _____    ______ ____
ROOT
ATOM      1  O   UNL     1     112.259 127.259 136.050  0.00  0.00    +0.000 OA
ATOM      2  O   UNL     1     113.564 125.354 136.941  0.00  0.00    +0.000 OA
ATOM      3  O   UNL     1     112.488 124.440 136.642  0.00  0.00    +0.000 OA
ATOM      4  C   UNL     1     113.018 127.383 136.352  0.00  0.00    +0.000 C 
ATOM      5  C   UNL     1     113.452 126.748 136.649  0.00  0.00    +0.000 C 
ATOM      6  C   UNL     1     112.372 125.865 136.342  0.00  0.00    +0.000 A 
ATOM      7  C   UNL     1     113.129 125.989 136.644  0.00  0.00    +0.000 C 
ATOM      8  C   UNL     1     111.937 126.500 136.045  0.00  0.00    +0.000 A 
ATOM      9  C   UNL     1     112.046 125.069 136.343  0.00  0.00    +0.000 A 
ATOM     10  C   UNL     1     111.146 126.383 135.728  0.00  0.00    +0.000 A 
ATOM     11  C   UNL     1     110.805 125.595 135.720  0.00  0.00    +0.000 A 
ATOM     12  C   UNL     1     111.258 124.934 136.030  0.00  0.00    +0.000 A 
ENDROOT
BRANCH   4  14
ATOM     13  O   UNL     1     112.759 128.383 137.639  0.00  0.00    +0.000 OA
ATOM     14  C   UNL     1     113.340 128.143 136.357  0.00  0.00    +0.000 A 
ATOM     15  C   UNL     1     113.210 128.642 137.001  0.00  0.00    +0.000 A 
ATOM     16  C   UNL     1     113.792 128.402 135.717  0.00  0.00    +0.000 A 
ATOM     17  C   UNL     1     113.533 129.402 137.004  0.00  0.00    +0.000 A 
ATOM     18  C   UNL     1     114.114 129.162 135.722  0.00  0.00    +0.000 A 
ATOM     19  C   UNL     1     113.985 129.661 136.365  0.00  0.00    +0.000 A 
BRANCH  19  20
ATOM     20  O   UNL     1     114.308 130.421 136.369  0.00  0.00    +0.000 OA
ATOM     21  C   UNL     1     115.003 130.576 135.953  0.00  0.00    +0.000 C 
ENDBRANCH  19  20
ENDBRANCH   4  14
BRANCH  11  22
ATOM     22  O   UNL     1     110.047 125.475 135.418  0.00  0.00    +0.000 OA
ATOM     23  C   UNL     1     109.853 125.760 134.668  0.00  0.00    +0.000 C 
ENDBRANCH  11  22
TORSDOF 3
ENDMDL
MODEL 10
REMARK VINA RESULT:      -7.5      7.152      8.005
REMARK  Name = 15227613
REMARK  3 active torsions:
REMARK  status: ('A' for Active; 'I' for Inactive)
REMARK    1  A    between atoms: O_5  and  C_17
REMARK    2  A    between atoms: O_6  and  C_21
REMARK    3  A    between atoms: C_7  and  C_9
REMARK                            x       y       z     vdW  Elec       q    Type
REMARK                         _______ _______ _______ _____ _____    ______ ____
ROOT
ATOM      1  O   UNL     1     111.052 126.295 136.675  0.00  0.00    +0.000 OA
ATOM      2  O   UNL     1     109.817 125.374 134.737  0.00  0.00    +0.000 OA
ATOM      3  O   UNL     1     108.794 126.382 134.873  0.00  0.00    +0.000 OA
ATOM      4  C   UNL     1     111.346 125.636 136.273  0.00  0.00    +0.000 C 
ATOM      5  C   UNL     1     110.934 125.329 135.627  0.00  0.00    +0.000 C 
ATOM      6  C   UNL     1     109.935 126.338 135.784  0.00  0.00    +0.000 A 
ATOM      7  C   UNL     1     110.229 125.681 135.383  0.00  0.00    +0.000 C 
ATOM      8  C   UNL     1     110.346 126.645 136.430  0.00  0.00    +0.000 A 
ATOM      9  C   UNL     1     109.199 126.696 135.520  0.00  0.00    +0.000 A 
ATOM     10  C   UNL     1     110.050 127.330 136.856  0.00  0.00    +0.000 A 
ATOM     11  C   UNL     1     109.316 127.700 136.606  0.00  0.00    +0.000 A 
ATOM     12  C   UNL     1     108.888 127.381 135.934  0.00  0.00    +0.000 A 
ENDROOT
BRANCH   4  14
ATOM     13  O   UNL     1     111.313 124.339 137.293  0.00  0.00    +0.000 OA
ATOM     14  C   UNL     1     112.051 125.285 136.517  0.00  0.00    +0.000 A 
ATOM     15  C   UNL     1     112.035 124.637 137.027  0.00  0.00    +0.000 A 
ATOM     16  C   UNL     1     112.774 125.584 136.252  0.00  0.00    +0.000 A 
ATOM     17  C   UNL     1     112.741 124.287 137.272  0.00  0.00    +0.000 A 
ATOM     18  C   UNL     1     113.479 125.233 136.497  0.00  0.00    +0.000 A 
ATOM     19  C   UNL     1     113.463 124.585 137.007  0.00  0.00    +0.000 A 
BRANCH  19  20
ATOM     20  O   UNL     1     114.169 124.235 137.251  0.00  0.00    +0.000 OA
ATOM     21  C   UNL     1     114.842 124.697 137.364  0.00  0.00    +0.000 C 
ENDBRANCH  19  20
ENDBRANCH   4  14
BRANCH  11  22
ATOM     22  O   UNL     1     109.025 128.359 137.010  0.00  0.00    +0.000 OA
ATOM     23  C   UNL     1     109.266 129.117 136.791  0.00  0.00    +0.000 C 
ENDBRANCH  11  22
TORSDOF 3
ENDMDL
