MODEL 1
REMARK VINA RESULT:      -9.7      0.000      0.000
REMARK  Name = 42607905
REMARK  3 active torsions:
REMARK  status: ('A' for Active; 'I' for Inactive)
REMARK    1  A    between atoms: O_2  and  C_14
REMARK    2  A    between atoms: O_2  and  C_16
REMARK    3  A    between atoms: C_17  and  C_25
REMARK                            x       y       z     vdW  Elec       q    Type
REMARK                         _______ _______ _______ _____ _____    ______ ____
ROOT
ATOM      1  O   UNL     1     112.259 126.500 136.205  0.00  0.00    +0.000 OA
ATOM      2  O   UNL     1     109.745 125.712 135.019  0.00  0.00    +0.000 OA
ATOM      3  O   UNL     1     110.672 124.728 135.525  0.00  0.00    +0.000 OA
ATOM      4  C   UNL     1     110.622 127.749 135.338  0.00  0.00    +0.000 A 
ATOM      5  C   UNL     1     112.445 125.707 136.339  0.00  0.00    +0.000 C 
ATOM      6  C   UNL     1     111.915 125.117 136.112  0.00  0.00    +0.000 C 
ATOM      7  C   UNL     1     111.545 126.703 135.846  0.00  0.00    +0.000 A 
ATOM      8  C   UNL     1     111.016 126.112 135.619  0.00  0.00    +0.000 A 
ATOM      9  C   UNL     1     111.364 127.532 135.712  0.00  0.00    +0.000 A 
ATOM     10  C   UNL     1     111.201 125.319 135.752  0.00  0.00    +0.000 C 
ATOM     11  C   UNL     1     110.070 127.133 135.101  0.00  0.00    +0.000 A 
ATOM     12  C   UNL     1     110.268 126.310 135.243  0.00  0.00    +0.000 A 
ENDROOT
BRANCH   5  14
ATOM     13  O   UNL     1     115.301 124.898 137.779  0.00  0.00    +0.000 OA
ATOM     14  C   UNL     1     113.159 125.505 136.699  0.00  0.00    +0.000 A 
ATOM     15  C   UNL     1     113.787 125.228 136.242  0.00  0.00    +0.000 A 
ATOM     16  C   UNL     1     113.244 125.580 137.516  0.00  0.00    +0.000 A 
ATOM     17  C   UNL     1     114.501 125.026 136.602  0.00  0.00    +0.000 A 
ATOM     18  C   UNL     1     113.958 125.378 137.876  0.00  0.00    +0.000 A 
ATOM     19  C   UNL     1     114.587 125.101 137.419  0.00  0.00    +0.000 A 
ENDBRANCH   5  14
BRANCH   4  20
ATOM     20  O   UNL     1     110.439 128.543 135.206  0.00  0.00    +0.000 OA
BRANCH  20  29
ATOM     21  O   UNL     1     110.063 128.883 136.542  0.00  0.00    +0.000 OA
ATOM     22  O   UNL     1     108.208 130.269 135.667  0.00  0.00    +0.000 OA
ATOM     23  O   UNL     1     108.450 130.147 137.294  0.00  0.00    +0.000 OA
ATOM     24  O   UNL     1     109.203 129.467 134.623  0.00  0.00    +0.000 OA
ATOM     25  C   UNL     1     108.826 129.807 135.958  0.00  0.00    +0.000 C 
ATOM     26  C   UNL     1     108.948 129.746 136.772  0.00  0.00    +0.000 C 
ATOM     27  C   UNL     1     109.324 129.406 135.437  0.00  0.00    +0.000 C 
ATOM     28  C   UNL     1     109.566 129.284 137.064  0.00  0.00    +0.000 C 
ATOM     29  C   UNL     1     109.942 128.944 135.729  0.00  0.00    +0.000 C 
ATOM     30  C   UNL     1     109.686 129.223 137.878  0.00  0.00    +0.000 C 
ENDBRANCH  20  29
ENDBRANCH   4  20
TORSDOF 3
ENDMDL
MODEL 2
REMARK VINA RESULT:      -9.4      1.287      2.098
REMARK  Name = 42607905
REMARK  3 active torsions:
REMARK  status: ('A' for Active; 'I' for Inactive)
REMARK    1  A    between atoms: O_2  and  C_14
REMARK    2  A    between atoms: O_2  and  C_16
REMARK    3  A    between atoms: C_17  and  C_25
REMARK                            x       y       z     vdW  Elec       q    Type
REMARK                         _______ _______ _______ _____ _____    ______ ____
ROOT
ATOM      1  O   UNL     1     112.749 127.061 136.249  0.00  0.00    +0.000 OA
ATOM      2  O   UNL     1     113.081 129.765 135.288  0.00  0.00    +0.000 OA
ATOM      3  O   UNL     1     114.205 129.005 135.776  0.00  0.00    +0.000 OA
ATOM      4  C   UNL     1     111.240 128.496 135.437  0.00  0.00    +0.000 A 
ATOM      5  C   UNL     1     113.557 127.019 136.409  0.00  0.00    +0.000 C 
ATOM      6  C   UNL     1     114.042 127.667 136.252  0.00  0.00    +0.000 C 
ATOM      7  C   UNL     1     112.426 127.749 135.931  0.00  0.00    +0.000 A 
ATOM      8  C   UNL     1     112.911 128.398 135.774  0.00  0.00    +0.000 A 
ATOM      9  C   UNL     1     111.583 127.781 135.768  0.00  0.00    +0.000 A 
ATOM     10  C   UNL     1     113.719 128.357 135.934  0.00  0.00    +0.000 C 
ATOM     11  C   UNL     1     111.746 129.171 135.273  0.00  0.00    +0.000 A 
ATOM     12  C   UNL     1     112.587 129.122 135.442  0.00  0.00    +0.000 A 
ENDROOT
BRANCH   5  14
ATOM     13  O   UNL     1     114.849 124.261 137.679  0.00  0.00    +0.000 OA
ATOM     14  C   UNL     1     113.880 126.329 136.727  0.00  0.00    +0.000 A 
ATOM     15  C   UNL     1     113.803 126.171 137.533  0.00  0.00    +0.000 A 
ATOM     16  C   UNL     1     114.280 125.798 136.238  0.00  0.00    +0.000 A 
ATOM     17  C   UNL     1     114.127 125.482 137.850  0.00  0.00    +0.000 A 
ATOM     18  C   UNL     1     114.603 125.109 136.555  0.00  0.00    +0.000 A 
ATOM     19  C   UNL     1     114.526 124.950 137.361  0.00  0.00    +0.000 A 
ENDBRANCH   5  14
BRANCH   4  20
ATOM     20  O   UNL     1     110.432 128.534 135.278  0.00  0.00    +0.000 OA
BRANCH  20  29
ATOM     21  O   UNL     1     110.048 128.915 136.601  0.00  0.00    +0.000 OA
ATOM     22  O   UNL     1     108.193 130.266 135.675  0.00  0.00    +0.000 OA
ATOM     23  O   UNL     1     108.428 130.196 137.307  0.00  0.00    +0.000 OA
ATOM     24  O   UNL     1     109.195 129.435 134.661  0.00  0.00    +0.000 OA
ATOM     25  C   UNL     1     108.811 129.816 135.984  0.00  0.00    +0.000 C 
ATOM     26  C   UNL     1     108.929 129.780 136.799  0.00  0.00    +0.000 C 
ATOM     27  C   UNL     1     109.313 129.400 135.477  0.00  0.00    +0.000 C 
ATOM     28  C   UNL     1     109.548 129.330 137.108  0.00  0.00    +0.000 C 
ATOM     29  C   UNL     1     109.931 128.949 135.786  0.00  0.00    +0.000 C 
ATOM     30  C   UNL     1     109.665 129.295 137.924  0.00  0.00    +0.000 C 
ENDBRANCH  20  29
ENDBRANCH   4  20
TORSDOF 3
ENDMDL
MODEL 3
REMARK VINA RESULT:      -9.4      9.306     11.721
REMARK  Name = 42607905
REMARK  3 active torsions:
REMARK  status: ('A' for Active; 'I' for Inactive)
REMARK    1  A    between atoms: O_2  and  C_14
REMARK    2  A    between atoms: O_2  and  C_16
REMARK    3  A    between atoms: C_17  and  C_25
REMARK                            x       y       z     vdW  Elec       q    Type
REMARK                         _______ _______ _______ _____ _____    ______ ____
ROOT
ATOM      1  O   UNL     1     103.132 133.024 140.898  0.00  0.00    +0.000 OA
ATOM      2  O   UNL     1     100.748 132.349 142.384  0.00  0.00    +0.000 OA
ATOM      3  O   UNL     1     101.179 133.719 142.249  0.00  0.00    +0.000 OA
ATOM      4  C   UNL     1     102.199 131.033 141.295  0.00  0.00    +0.000 A 
ATOM      5  C   UNL     1     103.010 133.823 141.064  0.00  0.00    +0.000 C 
ATOM      6  C   UNL     1     102.358 134.054 141.514  0.00  0.00    +0.000 C 
ATOM      7  C   UNL     1     102.606 132.457 141.181  0.00  0.00    +0.000 A 
ATOM      8  C   UNL     1     101.954 132.688 141.632  0.00  0.00    +0.000 A 
ATOM      9  C   UNL     1     102.744 131.628 141.002  0.00  0.00    +0.000 A 
ATOM     10  C   UNL     1     101.831 133.487 141.798  0.00  0.00    +0.000 C 
ATOM     11  C   UNL     1     101.520 131.275 141.764  0.00  0.00    +0.000 A 
ATOM     12  C   UNL     1     101.397 132.108 141.934  0.00  0.00    +0.000 A 
ENDROOT
BRANCH   5  14
ATOM     13  O   UNL     1     105.120 136.091 139.928  0.00  0.00    +0.000 OA
ATOM     14  C   UNL     1     103.537 134.390 140.780  0.00  0.00    +0.000 A 
ATOM     15  C   UNL     1     103.608 134.518 139.968  0.00  0.00    +0.000 A 
ATOM     16  C   UNL     1     103.994 134.829 141.308  0.00  0.00    +0.000 A 
ATOM     17  C   UNL     1     104.135 135.085 139.684  0.00  0.00    +0.000 A 
ATOM     18  C   UNL     1     104.522 135.396 141.024  0.00  0.00    +0.000 A 
ATOM     19  C   UNL     1     104.592 135.524 140.212  0.00  0.00    +0.000 A 
ENDBRANCH   5  14
BRANCH   4  20
ATOM     20  O   UNL     1     102.325 130.235 141.127  0.00  0.00    +0.000 OA
BRANCH  20  29
ATOM     21  O   UNL     1     103.131 129.995 142.282  0.00  0.00    +0.000 OA
ATOM     22  O   UNL     1     104.401 128.273 141.036  0.00  0.00    +0.000 OA
ATOM     23  O   UNL     1     104.784 128.607 142.606  0.00  0.00    +0.000 OA
ATOM     24  O   UNL     1     103.171 129.088 140.297  0.00  0.00    +0.000 OA
ATOM     25  C   UNL     1     103.978 128.847 141.451  0.00  0.00    +0.000 C 
ATOM     26  C   UNL     1     104.169 129.014 142.236  0.00  0.00    +0.000 C 
ATOM     27  C   UNL     1     103.363 129.255 141.082  0.00  0.00    +0.000 C 
ATOM     28  C   UNL     1     103.745 129.588 142.651  0.00  0.00    +0.000 C 
ATOM     29  C   UNL     1     102.940 129.828 141.497  0.00  0.00    +0.000 C 
ATOM     30  C   UNL     1     103.938 129.754 143.437  0.00  0.00    +0.000 C 
ENDBRANCH  20  29
ENDBRANCH   4  20
TORSDOF 3
ENDMDL
MODEL 4
REMARK VINA RESULT:      -9.3      8.054     10.811
REMARK  Name = 42607905
REMARK  3 active torsions:
REMARK  status: ('A' for Active; 'I' for Inactive)
REMARK    1  A    between atoms: O_2  and  C_14
REMARK    2  A    between atoms: O_2  and  C_16
REMARK    3  A    between atoms: C_17  and  C_25
REMARK                            x       y       z     vdW  Elec       q    Type
REMARK                         _______ _______ _______ _____ _____    ______ ____
ROOT
ATOM      1  O   UNL     1     103.126 130.247 142.136  0.00  0.00    +0.000 OA
ATOM      2  O   UNL     1     103.896 128.051 140.424  0.00  0.00    +0.000 OA
ATOM      3  O   UNL     1     103.038 129.106 139.942  0.00  0.00    +0.000 OA
ATOM      4  C   UNL     1     104.422 128.476 142.560  0.00  0.00    +0.000 A 
ATOM      5  C   UNL     1     102.686 130.573 141.519  0.00  0.00    +0.000 C 
ATOM      6  C   UNL     1     102.657 130.193 140.788  0.00  0.00    +0.000 C 
ATOM      7  C   UNL     1     103.537 129.541 142.023  0.00  0.00    +0.000 A 
ATOM      8  C   UNL     1     103.508 129.160 141.291  0.00  0.00    +0.000 A 
ATOM      9  C   UNL     1     103.992 129.211 142.672  0.00  0.00    +0.000 A 
ATOM     10  C   UNL     1     103.068 129.486 140.674  0.00  0.00    +0.000 C 
ATOM     11  C   UNL     1     104.391 128.079 141.798  0.00  0.00    +0.000 A 
ATOM     12  C   UNL     1     103.931 128.424 141.159  0.00  0.00    +0.000 A 
ENDROOT
BRANCH   5  14
ATOM     13  O   UNL     1     101.044 133.399 141.976  0.00  0.00    +0.000 OA
ATOM     14  C   UNL     1     102.275 131.280 141.634  0.00  0.00    +0.000 A 
ATOM     15  C   UNL     1     101.494 131.264 141.899  0.00  0.00    +0.000 A 
ATOM     16  C   UNL     1     102.646 132.001 141.482  0.00  0.00    +0.000 A 
ATOM     17  C   UNL     1     101.085 131.971 142.013  0.00  0.00    +0.000 A 
ATOM     18  C   UNL     1     102.236 132.708 141.596  0.00  0.00    +0.000 A 
ATOM     19  C   UNL     1     101.455 132.692 141.861  0.00  0.00    +0.000 A 
ENDBRANCH   5  14
BRANCH   4  20
ATOM     20  O   UNL     1     104.861 128.153 143.179  0.00  0.00    +0.000 OA
BRANCH  20  29
ATOM     21  O   UNL     1     106.117 128.744 142.839  0.00  0.00    +0.000 OA
ATOM     22  O   UNL     1     107.277 126.659 143.498  0.00  0.00    +0.000 OA
ATOM     23  O   UNL     1     108.146 127.945 142.939  0.00  0.00    +0.000 OA
ATOM     24  O   UNL     1     105.634 126.763 143.618  0.00  0.00    +0.000 OA
ATOM     25  C   UNL     1     106.890 127.354 143.278  0.00  0.00    +0.000 C 
ATOM     26  C   UNL     1     107.324 127.997 142.999  0.00  0.00    +0.000 C 
ATOM     27  C   UNL     1     106.069 127.406 143.338  0.00  0.00    +0.000 C 
ATOM     28  C   UNL     1     106.937 128.692 142.779  0.00  0.00    +0.000 C 
ATOM     29  C   UNL     1     105.682 128.101 143.119  0.00  0.00    +0.000 C 
ATOM     30  C   UNL     1     107.372 129.335 142.500  0.00  0.00    +0.000 C 
ENDBRANCH  20  29
ENDBRANCH   4  20
TORSDOF 3
ENDMDL
MODEL 5
REMARK VINA RESULT:      -9.3      7.328      8.718
REMARK  Name = 42607905
REMARK  3 active torsions:
REMARK  status: ('A' for Active; 'I' for Inactive)
REMARK    1  A    between atoms: O_2  and  C_14
REMARK    2  A    between atoms: O_2  and  C_16
REMARK    3  A    between atoms: C_17  and  C_25
REMARK                            x       y       z     vdW  Elec       q    Type
REMARK                         _______ _______ _______ _____ _____    ______ ____
ROOT
ATOM      1  O   UNL     1     104.791 124.640 139.866  0.00  0.00    +0.000 OA
ATOM      2  O   UNL     1     107.210 123.578 141.035  0.00  0.00    +0.000 OA
ATOM      3  O   UNL     1     106.324 122.739 140.265  0.00  0.00    +0.000 OA
ATOM      4  C   UNL     1     106.359 125.650 141.097  0.00  0.00    +0.000 A 
ATOM      5  C   UNL     1     104.616 123.897 139.553  0.00  0.00    +0.000 C 
ATOM      6  C   UNL     1     105.127 123.264 139.686  0.00  0.00    +0.000 C 
ATOM      7  C   UNL     1     105.476 124.750 140.312  0.00  0.00    +0.000 A 
ATOM      8  C   UNL     1     105.987 124.117 140.445  0.00  0.00    +0.000 A 
ATOM      9  C   UNL     1     105.647 125.529 140.632  0.00  0.00    +0.000 A 
ATOM     10  C   UNL     1     105.813 123.373 140.132  0.00  0.00    +0.000 C 
ATOM     11  C   UNL     1     106.892 124.989 141.236  0.00  0.00    +0.000 A 
ATOM     12  C   UNL     1     106.704 124.218 140.908  0.00  0.00    +0.000 A 
ENDROOT
BRANCH   5  14
ATOM     13  O   UNL     1     101.874 123.458 137.771  0.00  0.00    +0.000 OA
ATOM     14  C   UNL     1     103.930 123.787 139.107  0.00  0.00    +0.000 A 
ATOM     15  C   UNL     1     103.945 123.909 138.291  0.00  0.00    +0.000 A 
ATOM     16  C   UNL     1     103.230 123.556 139.478  0.00  0.00    +0.000 A 
ATOM     17  C   UNL     1     103.259 123.799 137.847  0.00  0.00    +0.000 A 
ATOM     18  C   UNL     1     102.545 123.446 139.033  0.00  0.00    +0.000 A 
ATOM     19  C   UNL     1     102.559 123.567 138.217  0.00  0.00    +0.000 A 
ENDBRANCH   5  14
BRANCH   4  20
ATOM     20  O   UNL     1     106.530 126.394 141.409  0.00  0.00    +0.000 OA
BRANCH  20  29
ATOM     21  O   UNL     1     106.209 126.119 142.774  0.00  0.00    +0.000 OA
ATOM     22  O   UNL     1     105.161 128.352 142.977  0.00  0.00    +0.000 OA
ATOM     23  O   UNL     1     105.189 127.333 144.274  0.00  0.00    +0.000 OA
ATOM     24  O   UNL     1     105.831 127.883 141.544  0.00  0.00    +0.000 OA
ATOM     25  C   UNL     1     105.510 127.608 142.909  0.00  0.00    +0.000 C 
ATOM     26  C   UNL     1     105.525 127.098 143.557  0.00  0.00    +0.000 C 
ATOM     27  C   UNL     1     105.846 127.373 142.193  0.00  0.00    +0.000 C 
ATOM     28  C   UNL     1     105.874 126.353 143.490  0.00  0.00    +0.000 C 
ATOM     29  C   UNL     1     106.195 126.628 142.126  0.00  0.00    +0.000 C 
ATOM     30  C   UNL     1     105.888 125.844 144.139  0.00  0.00    +0.000 C 
ENDBRANCH  20  29
ENDBRANCH   4  20
TORSDOF 3
ENDMDL
MODEL 6
REMARK VINA RESULT:      -9.3      1.965      3.533
REMARK  Name = 42607905
REMARK  3 active torsions:
REMARK  status: ('A' for Active; 'I' for Inactive)
REMARK    1  A    between atoms: O_2  and  C_14
REMARK    2  A    between atoms: O_2  and  C_16
REMARK    3  A    between atoms: C_17  and  C_25
REMARK                            x       y       z     vdW  Elec       q    Type
REMARK                         _______ _______ _______ _____ _____    ______ ____
ROOT
ATOM      1  O   UNL     1     110.255 128.106 136.173  0.00  0.00    +0.000 OA
ATOM      2  O   UNL     1     107.868 129.717 135.943  0.00  0.00    +0.000 OA
ATOM      3  O   UNL     1     107.829 128.292 135.719  0.00  0.00    +0.000 OA
ATOM      4  C   UNL     1     109.970 130.305 136.451  0.00  0.00    +0.000 A 
ATOM      5  C   UNL     1     109.818 127.432 135.983  0.00  0.00    +0.000 C 
ATOM      6  C   UNL     1     109.009 127.495 135.832  0.00  0.00    +0.000 C 
ATOM      7  C   UNL     1     109.884 128.841 136.211  0.00  0.00    +0.000 A 
ATOM      8  C   UNL     1     109.076 128.904 136.060  0.00  0.00    +0.000 A 
ATOM      9  C   UNL     1     110.350 129.535 136.409  0.00  0.00    +0.000 A 
ATOM     10  C   UNL     1     108.638 128.230 135.870  0.00  0.00    +0.000 C 
ATOM     11  C   UNL     1     109.127 130.369 136.293  0.00  0.00    +0.000 A 
ATOM     12  C   UNL     1     108.677 129.664 136.096  0.00  0.00    +0.000 A 
ENDROOT
BRANCH   5  14
ATOM     13  O   UNL     1     111.302 124.489 135.829  0.00  0.00    +0.000 OA
ATOM     14  C   UNL     1     110.189 126.696 135.945  0.00  0.00    +0.000 A 
ATOM     15  C   UNL     1     110.389 126.298 136.639  0.00  0.00    +0.000 A 
ATOM     16  C   UNL     1     110.360 126.358 135.211  0.00  0.00    +0.000 A 
ATOM     17  C   UNL     1     110.760 125.563 136.600  0.00  0.00    +0.000 A 
ATOM     18  C   UNL     1     110.731 125.622 135.173  0.00  0.00    +0.000 A 
ATOM     19  C   UNL     1     110.931 125.225 135.867  0.00  0.00    +0.000 A 
ENDBRANCH   5  14
BRANCH   4  20
ATOM     20  O   UNL     1     110.409 130.976 136.641  0.00  0.00    +0.000 OA
BRANCH  20  29
ATOM     21  O   UNL     1     110.334 130.833 138.061  0.00  0.00    +0.000 OA
ATOM     22  O   UNL     1     110.162 133.290 138.299  0.00  0.00    +0.000 OA
ATOM     23  O   UNL     1     110.144 132.328 139.640  0.00  0.00    +0.000 OA
ATOM     24  O   UNL     1     110.294 132.614 136.800  0.00  0.00    +0.000 OA
ATOM     25  C   UNL     1     110.219 132.471 138.220  0.00  0.00    +0.000 C 
ATOM     26  C   UNL     1     110.211 131.990 138.889  0.00  0.00    +0.000 C 
ATOM     27  C   UNL     1     110.286 132.133 137.471  0.00  0.00    +0.000 C 
ATOM     28  C   UNL     1     110.268 131.171 138.810  0.00  0.00    +0.000 C 
ATOM     29  C   UNL     1     110.343 131.314 137.391  0.00  0.00    +0.000 C 
ATOM     30  C   UNL     1     110.259 130.690 139.481  0.00  0.00    +0.000 C 
ENDBRANCH  20  29
ENDBRANCH   4  20
TORSDOF 3
ENDMDL
MODEL 7
REMARK VINA RESULT:      -9.2      9.646     11.719
REMARK  Name = 42607905
REMARK  3 active torsions:
REMARK  status: ('A' for Active; 'I' for Inactive)
REMARK    1  A    between atoms: O_2  and  C_14
REMARK    2  A    between atoms: O_2  and  C_16
REMARK    3  A    between atoms: C_17  and  C_25
REMARK                            x       y       z     vdW  Elec       q    Type
REMARK                         _______ _______ _______ _____ _____    ______ ____
ROOT
ATOM      1  O   UNL     1     105.379 126.423 144.055  0.00  0.00    +0.000 OA
ATOM      2  O   UNL     1     107.187 126.340 146.306  0.00  0.00    +0.000 OA
ATOM      3  O   UNL     1     107.197 127.449 145.383  0.00  0.00    +0.000 OA
ATOM      4  C   UNL     1     105.621 124.878 145.650  0.00  0.00    +0.000 A 
ATOM      5  C   UNL     1     105.697 127.150 143.826  0.00  0.00    +0.000 C 
ATOM      6  C   UNL     1     106.303 127.491 144.269  0.00  0.00    +0.000 C 
ATOM      7  C   UNL     1     105.666 126.039 144.725  0.00  0.00    +0.000 A 
ATOM      8  C   UNL     1     106.272 126.381 145.168  0.00  0.00    +0.000 A 
ATOM      9  C   UNL     1     105.326 125.283 144.953  0.00  0.00    +0.000 A 
ATOM     10  C   UNL     1     106.591 127.107 144.940  0.00  0.00    +0.000 C 
ATOM     11  C   UNL     1     106.253 125.234 146.112  0.00  0.00    +0.000 A 
ATOM     12  C   UNL     1     106.581 125.990 145.869  0.00  0.00    +0.000 A 
ENDROOT
BRANCH   5  14
ATOM     13  O   UNL     1     104.547 128.688 141.143  0.00  0.00    +0.000 OA
ATOM     14  C   UNL     1     105.409 127.534 143.155  0.00  0.00    +0.000 A 
ATOM     15  C   UNL     1     105.555 127.221 142.406  0.00  0.00    +0.000 A 
ATOM     16  C   UNL     1     104.976 128.232 143.234  0.00  0.00    +0.000 A 
ATOM     17  C   UNL     1     105.268 127.606 141.736  0.00  0.00    +0.000 A 
ATOM     18  C   UNL     1     104.688 128.616 142.563  0.00  0.00    +0.000 A 
ATOM     19  C   UNL     1     104.834 128.303 141.814  0.00  0.00    +0.000 A 
ENDBRANCH   5  14
BRANCH   4  20
ATOM     20  O   UNL     1     105.301 124.152 145.876  0.00  0.00    +0.000 OA
BRANCH  20  29
ATOM     21  O   UNL     1     104.309 124.687 146.754  0.00  0.00    +0.000 OA
ATOM     22  O   UNL     1     102.747 122.886 146.089  0.00  0.00    +0.000 OA
ATOM     23  O   UNL     1     102.276 124.021 147.189  0.00  0.00    +0.000 OA
ATOM     24  O   UNL     1     104.260 122.951 145.432  0.00  0.00    +0.000 OA
ATOM     25  C   UNL     1     103.268 123.486 146.311  0.00  0.00    +0.000 C 
ATOM     26  C   UNL     1     103.033 124.054 146.861  0.00  0.00    +0.000 C 
ATOM     27  C   UNL     1     104.024 123.519 145.983  0.00  0.00    +0.000 C 
ATOM     28  C   UNL     1     103.553 124.654 147.082  0.00  0.00    +0.000 C 
ATOM     29  C   UNL     1     104.544 124.120 146.204  0.00  0.00    +0.000 C 
ATOM     30  C   UNL     1     103.317 125.222 147.633  0.00  0.00    +0.000 C 
ENDBRANCH  20  29
ENDBRANCH   4  20
TORSDOF 3
ENDMDL
MODEL 8
REMARK VINA RESULT:      -9.2      3.788      5.839
REMARK  Name = 42607905
REMARK  3 active torsions:
REMARK  status: ('A' for Active; 'I' for Inactive)
REMARK    1  A    between atoms: O_2  and  C_14
REMARK    2  A    between atoms: O_2  and  C_16
REMARK    3  A    between atoms: C_17  and  C_25
REMARK                            x       y       z     vdW  Elec       q    Type
REMARK                         _______ _______ _______ _____ _____    ______ ____
ROOT
ATOM      1  O   UNL     1     113.336 128.527 139.830  0.00  0.00    +0.000 OA
ATOM      2  O   UNL     1     112.016 126.230 140.982  0.00  0.00    +0.000 OA
ATOM      3  O   UNL     1     112.653 127.219 141.817  0.00  0.00    +0.000 OA
ATOM      4  C   UNL     1     112.267 126.834 138.839  0.00  0.00    +0.000 A 
ATOM      5  C   UNL     1     113.534 128.792 140.586  0.00  0.00    +0.000 C 
ATOM      6  C   UNL     1     113.307 128.356 141.248  0.00  0.00    +0.000 C 
ATOM      7  C   UNL     1     112.911 127.827 139.736  0.00  0.00    +0.000 A 
ATOM      8  C   UNL     1     112.683 127.391 140.398  0.00  0.00    +0.000 A 
ATOM      9  C   UNL     1     112.710 127.562 138.944  0.00  0.00    +0.000 A 
ATOM     10  C   UNL     1     112.881 127.655 141.154  0.00  0.00    +0.000 C 
ATOM     11  C   UNL     1     112.030 126.379 139.529  0.00  0.00    +0.000 A 
ATOM     12  C   UNL     1     112.239 126.660 140.314  0.00  0.00    +0.000 A 
ENDROOT
BRANCH   5  14
ATOM     13  O   UNL     1     115.238 131.593 140.962  0.00  0.00    +0.000 OA
ATOM     14  C   UNL     1     113.960 129.492 140.680  0.00  0.00    +0.000 A 
ATOM     15  C   UNL     1     113.606 130.145 141.039  0.00  0.00    +0.000 A 
ATOM     16  C   UNL     1     114.740 129.539 140.414  0.00  0.00    +0.000 A 
ATOM     17  C   UNL     1     114.032 130.845 141.133  0.00  0.00    +0.000 A 
ATOM     18  C   UNL     1     115.166 130.240 140.509  0.00  0.00    +0.000 A 
ATOM     19  C   UNL     1     114.812 130.893 140.868  0.00  0.00    +0.000 A 
ENDBRANCH   5  14
BRANCH   4  20
ATOM     20  O   UNL     1     112.070 126.572 138.082  0.00  0.00    +0.000 OA
BRANCH  20  29
ATOM     21  O   UNL     1     113.286 125.872 137.808  0.00  0.00    +0.000 OA
ATOM     22  O   UNL     1     112.003 124.094 136.659  0.00  0.00    +0.000 OA
ATOM     23  O   UNL     1     113.646 123.987 136.769  0.00  0.00    +0.000 OA
ATOM     24  O   UNL     1     111.215 125.387 137.316  0.00  0.00    +0.000 OA
ATOM     25  C   UNL     1     112.431 124.687 137.042  0.00  0.00    +0.000 C 
ATOM     26  C   UNL     1     113.252 124.634 137.097  0.00  0.00    +0.000 C 
ATOM     27  C   UNL     1     112.038 125.333 137.371  0.00  0.00    +0.000 C 
ATOM     28  C   UNL     1     113.680 125.226 137.480  0.00  0.00    +0.000 C 
ATOM     29  C   UNL     1     112.465 125.926 137.753  0.00  0.00    +0.000 C 
ATOM     30  C   UNL     1     114.501 125.172 137.534  0.00  0.00    +0.000 C 
ENDBRANCH  20  29
ENDBRANCH   4  20
TORSDOF 3
ENDMDL
MODEL 9
REMARK VINA RESULT:      -9.2      2.468      4.200
REMARK  Name = 42607905
REMARK  3 active torsions:
REMARK  status: ('A' for Active; 'I' for Inactive)
REMARK    1  A    between atoms: O_2  and  C_14
REMARK    2  A    between atoms: O_2  and  C_16
REMARK    3  A    between atoms: C_17  and  C_25
REMARK                            x       y       z     vdW  Elec       q    Type
REMARK                         _______ _______ _______ _____ _____    ______ ____
ROOT
ATOM      1  O   UNL     1     112.648 128.311 135.518  0.00  0.00    +0.000 OA
ATOM      2  O   UNL     1     109.876 128.413 134.713  0.00  0.00    +0.000 OA
ATOM      3  O   UNL     1     110.724 129.576 134.612  0.00  0.00    +0.000 OA
ATOM      4  C   UNL     1     111.083 126.717 135.543  0.00  0.00    +0.000 A 
ATOM      5  C   UNL     1     112.737 129.105 135.313  0.00  0.00    +0.000 C 
ATOM      6  C   UNL     1     112.096 129.526 135.011  0.00  0.00    +0.000 C 
ATOM      7  C   UNL     1     111.920 127.938 135.423  0.00  0.00    +0.000 A 
ATOM      8  C   UNL     1     111.278 128.359 135.121  0.00  0.00    +0.000 A 
ATOM      9  C   UNL     1     111.840 127.111 135.640  0.00  0.00    +0.000 A 
ATOM     10  C   UNL     1     111.366 129.153 134.915  0.00  0.00    +0.000 C 
ATOM     11  C   UNL     1     110.414 127.156 135.228  0.00  0.00    +0.000 A 
ATOM     12  C   UNL     1     110.512 127.983 135.016  0.00  0.00    +0.000 A 
ENDROOT
BRANCH   5  14
ATOM     13  O   UNL     1     115.656 130.596 135.698  0.00  0.00    +0.000 OA
ATOM     14  C   UNL     1     113.467 129.478 135.409  0.00  0.00    +0.000 A 
ATOM     15  C   UNL     1     114.039 129.424 134.816  0.00  0.00    +0.000 A 
ATOM     16  C   UNL     1     113.625 129.904 136.098  0.00  0.00    +0.000 A 
ATOM     17  C   UNL     1     114.768 129.797 134.913  0.00  0.00    +0.000 A 
ATOM     18  C   UNL     1     114.354 130.276 136.194  0.00  0.00    +0.000 A 
ATOM     19  C   UNL     1     114.926 130.223 135.602  0.00  0.00    +0.000 A 
ENDBRANCH   5  14
BRANCH   4  20
ATOM     20  O   UNL     1     110.997 125.923 135.750  0.00  0.00    +0.000 OA
BRANCH  20  29
ATOM     21  O   UNL     1     110.528 126.166 137.077  0.00  0.00    +0.000 OA
ATOM     22  O   UNL     1     111.701 124.133 137.864  0.00  0.00    +0.000 OA
ATOM     23  O   UNL     1     110.840 125.054 138.929  0.00  0.00    +0.000 OA
ATOM     24  O   UNL     1     111.779 124.568 136.274  0.00  0.00    +0.000 OA
ATOM     25  C   UNL     1     111.310 124.811 137.602  0.00  0.00    +0.000 C 
ATOM     26  C   UNL     1     110.880 125.271 138.134  0.00  0.00    +0.000 C 
ATOM     27  C   UNL     1     111.349 125.029 136.807  0.00  0.00    +0.000 C 
ATOM     28  C   UNL     1     110.489 125.949 137.872  0.00  0.00    +0.000 C 
ATOM     29  C   UNL     1     110.958 125.706 136.545  0.00  0.00    +0.000 C 
ATOM     30  C   UNL     1     110.058 126.409 138.405  0.00  0.00    +0.000 C 
ENDBRANCH  20  29
ENDBRANCH   4  20
TORSDOF 3
ENDMDL
MODEL 10
REMARK VINA RESULT:      -9.1      2.211      2.984
REMARK  Name = 42607905
REMARK  3 active torsions:
REMARK  status: ('A' for Active; 'I' for Inactive)
REMARK    1  A    between atoms: O_2  and  C_14
REMARK    2  A    between atoms: O_2  and  C_16
REMARK    3  A    between atoms: C_17  and  C_25
REMARK                            x       y       z     vdW  Elec       q    Type
REMARK                         _______ _______ _______ _____ _____    ______ ____
ROOT
ATOM      1  O   UNL     1     111.869 126.592 136.084  0.00  0.00    +0.000 OA
ATOM      2  O   UNL     1     110.057 128.301 134.622  0.00  0.00    +0.000 OA
ATOM      3  O   UNL     1     109.708 126.935 134.929  0.00  0.00    +0.000 OA
ATOM      4  C   UNL     1     112.095 128.723 135.452  0.00  0.00    +0.000 A 
ATOM      5  C   UNL     1     111.324 125.974 136.038  0.00  0.00    +0.000 C 
ATOM      6  C   UNL     1     110.604 126.089 135.652  0.00  0.00    +0.000 C 
ATOM      7  C   UNL     1     111.695 127.323 135.747  0.00  0.00    +0.000 A 
ATOM      8  C   UNL     1     110.975 127.438 135.362  0.00  0.00    +0.000 A 
ATOM      9  C   UNL     1     112.270 127.959 135.802  0.00  0.00    +0.000 A 
ATOM     10  C   UNL     1     110.429 126.821 135.314  0.00  0.00    +0.000 C 
ATOM     11  C   UNL     1     111.344 128.843 135.051  0.00  0.00    +0.000 A 
ATOM     12  C   UNL     1     110.780 128.196 135.005  0.00  0.00    +0.000 A 
ENDROOT
BRANCH   5  14
ATOM     13  O   UNL     1     112.024 123.047 137.390  0.00  0.00    +0.000 OA
ATOM     14  C   UNL     1     111.499 125.242 136.375  0.00  0.00    +0.000 A 
ATOM     15  C   UNL     1     111.768 124.623 135.902  0.00  0.00    +0.000 A 
ATOM     16  C   UNL     1     111.405 125.130 137.188  0.00  0.00    +0.000 A 
ATOM     17  C   UNL     1     111.943 123.891 136.240  0.00  0.00    +0.000 A 
ATOM     18  C   UNL     1     111.580 124.398 137.526  0.00  0.00    +0.000 A 
ATOM     19  C   UNL     1     111.849 123.779 137.052  0.00  0.00    +0.000 A 
ENDBRANCH   5  14
BRANCH   4  20
ATOM     20  O   UNL     1     112.642 129.339 135.501  0.00  0.00    +0.000 OA
BRANCH  20  29
ATOM     21  O   UNL     1     112.058 129.987 136.633  0.00  0.00    +0.000 OA
ATOM     22  O   UNL     1     114.316 130.574 137.461  0.00  0.00    +0.000 OA
ATOM     23  O   UNL     1     112.980 131.026 138.317  0.00  0.00    +0.000 OA
ATOM     24  O   UNL     1     114.147 129.730 136.053  0.00  0.00    +0.000 OA
ATOM     25  C   UNL     1     113.563 130.378 137.185  0.00  0.00    +0.000 C 
ATOM     26  C   UNL     1     112.895 130.604 137.613  0.00  0.00    +0.000 C 
ATOM     27  C   UNL     1     113.478 129.957 136.481  0.00  0.00    +0.000 C 
ATOM     28  C   UNL     1     112.143 130.408 137.337  0.00  0.00    +0.000 C 
ATOM     29  C   UNL     1     112.726 129.761 136.205  0.00  0.00    +0.000 C 
ATOM     30  C   UNL     1     111.475 130.635 137.766  0.00  0.00    +0.000 C 
ENDBRANCH  20  29
ENDBRANCH   4  20
TORSDOF 3
ENDMDL
