MODEL 1
REMARK VINA RESULT:     -11.2      0.000      0.000
REMARK  Name = 44258894
REMARK  13 active torsions:
REMARK  status: ('A' for Active; 'I' for Inactive)
REMARK    1  A    between atoms: O_1  and  C_23
REMARK    2  A    between atoms: O_1  and  C_26
REMARK    3  A    between atoms: O_4  and  C_27
REMARK    4  A    between atoms: O_4  and  C_40
REMARK    5  A    between atoms: O_12  and  C_39
REMARK    6  A    between atoms: O_12  and  C_45
REMARK    7  A    between atoms: O_13  and  C_37
REMARK    8  A    between atoms: O_13  and  C_51
REMARK    9  A    between atoms: C_28  and  C_33
REMARK   10  A    between atoms: C_38  and  C_41
REMARK   11  A    between atoms: C_42  and  C_50
REMARK   12  A    between atoms: C_51  and  C_54
REMARK   13  A    between atoms: C_58  and  C_59
REMARK                            x       y       z     vdW  Elec       q    Type
REMARK                         _______ _______ _______ _____ _____    ______ ____
ROOT
ATOM      1  O   UNL     1     109.196 127.361 139.555  0.00  0.00    +0.000 OA
ATOM      2  O   UNL     1     111.188 126.481 140.733  0.00  0.00    +0.000 OA
ATOM      3  O   UNL     1     110.394 125.459 141.371  0.00  0.00    +0.000 OA
ATOM      4  C   UNL     1     110.597 127.422 139.835  0.00  0.00    +0.000 A 
ATOM      5  C   UNL     1     109.933 127.716 139.442  0.00  0.00    +0.000 A 
ATOM      6  C   UNL     1     110.523 126.775 140.341  0.00  0.00    +0.000 A 
ATOM      7  C   UNL     1     109.787 126.420 140.453  0.00  0.00    +0.000 A 
ATOM      8  C   UNL     1     108.269 125.678 140.695  0.00  0.00    +0.000 A 
ATOM      9  C   UNL     1     109.124 126.713 140.061  0.00  0.00    +0.000 A 
ATOM     10  C   UNL     1     108.351 126.352 140.170  0.00  0.00    +0.000 A 
ATOM     11  C   UNL     1     109.725 125.746 140.983  0.00  0.00    +0.000 A 
ATOM     12  C   UNL     1     108.961 125.372 141.105  0.00  0.00    +0.000 A 
ENDROOT
BRANCH   5  14
ATOM     13  O   UNL     1     110.226 130.308 137.423  0.00  0.00    +0.000 OA
ATOM     14  C   UNL     1     110.006 128.364 138.937  0.00  0.00    +0.000 A 
ATOM     15  C   UNL     1     110.083 128.247 138.124  0.00  0.00    +0.000 A 
ATOM     16  C   UNL     1     110.003 129.129 139.245  0.00  0.00    +0.000 A 
ATOM     17  C   UNL     1     110.156 128.895 137.619  0.00  0.00    +0.000 A 
ATOM     18  C   UNL     1     110.076 129.777 138.740  0.00  0.00    +0.000 A 
ATOM     19  C   UNL     1     110.153 129.660 137.927  0.00  0.00    +0.000 A 
ENDBRANCH   5  14
BRANCH   4  20
ATOM     20  O   UNL     1     111.333 127.777 139.722  0.00  0.00    +0.000 OA
BRANCH  20  27
ATOM     21  O   UNL     1     111.878 126.747 138.895  0.00  0.00    +0.000 OA
ATOM     22  O   UNL     1     114.105 127.108 139.911  0.00  0.00    +0.000 OA
ATOM     23  O   UNL     1     113.907 125.958 138.744  0.00  0.00    +0.000 OA
ATOM     24  C   UNL     1     112.719 127.443 139.817  0.00  0.00    +0.000 C 
ATOM     25  C   UNL     1     113.363 126.988 139.572  0.00  0.00    +0.000 C 
ATOM     26  C   UNL     1     113.263 126.413 138.989  0.00  0.00    +0.000 C 
ATOM     27  C   UNL     1     111.976 127.322 139.478  0.00  0.00    +0.000 C 
ATOM     28  C   UNL     1     112.521 126.293 138.650  0.00  0.00    +0.000 C 
BRANCH  28  30
ATOM     29  O   UNL     1     112.153 125.931 137.317  0.00  0.00    +0.000 OA
ATOM     30  C   UNL     1     112.422 125.717 138.067  0.00  0.00    +0.000 C 
ENDBRANCH  28  30
BRANCH  24  31
ATOM     31  O   UNL     1     112.818 128.018 140.400  0.00  0.00    +0.000 OA
BRANCH  31  36
ATOM     32  O   UNL     1     113.300 128.939 139.420  0.00  0.00    +0.000 OA
ATOM     33  O   UNL     1     113.203 129.088 141.595  0.00  0.00    +0.000 OA
ATOM     34  O   UNL     1     113.877 130.544 141.213  0.00  0.00    +0.000 OA
ATOM     35  O   UNL     1     114.167 130.931 139.635  0.00  0.00    +0.000 OA
ATOM     36  C   UNL     1     113.155 128.746 140.209  0.00  0.00    +0.000 C 
ATOM     37  C   UNL     1     113.348 129.281 140.807  0.00  0.00    +0.000 C 
ATOM     38  C   UNL     1     113.685 130.009 140.616  0.00  0.00    +0.000 C 
ATOM     39  C   UNL     1     113.830 130.202 139.826  0.00  0.00    +0.000 C 
ATOM     40  C   UNL     1     113.637 129.667 139.229  0.00  0.00    +0.000 C 
ATOM     41  C   UNL     1     113.783 129.860 138.440  0.00  0.00    +0.000 C 
ENDBRANCH  31  36
ENDBRANCH  24  31
ENDBRANCH  20  27
ENDBRANCH   4  20
BRANCH   8  42
ATOM     42  O   UNL     1     107.531 125.325 140.806  0.00  0.00    +0.000 OA
BRANCH  42  50
ATOM     43  O   UNL     1     107.185 126.026 142.002  0.00  0.00    +0.000 OA
ATOM     44  O   UNL     1     104.827 126.133 141.258  0.00  0.00    +0.000 OA
ATOM     45  O   UNL     1     105.267 126.798 142.703  0.00  0.00    +0.000 OA
ATOM     46  C   UNL     1     105.613 126.097 141.506  0.00  0.00    +0.000 C 
ATOM     47  C   UNL     1     105.833 126.430 142.229  0.00  0.00    +0.000 C 
ATOM     48  C   UNL     1     106.179 125.729 141.032  0.00  0.00    +0.000 C 
ATOM     49  C   UNL     1     106.619 126.394 142.477  0.00  0.00    +0.000 C 
ATOM     50  C   UNL     1     106.965 125.693 141.280  0.00  0.00    +0.000 C 
BRANCH  49  52
ATOM     51  O   UNL     1     107.150 126.249 143.795  0.00  0.00    +0.000 OA
ATOM     52  C   UNL     1     106.839 126.727 143.199  0.00  0.00    +0.000 C 
ENDBRANCH  49  52
BRANCH  48  53
ATOM     53  O   UNL     1     105.959 125.396 140.310  0.00  0.00    +0.000 OA
BRANCH  53  55
ATOM     54  O   UNL     1     105.682 124.099 140.842  0.00  0.00    +0.000 OA
ATOM     55  C   UNL     1     105.524 124.696 140.294  0.00  0.00    +0.000 C 
BRANCH  55  56
ATOM     56  C   UNL     1     104.931 124.591 139.730  0.00  0.00    +0.000 C 
ATOM     57  C   UNL     1     104.769 123.838 139.435  0.00  0.00    +0.000 C 
BRANCH  57  59
ATOM     58  O   UNL     1     102.399 123.417 137.178  0.00  0.00    +0.000 OA
ATOM     59  C   UNL     1     104.177 123.733 138.872  0.00  0.00    +0.000 A 
ATOM     60  C   UNL     1     104.379 123.588 138.084  0.00  0.00    +0.000 A 
ATOM     61  C   UNL     1     103.383 123.773 139.093  0.00  0.00    +0.000 A 
ATOM     62  C   UNL     1     103.786 123.483 137.520  0.00  0.00    +0.000 A 
ATOM     63  C   UNL     1     102.792 123.667 138.529  0.00  0.00    +0.000 A 
ATOM     64  C   UNL     1     102.992 123.522 137.742  0.00  0.00    +0.000 A 
ENDBRANCH  57  59
ENDBRANCH  55  56
ENDBRANCH  53  55
ENDBRANCH  48  53
ENDBRANCH  42  50
ENDBRANCH   8  42
TORSDOF 13
ENDMDL
MODEL 2
REMARK VINA RESULT:     -11.2      1.243      1.606
REMARK  Name = 44258894
REMARK  13 active torsions:
REMARK  status: ('A' for Active; 'I' for Inactive)
REMARK    1  A    between atoms: O_1  and  C_23
REMARK    2  A    between atoms: O_1  and  C_26
REMARK    3  A    between atoms: O_4  and  C_27
REMARK    4  A    between atoms: O_4  and  C_40
REMARK    5  A    between atoms: O_12  and  C_39
REMARK    6  A    between atoms: O_12  and  C_45
REMARK    7  A    between atoms: O_13  and  C_37
REMARK    8  A    between atoms: O_13  and  C_51
REMARK    9  A    between atoms: C_28  and  C_33
REMARK   10  A    between atoms: C_38  and  C_41
REMARK   11  A    between atoms: C_42  and  C_50
REMARK   12  A    between atoms: C_51  and  C_54
REMARK   13  A    between atoms: C_58  and  C_59
REMARK                            x       y       z     vdW  Elec       q    Type
REMARK                         _______ _______ _______ _____ _____    ______ ____
ROOT
ATOM      1  O   UNL     1     108.917 126.498 138.588  0.00  0.00    +0.000 OA
ATOM      2  O   UNL     1     111.067 126.153 139.766  0.00  0.00    +0.000 OA
ATOM      3  O   UNL     1     110.396 125.482 140.853  0.00  0.00    +0.000 OA
ATOM      4  C   UNL     1     110.336 126.656 138.646  0.00  0.00    +0.000 A 
ATOM      5  C   UNL     1     109.619 126.771 138.253  0.00  0.00    +0.000 A 
ATOM      6  C   UNL     1     110.350 126.268 139.373  0.00  0.00    +0.000 A 
ATOM      7  C   UNL     1     109.647 125.995 139.709  0.00  0.00    +0.000 A 
ATOM      8  C   UNL     1     108.200 125.425 140.413  0.00  0.00    +0.000 A 
ATOM      9  C   UNL     1     108.931 126.110 139.316  0.00  0.00    +0.000 A 
ATOM     10  C   UNL     1     108.192 125.830 139.656  0.00  0.00    +0.000 A 
ATOM     11  C   UNL     1     109.675 125.592 140.468  0.00  0.00    +0.000 A 
ATOM     12  C   UNL     1     108.947 125.305 140.822  0.00  0.00    +0.000 A 
ENDROOT
BRANCH   5  14
ATOM     13  O   UNL     1     109.567 128.326 135.343  0.00  0.00    +0.000 OA
ATOM     14  C   UNL     1     109.606 127.160 137.525  0.00  0.00    +0.000 A 
ATOM     15  C   UNL     1     109.565 126.724 136.826  0.00  0.00    +0.000 A 
ATOM     16  C   UNL     1     109.634 127.984 137.498  0.00  0.00    +0.000 A 
ATOM     17  C   UNL     1     109.552 127.114 136.098  0.00  0.00    +0.000 A 
ATOM     18  C   UNL     1     109.621 128.372 136.770  0.00  0.00    +0.000 A 
ATOM     19  C   UNL     1     109.580 127.937 136.070  0.00  0.00    +0.000 A 
ENDBRANCH   5  14
BRANCH   4  20
ATOM     20  O   UNL     1     111.039 126.929 138.310  0.00  0.00    +0.000 OA
BRANCH  20  27
ATOM     21  O   UNL     1     111.494 125.649 137.867  0.00  0.00    +0.000 OA
ATOM     22  O   UNL     1     113.834 126.332 138.298  0.00  0.00    +0.000 OA
ATOM     23  O   UNL     1     113.509 124.824 137.711  0.00  0.00    +0.000 OA
ATOM     24  C   UNL     1     112.436 126.631 138.304  0.00  0.00    +0.000 C 
ATOM     25  C   UNL     1     113.054 126.104 138.154  0.00  0.00    +0.000 C 
ATOM     26  C   UNL     1     112.891 125.351 137.861  0.00  0.00    +0.000 C 
ATOM     27  C   UNL     1     111.656 126.403 138.161  0.00  0.00    +0.000 C 
ATOM     28  C   UNL     1     112.111 125.123 137.718  0.00  0.00    +0.000 C 
BRANCH  28  30
ATOM     29  O   UNL     1     111.603 124.281 136.681  0.00  0.00    +0.000 OA
ATOM     30  C   UNL     1     111.949 124.369 137.424  0.00  0.00    +0.000 C 
ENDBRANCH  28  30
BRANCH  24  31
ATOM     31  O   UNL     1     112.599 127.384 138.598  0.00  0.00    +0.000 OA
BRANCH  31  36
ATOM     32  O   UNL     1     112.936 127.826 137.282  0.00  0.00    +0.000 OA
ATOM     33  O   UNL     1     112.981 128.874 139.195  0.00  0.00    +0.000 OA
ATOM     34  O   UNL     1     113.509 130.061 138.177  0.00  0.00    +0.000 OA
ATOM     35  O   UNL     1     113.656 129.757 136.562  0.00  0.00    +0.000 OA
ATOM     36  C   UNL     1     112.863 127.978 138.089  0.00  0.00    +0.000 C 
ATOM     37  C   UNL     1     113.054 128.722 138.388  0.00  0.00    +0.000 C 
ATOM     38  C   UNL     1     113.318 129.316 137.879  0.00  0.00    +0.000 C 
ATOM     39  C   UNL     1     113.392 129.164 137.071  0.00  0.00    +0.000 C 
ATOM     40  C   UNL     1     113.200 128.419 136.773  0.00  0.00    +0.000 C 
ATOM     41  C   UNL     1     113.274 128.267 135.964  0.00  0.00    +0.000 C 
ENDBRANCH  31  36
ENDBRANCH  24  31
ENDBRANCH  20  27
ENDBRANCH   4  20
BRANCH   8  42
ATOM     42  O   UNL     1     107.496 125.153 140.746  0.00  0.00    +0.000 OA
BRANCH  42  50
ATOM     43  O   UNL     1     107.298 126.099 141.798  0.00  0.00    +0.000 OA
ATOM     44  O   UNL     1     104.942 126.390 141.095  0.00  0.00    +0.000 OA
ATOM     45  O   UNL     1     105.530 127.239 142.382  0.00  0.00    +0.000 OA
ATOM     46  C   UNL     1     105.727 126.293 141.329  0.00  0.00    +0.000 C 
ATOM     47  C   UNL     1     106.021 126.718 141.973  0.00  0.00    +0.000 C 
ATOM     48  C   UNL     1     106.220 125.772 140.920  0.00  0.00    +0.000 C 
ATOM     49  C   UNL     1     106.806 126.621 142.207  0.00  0.00    +0.000 C 
ATOM     50  C   UNL     1     107.005 125.675 141.155  0.00  0.00    +0.000 C 
BRANCH  49  52
ATOM     51  O   UNL     1     107.429 126.646 143.493  0.00  0.00    +0.000 OA
ATOM     52  C   UNL     1     107.100 127.045 142.851  0.00  0.00    +0.000 C 
ENDBRANCH  49  52
BRANCH  48  53
ATOM     53  O   UNL     1     105.926 125.347 140.277  0.00  0.00    +0.000 OA
BRANCH  53  55
ATOM     54  O   UNL     1     105.425 124.268 141.068  0.00  0.00    +0.000 OA
ATOM     55  C   UNL     1     105.375 124.745 140.397  0.00  0.00    +0.000 C 
BRANCH  55  56
ATOM     56  C   UNL     1     104.773 124.621 139.846  0.00  0.00    +0.000 C 
ATOM     57  C   UNL     1     104.662 123.872 139.517  0.00  0.00    +0.000 C 
BRANCH  57  59
ATOM     58  O   UNL     1     102.259 123.372 137.311  0.00  0.00    +0.000 OA
ATOM     59  C   UNL     1     104.062 123.747 138.966  0.00  0.00    +0.000 A 
ATOM     60  C   UNL     1     104.250 123.624 138.172  0.00  0.00    +0.000 A 
ATOM     61  C   UNL     1     103.273 123.746 139.208  0.00  0.00    +0.000 A 
ATOM     62  C   UNL     1     103.649 123.499 137.621  0.00  0.00    +0.000 A 
ATOM     63  C   UNL     1     102.673 123.621 138.656  0.00  0.00    +0.000 A 
ATOM     64  C   UNL     1     102.860 123.497 137.862  0.00  0.00    +0.000 A 
ENDBRANCH  57  59
ENDBRANCH  55  56
ENDBRANCH  53  55
ENDBRANCH  48  53
ENDBRANCH  42  50
ENDBRANCH   8  42
TORSDOF 13
ENDMDL
MODEL 3
REMARK VINA RESULT:     -10.9      1.199      2.297
REMARK  Name = 44258894
REMARK  13 active torsions:
REMARK  status: ('A' for Active; 'I' for Inactive)
REMARK    1  A    between atoms: O_1  and  C_23
REMARK    2  A    between atoms: O_1  and  C_26
REMARK    3  A    between atoms: O_4  and  C_27
REMARK    4  A    between atoms: O_4  and  C_40
REMARK    5  A    between atoms: O_12  and  C_39
REMARK    6  A    between atoms: O_12  and  C_45
REMARK    7  A    between atoms: O_13  and  C_37
REMARK    8  A    between atoms: O_13  and  C_51
REMARK    9  A    between atoms: C_28  and  C_33
REMARK   10  A    between atoms: C_38  and  C_41
REMARK   11  A    between atoms: C_42  and  C_50
REMARK   12  A    between atoms: C_51  and  C_54
REMARK   13  A    between atoms: C_58  and  C_59
REMARK                            x       y       z     vdW  Elec       q    Type
REMARK                         _______ _______ _______ _____ _____    ______ ____
ROOT
ATOM      1  O   UNL     1     108.973 126.261 138.781  0.00  0.00    +0.000 OA
ATOM      2  O   UNL     1     111.007 126.045 140.176  0.00  0.00    +0.000 OA
ATOM      3  O   UNL     1     110.246 125.437 141.241  0.00  0.00    +0.000 OA
ATOM      4  C   UNL     1     110.378 126.453 138.959  0.00  0.00    +0.000 A 
ATOM      5  C   UNL     1     109.700 126.525 138.494  0.00  0.00    +0.000 A 
ATOM      6  C   UNL     1     110.328 126.117 139.711  0.00  0.00    +0.000 A 
ATOM      7  C   UNL     1     109.601 125.853 139.998  0.00  0.00    +0.000 A 
ATOM      8  C   UNL     1     108.103 125.303 140.603  0.00  0.00    +0.000 A 
ATOM      9  C   UNL     1     108.924 125.925 139.533  0.00  0.00    +0.000 A 
ATOM     10  C   UNL     1     108.161 125.653 139.821  0.00  0.00    +0.000 A 
ATOM     11  C   UNL     1     109.563 125.505 140.783  0.00  0.00    +0.000 A 
ATOM     12  C   UNL     1     108.809 125.228 141.088  0.00  0.00    +0.000 A 
ENDROOT
BRANCH   5  14
ATOM     13  O   UNL     1     109.900 127.867 135.487  0.00  0.00    +0.000 OA
ATOM     14  C   UNL     1     109.750 126.861 137.742  0.00  0.00    +0.000 A 
ATOM     15  C   UNL     1     109.587 127.663 137.637  0.00  0.00    +0.000 A 
ATOM     16  C   UNL     1     109.962 126.394 137.096  0.00  0.00    +0.000 A 
ATOM     17  C   UNL     1     109.637 127.998 136.884  0.00  0.00    +0.000 A 
ATOM     18  C   UNL     1     110.012 126.730 136.344  0.00  0.00    +0.000 A 
ATOM     19  C   UNL     1     109.850 127.532 136.238  0.00  0.00    +0.000 A 
ENDBRANCH   5  14
BRANCH   4  20
ATOM     20  O   UNL     1     111.105 126.717 138.672  0.00  0.00    +0.000 OA
BRANCH  20  27
ATOM     21  O   UNL     1     111.172 127.878 139.503  0.00  0.00    +0.000 OA
ATOM     22  O   UNL     1     113.633 127.647 139.628  0.00  0.00    +0.000 OA
ATOM     23  O   UNL     1     112.879 128.885 140.417  0.00  0.00    +0.000 OA
ATOM     24  C   UNL     1     112.368 127.182 139.150  0.00  0.00    +0.000 C 
ATOM     25  C   UNL     1     112.812 127.724 139.587  0.00  0.00    +0.000 C 
ATOM     26  C   UNL     1     112.435 128.343 139.981  0.00  0.00    +0.000 C 
ATOM     27  C   UNL     1     111.548 127.259 139.108  0.00  0.00    +0.000 C 
ATOM     28  C   UNL     1     111.614 128.420 139.939  0.00  0.00    +0.000 C 
BRANCH  28  30
ATOM     29  O   UNL     1     110.801 129.594 139.909  0.00  0.00    +0.000 OA
ATOM     30  C   UNL     1     111.238 129.039 140.334  0.00  0.00    +0.000 C 
ENDBRANCH  28  30
BRANCH  24  31
ATOM     31  O   UNL     1     112.746 126.563 138.756  0.00  0.00    +0.000 OA
BRANCH  31  36
ATOM     32  O   UNL     1     113.076 127.446 137.682  0.00  0.00    +0.000 OA
ATOM     33  O   UNL     1     113.579 125.348 138.013  0.00  0.00    +0.000 OA
ATOM     34  O   UNL     1     114.326 125.623 136.568  0.00  0.00    +0.000 OA
ATOM     35  O   UNL     1     114.240 127.114 135.865  0.00  0.00    +0.000 OA
ATOM     36  C   UNL     1     113.119 126.701 138.033  0.00  0.00    +0.000 C 
ATOM     37  C   UNL     1     113.536 126.093 137.662  0.00  0.00    +0.000 C 
ATOM     38  C   UNL     1     113.910 126.230 136.940  0.00  0.00    +0.000 C 
ATOM     39  C   UNL     1     113.866 126.976 136.588  0.00  0.00    +0.000 C 
ATOM     40  C   UNL     1     113.450 127.583 136.960  0.00  0.00    +0.000 C 
ATOM     41  C   UNL     1     113.407 128.329 136.608  0.00  0.00    +0.000 C 
ENDBRANCH  31  36
ENDBRANCH  24  31
ENDBRANCH  20  27
ENDBRANCH   4  20
BRANCH   8  42
ATOM     42  O   UNL     1     107.374 125.040 140.887  0.00  0.00    +0.000 OA
BRANCH  42  50
ATOM     43  O   UNL     1     107.132 125.950 141.962  0.00  0.00    +0.000 OA
ATOM     44  O   UNL     1     104.846 126.355 141.104  0.00  0.00    +0.000 OA
ATOM     45  O   UNL     1     105.366 127.130 142.465  0.00  0.00    +0.000 OA
ATOM     46  C   UNL     1     105.608 126.220 141.390  0.00  0.00    +0.000 C 
ATOM     47  C   UNL     1     105.868 126.607 142.071  0.00  0.00    +0.000 C 
ATOM     48  C   UNL     1     106.110 125.697 140.996  0.00  0.00    +0.000 C 
ATOM     49  C   UNL     1     106.630 126.472 142.356  0.00  0.00    +0.000 C 
ATOM     50  C   UNL     1     106.873 125.562 141.282  0.00  0.00    +0.000 C 
BRANCH  49  52
ATOM     51  O   UNL     1     107.161 126.423 143.682  0.00  0.00    +0.000 OA
ATOM     52  C   UNL     1     106.890 126.860 143.037  0.00  0.00    +0.000 C 
ENDBRANCH  49  52
BRANCH  48  53
ATOM     53  O   UNL     1     105.850 125.310 140.316  0.00  0.00    +0.000 OA
BRANCH  53  55
ATOM     54  O   UNL     1     105.302 124.200 141.030  0.00  0.00    +0.000 OA
ATOM     55  C   UNL     1     105.297 124.700 140.374  0.00  0.00    +0.000 C 
BRANCH  55  56
ATOM     56  C   UNL     1     104.739 124.591 139.776  0.00  0.00    +0.000 C 
ATOM     57  C   UNL     1     104.552 123.830 139.519  0.00  0.00    +0.000 C 
BRANCH  57  59
ATOM     58  O   UNL     1     102.323 123.391 137.126  0.00  0.00    +0.000 OA
ATOM     59  C   UNL     1     103.995 123.720 138.922  0.00  0.00    +0.000 A 
ATOM     60  C   UNL     1     104.244 123.595 138.145  0.00  0.00    +0.000 A 
ATOM     61  C   UNL     1     103.190 123.735 139.100  0.00  0.00    +0.000 A 
ATOM     62  C   UNL     1     103.686 123.485 137.547  0.00  0.00    +0.000 A 
ATOM     63  C   UNL     1     102.633 123.625 138.501  0.00  0.00    +0.000 A 
ATOM     64  C   UNL     1     102.880 123.500 137.724  0.00  0.00    +0.000 A 
ENDBRANCH  57  59
ENDBRANCH  55  56
ENDBRANCH  53  55
ENDBRANCH  48  53
ENDBRANCH  42  50
ENDBRANCH   8  42
TORSDOF 13
ENDMDL
MODEL 4
REMARK VINA RESULT:     -10.7      2.392      5.021
REMARK  Name = 44258894
REMARK  13 active torsions:
REMARK  status: ('A' for Active; 'I' for Inactive)
REMARK    1  A    between atoms: O_1  and  C_23
REMARK    2  A    between atoms: O_1  and  C_26
REMARK    3  A    between atoms: O_4  and  C_27
REMARK    4  A    between atoms: O_4  and  C_40
REMARK    5  A    between atoms: O_12  and  C_39
REMARK    6  A    between atoms: O_12  and  C_45
REMARK    7  A    between atoms: O_13  and  C_37
REMARK    8  A    between atoms: O_13  and  C_51
REMARK    9  A    between atoms: C_28  and  C_33
REMARK   10  A    between atoms: C_38  and  C_41
REMARK   11  A    between atoms: C_42  and  C_50
REMARK   12  A    between atoms: C_51  and  C_54
REMARK   13  A    between atoms: C_58  and  C_59
REMARK                            x       y       z     vdW  Elec       q    Type
REMARK                         _______ _______ _______ _____ _____    ______ ____
ROOT
ATOM      1  O   UNL     1     109.357 127.324 141.829  0.00  0.00    +0.000 OA
ATOM      2  O   UNL     1     108.620 129.344 140.604  0.00  0.00    +0.000 OA
ATOM      3  O   UNL     1     107.295 129.236 141.165  0.00  0.00    +0.000 OA
ATOM      4  C   UNL     1     109.640 128.399 140.931  0.00  0.00    +0.000 A 
ATOM      5  C   UNL     1     109.886 127.725 141.340  0.00  0.00    +0.000 A 
ATOM      6  C   UNL     1     108.866 128.670 141.012  0.00  0.00    +0.000 A 
ATOM      7  C   UNL     1     108.337 128.269 141.502  0.00  0.00    +0.000 A 
ATOM      8  C   UNL     1     107.233 127.446 142.512  0.00  0.00    +0.000 A 
ATOM      9  C   UNL     1     108.583 127.596 141.910  0.00  0.00    +0.000 A 
ATOM     10  C   UNL     1     108.041 127.168 142.423  0.00  0.00    +0.000 A 
ATOM     11  C   UNL     1     107.532 128.562 141.578  0.00  0.00    +0.000 A 
ATOM     12  C   UNL     1     106.977 128.148 142.086  0.00  0.00    +0.000 A 
ENDROOT
BRANCH   5  14
ATOM     13  O   UNL     1     112.986 126.642 141.015  0.00  0.00    +0.000 OA
ATOM     14  C   UNL     1     110.661 127.454 141.258  0.00  0.00    +0.000 A 
ATOM     15  C   UNL     1     110.867 126.979 140.616  0.00  0.00    +0.000 A 
ATOM     16  C   UNL     1     111.231 127.659 141.819  0.00  0.00    +0.000 A 
ATOM     17  C   UNL     1     111.642 126.708 140.536  0.00  0.00    +0.000 A 
ATOM     18  C   UNL     1     112.005 127.388 141.738  0.00  0.00    +0.000 A 
ATOM     19  C   UNL     1     112.211 126.912 141.096  0.00  0.00    +0.000 A 
ENDBRANCH   5  14
BRANCH   4  20
ATOM     20  O   UNL     1     110.169 128.801 140.441  0.00  0.00    +0.000 OA
BRANCH  20  27
ATOM     21  O   UNL     1     110.370 129.902 141.330  0.00  0.00    +0.000 OA
ATOM     22  O   UNL     1     110.643 131.417 139.392  0.00  0.00    +0.000 OA
ATOM     23  O   UNL     1     110.753 132.012 140.927  0.00  0.00    +0.000 OA
ATOM     24  C   UNL     1     110.406 130.108 139.917  0.00  0.00    +0.000 C 
ATOM     25  C   UNL     1     110.552 130.912 140.038  0.00  0.00    +0.000 C 
ATOM     26  C   UNL     1     110.607 131.209 140.806  0.00  0.00    +0.000 C 
ATOM     27  C   UNL     1     110.315 129.603 140.563  0.00  0.00    +0.000 C 
ATOM     28  C   UNL     1     110.516 130.704 141.452  0.00  0.00    +0.000 C 
BRANCH  28  30
ATOM     29  O   UNL     1     111.163 130.733 142.725  0.00  0.00    +0.000 OA
ATOM     30  C   UNL     1     110.571 131.002 142.219  0.00  0.00    +0.000 C 
ENDBRANCH  28  30
BRANCH  24  31
ATOM     31  O   UNL     1     110.351 129.811 139.149  0.00  0.00    +0.000 OA
BRANCH  31  36
ATOM     32  O   UNL     1     111.776 129.786 139.055  0.00  0.00    +0.000 OA
ATOM     33  O   UNL     1     110.239 129.277 137.592  0.00  0.00    +0.000 OA
ATOM     34  O   UNL     1     111.609 128.985 136.719  0.00  0.00    +0.000 OA
ATOM     35  O   UNL     1     113.091 129.228 137.404  0.00  0.00    +0.000 OA
ATOM     36  C   UNL     1     111.036 129.665 138.713  0.00  0.00    +0.000 C 
ATOM     37  C   UNL     1     110.980 129.398 137.934  0.00  0.00    +0.000 C 
ATOM     38  C   UNL     1     111.664 129.252 137.498  0.00  0.00    +0.000 C 
ATOM     39  C   UNL     1     112.406 129.374 137.840  0.00  0.00    +0.000 C 
ATOM     40  C   UNL     1     112.461 129.641 138.619  0.00  0.00    +0.000 C 
ATOM     41  C   UNL     1     113.203 129.762 138.961  0.00  0.00    +0.000 C 
ENDBRANCH  31  36
ENDBRANCH  24  31
ENDBRANCH  20  27
ENDBRANCH   4  20
BRANCH   8  42
ATOM     42  O   UNL     1     106.706 127.042 143.002  0.00  0.00    +0.000 OA
BRANCH  42  50
ATOM     43  O   UNL     1     106.130 126.214 141.990  0.00  0.00    +0.000 OA
ATOM     44  O   UNL     1     105.993 124.339 143.600  0.00  0.00    +0.000 OA
ATOM     45  O   UNL     1     105.462 124.137 142.050  0.00  0.00    +0.000 OA
ATOM     46  C   UNL     1     106.039 124.964 143.063  0.00  0.00    +0.000 C 
ATOM     47  C   UNL     1     105.773 124.863 142.288  0.00  0.00    +0.000 C 
ATOM     48  C   UNL     1     106.350 125.691 143.300  0.00  0.00    +0.000 C 
ATOM     49  C   UNL     1     105.819 125.488 141.752  0.00  0.00    +0.000 C 
ATOM     50  C   UNL     1     106.395 126.316 142.764  0.00  0.00    +0.000 C 
BRANCH  49  52
ATOM     51  O   UNL     1     105.145 125.996 140.598  0.00  0.00    +0.000 OA
ATOM     52  C   UNL     1     105.554 125.387 140.977  0.00  0.00    +0.000 C 
ENDBRANCH  49  52
BRANCH  48  53
ATOM     53  O   UNL     1     106.615 125.792 144.075  0.00  0.00    +0.000 OA
BRANCH  53  55
ATOM     54  O   UNL     1     105.354 126.197 144.611  0.00  0.00    +0.000 OA
ATOM     55  C   UNL     1     106.075 125.805 144.698  0.00  0.00    +0.000 C 
BRANCH  55  56
ATOM     56  C   UNL     1     106.255 125.425 145.408  0.00  0.00    +0.000 C 
ATOM     57  C   UNL     1     106.295 125.858 146.110  0.00  0.00    +0.000 C 
BRANCH  57  59
ATOM     58  O   UNL     1     107.017 124.342 148.950  0.00  0.00    +0.000 OA
ATOM     59  C   UNL     1     106.475 125.479 146.819  0.00  0.00    +0.000 A 
ATOM     60  C   UNL     1     107.236 125.533 147.133  0.00  0.00    +0.000 A 
ATOM     61  C   UNL     1     105.895 125.046 147.215  0.00  0.00    +0.000 A 
ATOM     62  C   UNL     1     107.416 125.154 147.844  0.00  0.00    +0.000 A 
ATOM     63  C   UNL     1     106.076 124.667 147.925  0.00  0.00    +0.000 A 
ATOM     64  C   UNL     1     106.837 124.721 148.240  0.00  0.00    +0.000 A 
ENDBRANCH  57  59
ENDBRANCH  55  56
ENDBRANCH  53  55
ENDBRANCH  48  53
ENDBRANCH  42  50
ENDBRANCH   8  42
TORSDOF 13
ENDMDL
MODEL 5
REMARK VINA RESULT:     -10.6      5.286      7.902
REMARK  Name = 44258894
REMARK  13 active torsions:
REMARK  status: ('A' for Active; 'I' for Inactive)
REMARK    1  A    between atoms: O_1  and  C_23
REMARK    2  A    between atoms: O_1  and  C_26
REMARK    3  A    between atoms: O_4  and  C_27
REMARK    4  A    between atoms: O_4  and  C_40
REMARK    5  A    between atoms: O_12  and  C_39
REMARK    6  A    between atoms: O_12  and  C_45
REMARK    7  A    between atoms: O_13  and  C_37
REMARK    8  A    between atoms: O_13  and  C_51
REMARK    9  A    between atoms: C_28  and  C_33
REMARK   10  A    between atoms: C_38  and  C_41
REMARK   11  A    between atoms: C_42  and  C_50
REMARK   12  A    between atoms: C_51  and  C_54
REMARK   13  A    between atoms: C_58  and  C_59
REMARK                            x       y       z     vdW  Elec       q    Type
REMARK                         _______ _______ _______ _____ _____    ______ ____
ROOT
ATOM      1  O   UNL     1     104.152 130.053 142.016  0.00  0.00    +0.000 OA
ATOM      2  O   UNL     1     105.900 131.797 141.829  0.00  0.00    +0.000 OA
ATOM      3  O   UNL     1     106.940 130.796 141.844  0.00  0.00    +0.000 OA
ATOM      4  C   UNL     1     104.521 131.431 141.914  0.00  0.00    +0.000 A 
ATOM      5  C   UNL     1     103.938 130.849 141.977  0.00  0.00    +0.000 A 
ATOM      6  C   UNL     1     105.317 131.215 141.892  0.00  0.00    +0.000 A 
ATOM      7  C   UNL     1     105.531 130.419 141.931  0.00  0.00    +0.000 A 
ATOM      8  C   UNL     1     105.986 128.776 142.012  0.00  0.00    +0.000 A 
ATOM      9  C   UNL     1     104.949 129.839 141.993  0.00  0.00    +0.000 A 
ATOM     10  C   UNL     1     105.159 129.006 142.035  0.00  0.00    +0.000 A 
ATOM     11  C   UNL     1     106.364 130.208 141.906  0.00  0.00    +0.000 A 
ATOM     12  C   UNL     1     106.593 129.382 141.947  0.00  0.00    +0.000 A 
ENDROOT
BRANCH   5  14
ATOM     13  O   UNL     1     100.755 131.711 142.070  0.00  0.00    +0.000 OA
ATOM     14  C   UNL     1     103.143 131.065 142.000  0.00  0.00    +0.000 A 
ATOM     15  C   UNL     1     102.730 131.197 141.297  0.00  0.00    +0.000 A 
ATOM     16  C   UNL     1     102.759 131.148 142.726  0.00  0.00    +0.000 A 
ATOM     17  C   UNL     1     101.934 131.413 141.322  0.00  0.00    +0.000 A 
ATOM     18  C   UNL     1     101.963 131.364 142.749  0.00  0.00    +0.000 A 
ATOM     19  C   UNL     1     101.551 131.496 142.047  0.00  0.00    +0.000 A 
ENDBRANCH   5  14
BRANCH   4  20
ATOM     20  O   UNL     1     104.308 132.227 141.875  0.00  0.00    +0.000 OA
BRANCH  20  27
ATOM     21  O   UNL     1     104.711 132.554 143.206  0.00  0.00    +0.000 OA
ATOM     22  O   UNL     1     105.395 134.807 142.445  0.00  0.00    +0.000 OA
ATOM     23  O   UNL     1     105.571 134.383 144.030  0.00  0.00    +0.000 OA
ATOM     24  C   UNL     1     104.851 133.516 142.160  0.00  0.00    +0.000 C 
ATOM     25  C   UNL     1     105.167 134.056 142.699  0.00  0.00    +0.000 C 
ATOM     26  C   UNL     1     105.255 133.843 143.491  0.00  0.00    +0.000 C 
ATOM     27  C   UNL     1     104.623 132.765 142.414  0.00  0.00    +0.000 C 
ATOM     28  C   UNL     1     105.027 133.092 143.745  0.00  0.00    +0.000 C 
BRANCH  28  30
ATOM     29  O   UNL     1     104.457 132.658 144.981  0.00  0.00    +0.000 OA
ATOM     30  C   UNL     1     105.115 132.880 144.538  0.00  0.00    +0.000 C 
ENDBRANCH  28  30
BRANCH  24  31
ATOM     31  O   UNL     1     104.764 133.729 141.368  0.00  0.00    +0.000 OA
BRANCH  31  36
ATOM     32  O   UNL     1     103.556 134.422 141.686  0.00  0.00    +0.000 OA
ATOM     33  O   UNL     1     104.597 134.166 139.785  0.00  0.00    +0.000 OA
ATOM     34  O   UNL     1     103.306 135.077 139.313  0.00  0.00    +0.000 OA
ATOM     35  O   UNL     1     102.181 135.553 140.422  0.00  0.00    +0.000 OA
ATOM     36  C   UNL     1     104.118 134.185 141.131  0.00  0.00    +0.000 C 
ATOM     37  C   UNL     1     104.035 134.403 140.340  0.00  0.00    +0.000 C 
ATOM     38  C   UNL     1     103.390 134.859 140.103  0.00  0.00    +0.000 C 
ATOM     39  C   UNL     1     102.827 135.097 140.659  0.00  0.00    +0.000 C 
ATOM     40  C   UNL     1     102.910 134.878 141.450  0.00  0.00    +0.000 C 
ATOM     41  C   UNL     1     102.347 135.116 142.005  0.00  0.00    +0.000 C 
ENDBRANCH  31  36
ENDBRANCH  24  31
ENDBRANCH  20  27
ENDBRANCH   4  20
BRANCH   8  42
ATOM     42  O   UNL     1     106.196 127.979 142.051  0.00  0.00    +0.000 OA
BRANCH  42  50
ATOM     43  O   UNL     1     106.517 127.946 143.444  0.00  0.00    +0.000 OA
ATOM     44  O   UNL     1     105.518 125.688 143.620  0.00  0.00    +0.000 OA
ATOM     45  O   UNL     1     106.172 126.408 144.953  0.00  0.00    +0.000 OA
ATOM     46  C   UNL     1     105.851 126.440 143.561  0.00  0.00    +0.000 C 
ATOM     47  C   UNL     1     106.178 126.800 144.228  0.00  0.00    +0.000 C 
ATOM     48  C   UNL     1     105.858 126.834 142.836  0.00  0.00    +0.000 C 
ATOM     49  C   UNL     1     106.511 127.553 144.169  0.00  0.00    +0.000 C 
ATOM     50  C   UNL     1     106.190 127.587 142.777  0.00  0.00    +0.000 C 
BRANCH  49  52
ATOM     51  O   UNL     1     107.634 128.125 144.841  0.00  0.00    +0.000 OA
ATOM     52  C   UNL     1     106.837 127.913 144.836  0.00  0.00    +0.000 C 
ENDBRANCH  49  52
BRANCH  48  53
ATOM     53  O   UNL     1     105.531 126.474 142.169  0.00  0.00    +0.000 OA
BRANCH  53  55
ATOM     54  O   UNL     1     106.764 125.815 141.875  0.00  0.00    +0.000 OA
ATOM     55  C   UNL     1     105.948 125.883 141.773  0.00  0.00    +0.000 C 
BRANCH  55  56
ATOM     56  C   UNL     1     105.550 125.359 141.276  0.00  0.00    +0.000 C 
ATOM     57  C   UNL     1     105.852 125.188 140.527  0.00  0.00    +0.000 C 
BRANCH  57  59
ATOM     58  O   UNL     1     104.262 123.092 138.536  0.00  0.00    +0.000 OA
ATOM     59  C   UNL     1     105.455 124.665 140.030  0.00  0.00    +0.000 A 
ATOM     60  C   UNL     1     105.624 123.858 140.061  0.00  0.00    +0.000 A 
ATOM     61  C   UNL     1     104.888 124.947 139.500  0.00  0.00    +0.000 A 
ATOM     62  C   UNL     1     105.226 123.334 139.563  0.00  0.00    +0.000 A 
ATOM     63  C   UNL     1     104.491 124.423 139.003  0.00  0.00    +0.000 A 
ATOM     64  C   UNL     1     104.660 123.616 139.034  0.00  0.00    +0.000 A 
ENDBRANCH  57  59
ENDBRANCH  55  56
ENDBRANCH  53  55
ENDBRANCH  48  53
ENDBRANCH  42  50
ENDBRANCH   8  42
TORSDOF 13
ENDMDL
MODEL 6
REMARK VINA RESULT:     -10.4      5.650      8.891
REMARK  Name = 44258894
REMARK  13 active torsions:
REMARK  status: ('A' for Active; 'I' for Inactive)
REMARK    1  A    between atoms: O_1  and  C_23
REMARK    2  A    between atoms: O_1  and  C_26
REMARK    3  A    between atoms: O_4  and  C_27
REMARK    4  A    between atoms: O_4  and  C_40
REMARK    5  A    between atoms: O_12  and  C_39
REMARK    6  A    between atoms: O_12  and  C_45
REMARK    7  A    between atoms: O_13  and  C_37
REMARK    8  A    between atoms: O_13  and  C_51
REMARK    9  A    between atoms: C_28  and  C_33
REMARK   10  A    between atoms: C_38  and  C_41
REMARK   11  A    between atoms: C_42  and  C_50
REMARK   12  A    between atoms: C_51  and  C_54
REMARK   13  A    between atoms: C_58  and  C_59
REMARK                            x       y       z     vdW  Elec       q    Type
REMARK                         _______ _______ _______ _____ _____    ______ ____
ROOT
ATOM      1  O   UNL     1     103.771 130.157 143.200  0.00  0.00    +0.000 OA
ATOM      2  O   UNL     1     105.780 131.570 142.891  0.00  0.00    +0.000 OA
ATOM      3  O   UNL     1     106.634 130.511 143.371  0.00  0.00    +0.000 OA
ATOM      4  C   UNL     1     104.364 131.397 142.806  0.00  0.00    +0.000 A 
ATOM      5  C   UNL     1     103.694 130.925 142.909  0.00  0.00    +0.000 A 
ATOM      6  C   UNL     1     105.110 131.099 142.994  0.00  0.00    +0.000 A 
ATOM      7  C   UNL     1     105.187 130.331 143.285  0.00  0.00    +0.000 A 
ATOM      8  C   UNL     1     105.358 128.743 143.888  0.00  0.00    +0.000 A 
ATOM      9  C   UNL     1     104.518 129.861 143.388  0.00  0.00    +0.000 A 
ATOM     10  C   UNL     1     104.585 129.058 143.691  0.00  0.00    +0.000 A 
ATOM     11  C   UNL     1     105.970 130.033 143.477  0.00  0.00    +0.000 A 
ATOM     12  C   UNL     1     106.056 129.234 143.781  0.00  0.00    +0.000 A 
ENDROOT
BRANCH   5  14
ATOM     13  O   UNL     1     100.711 132.116 142.153  0.00  0.00    +0.000 OA
ATOM     14  C   UNL     1     102.948 131.223 142.720  0.00  0.00    +0.000 A 
ATOM     15  C   UNL     1     102.482 131.570 143.306  0.00  0.00    +0.000 A 
ATOM     16  C   UNL     1     102.669 131.174 141.945  0.00  0.00    +0.000 A 
ATOM     17  C   UNL     1     101.736 131.867 143.116  0.00  0.00    +0.000 A 
ATOM     18  C   UNL     1     101.923 131.472 141.757  0.00  0.00    +0.000 A 
ATOM     19  C   UNL     1     101.457 131.818 142.342  0.00  0.00    +0.000 A 
ENDBRANCH   5  14
BRANCH   4  20
ATOM     20  O   UNL     1     104.288 132.165 142.515  0.00  0.00    +0.000 OA
BRANCH  20  27
ATOM     21  O   UNL     1     104.560 132.792 143.769  0.00  0.00    +0.000 OA
ATOM     22  O   UNL     1     105.551 134.727 142.587  0.00  0.00    +0.000 OA
ATOM     23  O   UNL     1     105.493 134.710 144.236  0.00  0.00    +0.000 OA
ATOM     24  C   UNL     1     104.919 133.446 142.550  0.00  0.00    +0.000 C 
ATOM     25  C   UNL     1     105.220 134.082 142.981  0.00  0.00    +0.000 C 
ATOM     26  C   UNL     1     105.191 134.073 143.805  0.00  0.00    +0.000 C 
ATOM     27  C   UNL     1     104.589 132.800 142.945  0.00  0.00    +0.000 C 
ATOM     28  C   UNL     1     104.861 133.428 144.199  0.00  0.00    +0.000 C 
BRANCH  28  30
ATOM     29  O   UNL     1     104.105 133.404 145.412  0.00  0.00    +0.000 OA
ATOM     30  C   UNL     1     104.833 133.419 145.024  0.00  0.00    +0.000 C 
ENDBRANCH  28  30
BRANCH  24  31
ATOM     31  O   UNL     1     104.948 133.455 141.726  0.00  0.00    +0.000 OA
BRANCH  31  36
ATOM     32  O   UNL     1     103.826 134.338 141.695  0.00  0.00    +0.000 OA
ATOM     33  O   UNL     1     104.975 133.432 140.076  0.00  0.00    +0.000 OA
ATOM     34  O   UNL     1     103.866 134.304 139.221  0.00  0.00    +0.000 OA
ATOM     35  O   UNL     1     102.730 135.199 140.015  0.00  0.00    +0.000 OA
ATOM     36  C   UNL     1     104.393 133.891 141.298  0.00  0.00    +0.000 C 
ATOM     37  C   UNL     1     104.408 133.879 140.473  0.00  0.00    +0.000 C 
ATOM     38  C   UNL     1     103.853 134.315 140.045  0.00  0.00    +0.000 C 
ATOM     39  C   UNL     1     103.284 134.763 140.443  0.00  0.00    +0.000 C 
ATOM     40  C   UNL     1     103.271 134.774 141.267  0.00  0.00    +0.000 C 
ATOM     41  C   UNL     1     102.703 135.222 141.664  0.00  0.00    +0.000 C 
ENDBRANCH  31  36
ENDBRANCH  24  31
ENDBRANCH  20  27
ENDBRANCH   4  20
BRANCH   8  42
ATOM     42  O   UNL     1     105.432 127.975 144.179  0.00  0.00    +0.000 OA
BRANCH  42  50
ATOM     43  O   UNL     1     105.499 127.398 142.873  0.00  0.00    +0.000 OA
ATOM     44  O   UNL     1     106.754 125.471 143.787  0.00  0.00    +0.000 OA
ATOM     45  O   UNL     1     106.402 125.537 142.176  0.00  0.00    +0.000 OA
ATOM     46  C   UNL     1     106.336 126.113 143.482  0.00  0.00    +0.000 C 
ATOM     47  C   UNL     1     106.159 126.147 142.677  0.00  0.00    +0.000 C 
ATOM     48  C   UNL     1     106.093 126.723 143.983  0.00  0.00    +0.000 C 
ATOM     49  C   UNL     1     105.741 126.789 142.372  0.00  0.00    +0.000 C 
ATOM     50  C   UNL     1     105.674 127.366 143.678  0.00  0.00    +0.000 C 
BRANCH  49  52
ATOM     51  O   UNL     1     104.780 126.880 141.318  0.00  0.00    +0.000 OA
ATOM     52  C   UNL     1     105.565 126.822 141.567  0.00  0.00    +0.000 C 
ENDBRANCH  49  52
BRANCH  48  53
ATOM     53  O   UNL     1     106.269 126.690 144.788  0.00  0.00    +0.000 OA
BRANCH  53  55
ATOM     54  O   UNL     1     105.111 125.939 145.159  0.00  0.00    +0.000 OA
ATOM     55  C   UNL     1     105.908 126.122 145.266  0.00  0.00    +0.000 C 
BRANCH  55  56
ATOM     56  C   UNL     1     106.345 125.738 145.851  0.00  0.00    +0.000 C 
ATOM     57  C   UNL     1     106.195 125.893 146.648  0.00  0.00    +0.000 C 
BRANCH  57  59
ATOM     58  O   UNL     1     107.938 124.355 148.991  0.00  0.00    +0.000 OA
ATOM     59  C   UNL     1     106.631 125.509 147.233  0.00  0.00    +0.000 A 
ATOM     60  C   UNL     1     106.257 124.982 147.746  0.00  0.00    +0.000 A 
ATOM     61  C   UNL     1     107.440 125.651 147.306  0.00  0.00    +0.000 A 
ATOM     62  C   UNL     1     106.692 124.598 148.332  0.00  0.00    +0.000 A 
ATOM     63  C   UNL     1     107.875 125.267 147.892  0.00  0.00    +0.000 A 
ATOM     64  C   UNL     1     107.502 124.740 148.405  0.00  0.00    +0.000 A 
ENDBRANCH  57  59
ENDBRANCH  55  56
ENDBRANCH  53  55
ENDBRANCH  48  53
ENDBRANCH  42  50
ENDBRANCH   8  42
TORSDOF 13
ENDMDL
MODEL 7
REMARK VINA RESULT:     -10.3      2.019      3.184
REMARK  Name = 44258894
REMARK  13 active torsions:
REMARK  status: ('A' for Active; 'I' for Inactive)
REMARK    1  A    between atoms: O_1  and  C_23
REMARK    2  A    between atoms: O_1  and  C_26
REMARK    3  A    between atoms: O_4  and  C_27
REMARK    4  A    between atoms: O_4  and  C_40
REMARK    5  A    between atoms: O_12  and  C_39
REMARK    6  A    between atoms: O_12  and  C_45
REMARK    7  A    between atoms: O_13  and  C_37
REMARK    8  A    between atoms: O_13  and  C_51
REMARK    9  A    between atoms: C_28  and  C_33
REMARK   10  A    between atoms: C_38  and  C_41
REMARK   11  A    between atoms: C_42  and  C_50
REMARK   12  A    between atoms: C_51  and  C_54
REMARK   13  A    between atoms: C_58  and  C_59
REMARK                            x       y       z     vdW  Elec       q    Type
REMARK                         _______ _______ _______ _____ _____    ______ ____
ROOT
ATOM      1  O   UNL     1     109.259 127.390 138.994  0.00  0.00    +0.000 OA
ATOM      2  O   UNL     1     111.538 126.843 139.791  0.00  0.00    +0.000 OA
ATOM      3  O   UNL     1     111.014 126.353 141.043  0.00  0.00    +0.000 OA
ATOM      4  C   UNL     1     110.671 127.356 138.777  0.00  0.00    +0.000 A 
ATOM      5  C   UNL     1     109.911 127.538 138.511  0.00  0.00    +0.000 A 
ATOM      6  C   UNL     1     110.778 127.025 139.525  0.00  0.00    +0.000 A 
ATOM      7  C   UNL     1     110.125 126.877 140.008  0.00  0.00    +0.000 A 
ATOM      8  C   UNL     1     108.783 126.566 141.016  0.00  0.00    +0.000 A 
ATOM      9  C   UNL     1     109.367 127.059 139.743  0.00  0.00    +0.000 A 
ATOM     10  C   UNL     1     108.679 126.909 140.236  0.00  0.00    +0.000 A 
ATOM     11  C   UNL     1     110.250 126.532 140.786  0.00  0.00    +0.000 A 
ATOM     12  C   UNL     1     109.575 126.376 141.293  0.00  0.00    +0.000 A 
ENDROOT
BRANCH   5  14
ATOM     13  O   UNL     1     109.486 128.861 135.519  0.00  0.00    +0.000 OA
ATOM     14  C   UNL     1     109.805 127.868 137.763  0.00  0.00    +0.000 A 
ATOM     15  C   UNL     1     109.619 127.385 137.121  0.00  0.00    +0.000 A 
ATOM     16  C   UNL     1     109.884 128.683 137.657  0.00  0.00    +0.000 A 
ATOM     17  C   UNL     1     109.513 127.717 136.373  0.00  0.00    +0.000 A 
ATOM     18  C   UNL     1     109.778 129.014 136.909  0.00  0.00    +0.000 A 
ATOM     19  C   UNL     1     109.592 128.530 136.267  0.00  0.00    +0.000 A 
ENDBRANCH   5  14
BRANCH   4  20
ATOM     20  O   UNL     1     111.324 127.504 138.294  0.00  0.00    +0.000 OA
BRANCH  20  27
ATOM     21  O   UNL     1     111.562 126.140 137.942  0.00  0.00    +0.000 OA
ATOM     22  O   UNL     1     113.998 126.574 137.906  0.00  0.00    +0.000 OA
ATOM     23  O   UNL     1     113.425 125.065 137.565  0.00  0.00    +0.000 OA
ATOM     24  C   UNL     1     112.661 127.039 138.100  0.00  0.00    +0.000 C 
ATOM     25  C   UNL     1     113.186 126.429 137.918  0.00  0.00    +0.000 C 
ATOM     26  C   UNL     1     112.899 125.675 137.748  0.00  0.00    +0.000 C 
ATOM     27  C   UNL     1     111.848 126.895 138.112  0.00  0.00    +0.000 C 
ATOM     28  C   UNL     1     112.087 125.530 137.759  0.00  0.00    +0.000 C 
BRANCH  28  30
ATOM     29  O   UNL     1     111.318 124.656 136.931  0.00  0.00    +0.000 OA
ATOM     30  C   UNL     1     111.800 124.776 137.589  0.00  0.00    +0.000 C 
ENDBRANCH  28  30
BRANCH  24  31
ATOM     31  O   UNL     1     112.948 127.794 138.271  0.00  0.00    +0.000 OA
BRANCH  31  36
ATOM     32  O   UNL     1     113.078 128.061 136.874  0.00  0.00    +0.000 OA
ATOM     33  O   UNL     1     113.492 129.313 138.613  0.00  0.00    +0.000 OA
ATOM     34  O   UNL     1     113.894 130.341 137.386  0.00  0.00    +0.000 OA
ATOM     35  O   UNL     1     113.752 129.849 135.818  0.00  0.00    +0.000 OA
ATOM     36  C   UNL     1     113.149 128.307 137.658  0.00  0.00    +0.000 C 
ATOM     37  C   UNL     1     113.421 129.067 137.829  0.00  0.00    +0.000 C 
ATOM     38  C   UNL     1     113.622 129.581 137.216  0.00  0.00    +0.000 C 
ATOM     39  C   UNL     1     113.551 129.335 136.431  0.00  0.00    +0.000 C 
ATOM     40  C   UNL     1     113.279 128.575 136.261  0.00  0.00    +0.000 C 
ATOM     41  C   UNL     1     113.208 128.329 135.476  0.00  0.00    +0.000 C 
ENDBRANCH  31  36
ENDBRANCH  24  31
ENDBRANCH  20  27
ENDBRANCH   4  20
BRANCH   8  42
ATOM     42  O   UNL     1     108.129 126.418 141.497  0.00  0.00    +0.000 OA
BRANCH  42  50
ATOM     43  O   UNL     1     107.995 125.016 141.255  0.00  0.00    +0.000 OA
ATOM     44  O   UNL     1     105.537 125.271 141.129  0.00  0.00    +0.000 OA
ATOM     45  O   UNL     1     106.223 123.784 140.929  0.00  0.00    +0.000 OA
ATOM     46  C   UNL     1     106.356 125.186 141.171  0.00  0.00    +0.000 C 
ATOM     47  C   UNL     1     106.700 124.443 141.071  0.00  0.00    +0.000 C 
ATOM     48  C   UNL     1     106.833 125.845 141.313  0.00  0.00    +0.000 C 
ATOM     49  C   UNL     1     107.519 124.358 141.113  0.00  0.00    +0.000 C 
ATOM     50  C   UNL     1     107.653 125.760 141.355  0.00  0.00    +0.000 C 
BRANCH  49  52
ATOM     51  O   UNL     1     108.570 123.432 141.395  0.00  0.00    +0.000 OA
ATOM     52  C   UNL     1     107.862 123.614 141.013  0.00  0.00    +0.000 C 
ENDBRANCH  49  52
BRANCH  48  53
ATOM     53  O   UNL     1     106.490 126.588 141.413  0.00  0.00    +0.000 OA
BRANCH  53  55
ATOM     54  O   UNL     1     106.274 126.415 142.814  0.00  0.00    +0.000 OA
ATOM     55  C   UNL     1     106.057 126.754 142.095  0.00  0.00    +0.000 C 
BRANCH  55  56
ATOM     56  C   UNL     1     105.406 127.260 142.058  0.00  0.00    +0.000 C 
ATOM     57  C   UNL     1     105.464 128.030 142.347  0.00  0.00    +0.000 C 
BRANCH  57  59
ATOM     58  O   UNL     1     102.862 130.055 142.201  0.00  0.00    +0.000 OA
ATOM     59  C   UNL     1     104.814 128.536 142.310  0.00  0.00    +0.000 A 
ATOM     60  C   UNL     1     104.601 128.982 142.971  0.00  0.00    +0.000 A 
ATOM     61  C   UNL     1     104.376 128.597 141.613  0.00  0.00    +0.000 A 
ATOM     62  C   UNL     1     103.950 129.488 142.935  0.00  0.00    +0.000 A 
ATOM     63  C   UNL     1     103.726 129.103 141.577  0.00  0.00    +0.000 A 
ATOM     64  C   UNL     1     103.513 129.549 142.238  0.00  0.00    +0.000 A 
ENDBRANCH  57  59
ENDBRANCH  55  56
ENDBRANCH  53  55
ENDBRANCH  48  53
ENDBRANCH  42  50
ENDBRANCH   8  42
TORSDOF 13
ENDMDL
MODEL 8
REMARK VINA RESULT:     -10.3      1.807      3.967
REMARK  Name = 44258894
REMARK  13 active torsions:
REMARK  status: ('A' for Active; 'I' for Inactive)
REMARK    1  A    between atoms: O_1  and  C_23
REMARK    2  A    between atoms: O_1  and  C_26
REMARK    3  A    between atoms: O_4  and  C_27
REMARK    4  A    between atoms: O_4  and  C_40
REMARK    5  A    between atoms: O_12  and  C_39
REMARK    6  A    between atoms: O_12  and  C_45
REMARK    7  A    between atoms: O_13  and  C_37
REMARK    8  A    between atoms: O_13  and  C_51
REMARK    9  A    between atoms: C_28  and  C_33
REMARK   10  A    between atoms: C_38  and  C_41
REMARK   11  A    between atoms: C_42  and  C_50
REMARK   12  A    between atoms: C_51  and  C_54
REMARK   13  A    between atoms: C_58  and  C_59
REMARK                            x       y       z     vdW  Elec       q    Type
REMARK                         _______ _______ _______ _____ _____    ______ ____
ROOT
ATOM      1  O   UNL     1     108.971 127.615 140.242  0.00  0.00    +0.000 OA
ATOM      2  O   UNL     1     110.540 125.761 139.762  0.00  0.00    +0.000 OA
ATOM      3  O   UNL     1     109.750 124.850 140.553  0.00  0.00    +0.000 OA
ATOM      4  C   UNL     1     110.156 127.129 139.607  0.00  0.00    +0.000 A 
ATOM      5  C   UNL     1     109.633 127.747 139.767  0.00  0.00    +0.000 A 
ATOM      6  C   UNL     1     110.016 126.379 139.922  0.00  0.00    +0.000 A 
ATOM      7  C   UNL     1     109.355 126.248 140.397  0.00  0.00    +0.000 A 
ATOM      8  C   UNL     1     107.990 125.962 141.381  0.00  0.00    +0.000 A 
ATOM      9  C   UNL     1     108.833 126.865 140.557  0.00  0.00    +0.000 A 
ATOM     10  C   UNL     1     108.140 126.740 141.051  0.00  0.00    +0.000 A 
ATOM     11  C   UNL     1     109.221 125.462 140.719  0.00  0.00    +0.000 A 
ATOM     12  C   UNL     1     108.534 125.318 141.214  0.00  0.00    +0.000 A 
ENDROOT
BRANCH   5  14
ATOM     13  O   UNL     1     110.191 130.746 138.509  0.00  0.00    +0.000 OA
ATOM     14  C   UNL     1     109.772 128.497 139.452  0.00  0.00    +0.000 A 
ATOM     15  C   UNL     1     109.545 128.668 138.678  0.00  0.00    +0.000 A 
ATOM     16  C   UNL     1     110.139 129.076 139.913  0.00  0.00    +0.000 A 
ATOM     17  C   UNL     1     109.685 129.418 138.364  0.00  0.00    +0.000 A 
ATOM     18  C   UNL     1     110.279 129.825 139.598  0.00  0.00    +0.000 A 
ATOM     19  C   UNL     1     110.052 129.996 138.823  0.00  0.00    +0.000 A 
ENDBRANCH   5  14
BRANCH   4  20
ATOM     20  O   UNL     1     110.817 127.261 139.132  0.00  0.00    +0.000 OA
BRANCH  20  27
ATOM     21  O   UNL     1     111.763 127.245 140.203  0.00  0.00    +0.000 OA
ATOM     22  O   UNL     1     113.450 126.237 138.699  0.00  0.00    +0.000 OA
ATOM     23  O   UNL     1     113.834 126.558 140.272  0.00  0.00    +0.000 OA
ATOM     24  C   UNL     1     112.133 126.749 138.916  0.00  0.00    +0.000 C 
ATOM     25  C   UNL     1     112.888 126.573 139.201  0.00  0.00    +0.000 C 
ATOM     26  C   UNL     1     113.079 126.734 139.987  0.00  0.00    +0.000 C 
ATOM     27  C   UNL     1     111.571 127.085 139.417  0.00  0.00    +0.000 C 
ATOM     28  C   UNL     1     112.516 127.070 140.488  0.00  0.00    +0.000 C 
BRANCH  28  30
ATOM     29  O   UNL     1     112.680 128.004 141.557  0.00  0.00    +0.000 OA
ATOM     30  C   UNL     1     112.709 127.230 141.275  0.00  0.00    +0.000 C 
ENDBRANCH  28  30
BRANCH  24  31
ATOM     31  O   UNL     1     111.942 126.589 138.129  0.00  0.00    +0.000 OA
BRANCH  31  36
ATOM     32  O   UNL     1     112.616 127.780 137.721  0.00  0.00    +0.000 OA
ATOM     33  O   UNL     1     111.519 126.291 136.563  0.00  0.00    +0.000 OA
ATOM     34  O   UNL     1     111.981 127.334 135.371  0.00  0.00    +0.000 OA
ATOM     35  O   UNL     1     112.867 128.675 135.745  0.00  0.00    +0.000 OA
ATOM     36  C   UNL     1     112.174 127.110 137.533  0.00  0.00    +0.000 C 
ATOM     37  C   UNL     1     111.961 126.961 136.750  0.00  0.00    +0.000 C 
ATOM     38  C   UNL     1     112.193 127.482 136.154  0.00  0.00    +0.000 C 
ATOM     39  C   UNL     1     112.636 128.153 136.341  0.00  0.00    +0.000 C 
ATOM     40  C   UNL     1     112.847 128.301 137.125  0.00  0.00    +0.000 C 
ATOM     41  C   UNL     1     113.291 128.972 137.312  0.00  0.00    +0.000 C 
ENDBRANCH  31  36
ENDBRANCH  24  31
ENDBRANCH  20  27
ENDBRANCH   4  20
BRANCH   8  42
ATOM     42  O   UNL     1     107.327 125.833 141.856  0.00  0.00    +0.000 OA
BRANCH  42  50
ATOM     43  O   UNL     1     106.547 125.280 140.794  0.00  0.00    +0.000 OA
ATOM     44  O   UNL     1     105.282 123.920 142.431  0.00  0.00    +0.000 OA
ATOM     45  O   UNL     1     104.924 123.821 140.824  0.00  0.00    +0.000 OA
ATOM     46  C   UNL     1     105.704 124.373 141.886  0.00  0.00    +0.000 C 
ATOM     47  C   UNL     1     105.525 124.324 141.082  0.00  0.00    +0.000 C 
ATOM     48  C   UNL     1     106.305 124.877 142.143  0.00  0.00    +0.000 C 
ATOM     49  C   UNL     1     105.946 124.777 140.536  0.00  0.00    +0.000 C 
ATOM     50  C   UNL     1     106.727 125.330 141.598  0.00  0.00    +0.000 C 
BRANCH  49  52
ATOM     51  O   UNL     1     105.523 125.400 139.322  0.00  0.00    +0.000 OA
ATOM     52  C   UNL     1     105.767 124.727 139.732  0.00  0.00    +0.000 C 
ENDBRANCH  49  52
BRANCH  48  53
ATOM     53  O   UNL     1     106.485 124.927 142.947  0.00  0.00    +0.000 OA
BRANCH  53  55
ATOM     54  O   UNL     1     105.520 125.949 143.204  0.00  0.00    +0.000 OA
ATOM     55  C   UNL     1     105.963 125.303 143.464  0.00  0.00    +0.000 C 
BRANCH  55  56
ATOM     56  C   UNL     1     105.884 125.034 144.239  0.00  0.00    +0.000 C 
ATOM     57  C   UNL     1     105.892 125.571 144.866  0.00  0.00    +0.000 C 
BRANCH  57  59
ATOM     58  O   UNL     1     105.580 124.496 147.970  0.00  0.00    +0.000 OA
ATOM     59  C   UNL     1     105.813 125.302 145.641  0.00  0.00    +0.000 A 
ATOM     60  C   UNL     1     106.447 125.368 146.166  0.00  0.00    +0.000 A 
ATOM     61  C   UNL     1     105.102 124.967 145.893  0.00  0.00    +0.000 A 
ATOM     62  C   UNL     1     106.369 125.099 146.942  0.00  0.00    +0.000 A 
ATOM     63  C   UNL     1     105.025 124.699 146.669  0.00  0.00    +0.000 A 
ATOM     64  C   UNL     1     105.658 124.765 147.194  0.00  0.00    +0.000 A 
ENDBRANCH  57  59
ENDBRANCH  55  56
ENDBRANCH  53  55
ENDBRANCH  48  53
ENDBRANCH  42  50
ENDBRANCH   8  42
TORSDOF 13
ENDMDL
MODEL 9
REMARK VINA RESULT:     -10.2      2.551      4.479
REMARK  Name = 44258894
REMARK  13 active torsions:
REMARK  status: ('A' for Active; 'I' for Inactive)
REMARK    1  A    between atoms: O_1  and  C_23
REMARK    2  A    between atoms: O_1  and  C_26
REMARK    3  A    between atoms: O_4  and  C_27
REMARK    4  A    between atoms: O_4  and  C_40
REMARK    5  A    between atoms: O_12  and  C_39
REMARK    6  A    between atoms: O_12  and  C_45
REMARK    7  A    between atoms: O_13  and  C_37
REMARK    8  A    between atoms: O_13  and  C_51
REMARK    9  A    between atoms: C_28  and  C_33
REMARK   10  A    between atoms: C_38  and  C_41
REMARK   11  A    between atoms: C_42  and  C_50
REMARK   12  A    between atoms: C_51  and  C_54
REMARK   13  A    between atoms: C_58  and  C_59
REMARK                            x       y       z     vdW  Elec       q    Type
REMARK                         _______ _______ _______ _____ _____    ______ ____
ROOT
ATOM      1  O   UNL     1     110.284 126.931 140.904  0.00  0.00    +0.000 OA
ATOM      2  O   UNL     1     109.220 125.740 139.012  0.00  0.00    +0.000 OA
ATOM      3  O   UNL     1     107.993 125.594 139.757  0.00  0.00    +0.000 OA
ATOM      4  C   UNL     1     110.354 126.401 139.578  0.00  0.00    +0.000 A 
ATOM      5  C   UNL     1     110.708 126.798 140.210  0.00  0.00    +0.000 A 
ATOM      6  C   UNL     1     109.575 126.137 139.643  0.00  0.00    +0.000 A 
ATOM      7  C   UNL     1     109.150 126.270 140.338  0.00  0.00    +0.000 A 
ATOM      8  C   UNL     1     108.262 126.539 141.771  0.00  0.00    +0.000 A 
ATOM      9  C   UNL     1     109.505 126.667 140.968  0.00  0.00    +0.000 A 
ATOM     10  C   UNL     1     109.072 126.811 141.697  0.00  0.00    +0.000 A 
ATOM     11  C   UNL     1     108.340 125.990 140.393  0.00  0.00    +0.000 A 
ATOM     12  C   UNL     1     107.892 126.125 141.113  0.00  0.00    +0.000 A 
ENDROOT
BRANCH   5  14
ATOM     13  O   UNL     1     113.824 127.851 139.950  0.00  0.00    +0.000 OA
ATOM     14  C   UNL     1     111.487 127.062 140.145  0.00  0.00    +0.000 A 
ATOM     15  C   UNL     1     111.642 127.845 139.935  0.00  0.00    +0.000 A 
ATOM     16  C   UNL     1     112.112 126.542 140.289  0.00  0.00    +0.000 A 
ATOM     17  C   UNL     1     112.422 128.107 139.871  0.00  0.00    +0.000 A 
ATOM     18  C   UNL     1     112.891 126.805 140.224  0.00  0.00    +0.000 A 
ATOM     19  C   UNL     1     113.046 127.588 140.015  0.00  0.00    +0.000 A 
ENDBRANCH   5  14
BRANCH   4  20
ATOM     20  O   UNL     1     110.778 126.268 138.884  0.00  0.00    +0.000 OA
BRANCH  20  27
ATOM     21  O   UNL     1     110.101 127.250 138.098  0.00  0.00    +0.000 OA
ATOM     22  O   UNL     1     110.293 125.791 136.108  0.00  0.00    +0.000 OA
ATOM     23  O   UNL     1     109.551 127.260 135.985  0.00  0.00    +0.000 OA
ATOM     24  C   UNL     1     110.536 126.029 137.496  0.00  0.00    +0.000 C 
ATOM     25  C   UNL     1     110.229 126.277 136.771  0.00  0.00    +0.000 C 
ATOM     26  C   UNL     1     109.858 127.012 136.710  0.00  0.00    +0.000 C 
ATOM     27  C   UNL     1     110.472 126.516 138.160  0.00  0.00    +0.000 C 
ATOM     28  C   UNL     1     109.794 127.498 137.374  0.00  0.00    +0.000 C 
BRANCH  28  30
ATOM     29  O   UNL     1     109.847 128.923 137.460  0.00  0.00    +0.000 OA
ATOM     30  C   UNL     1     109.423 128.232 137.312  0.00  0.00    +0.000 C 
ENDBRANCH  28  30
BRANCH  24  31
ATOM     31  O   UNL     1     110.907 125.295 137.557  0.00  0.00    +0.000 OA
BRANCH  31  36
ATOM     32  O   UNL     1     112.118 125.853 137.046  0.00  0.00    +0.000 OA
ATOM     33  O   UNL     1     111.564 123.784 137.464  0.00  0.00    +0.000 OA
ATOM     34  O   UNL     1     113.104 123.588 136.905  0.00  0.00    +0.000 OA
ATOM     35  O   UNL     1     113.987 124.902 136.440  0.00  0.00    +0.000 OA
ATOM     36  C   UNL     1     111.677 125.197 137.278  0.00  0.00    +0.000 C 
ATOM     37  C   UNL     1     112.005 124.441 137.231  0.00  0.00    +0.000 C 
ATOM     38  C   UNL     1     112.775 124.343 136.952  0.00  0.00    +0.000 C 
ATOM     39  C   UNL     1     113.217 125.000 136.720  0.00  0.00    +0.000 C 
ATOM     40  C   UNL     1     112.888 125.755 136.767  0.00  0.00    +0.000 C 
ATOM     41  C   UNL     1     113.330 126.413 136.534  0.00  0.00    +0.000 C 
ENDBRANCH  31  36
ENDBRANCH  24  31
ENDBRANCH  20  27
ENDBRANCH   4  20
BRANCH   8  42
ATOM     42  O   UNL     1     107.839 126.673 142.467  0.00  0.00    +0.000 OA
BRANCH  42  50
ATOM     43  O   UNL     1     107.418 128.002 142.151  0.00  0.00    +0.000 OA
ATOM     44  O   UNL     1     105.247 127.579 143.262  0.00  0.00    +0.000 OA
ATOM     45  O   UNL     1     105.551 129.049 142.576  0.00  0.00    +0.000 OA
ATOM     46  C   UNL     1     105.971 127.720 142.892  0.00  0.00    +0.000 C 
ATOM     47  C   UNL     1     106.123 128.455 142.549  0.00  0.00    +0.000 C 
ATOM     48  C   UNL     1     106.544 127.126 142.864  0.00  0.00    +0.000 C 
ATOM     49  C   UNL     1     106.846 128.596 142.178  0.00  0.00    +0.000 C 
ATOM     50  C   UNL     1     107.267 127.267 142.494  0.00  0.00    +0.000 C 
BRANCH  49  52
ATOM     51  O   UNL     1     107.082 129.394 141.017  0.00  0.00    +0.000 OA
ATOM     52  C   UNL     1     106.998 129.331 141.835  0.00  0.00    +0.000 C 
ENDBRANCH  49  52
BRANCH  48  53
ATOM     53  O   UNL     1     106.392 126.391 143.207  0.00  0.00    +0.000 OA
BRANCH  53  55
ATOM     54  O   UNL     1     106.996 126.661 144.474  0.00  0.00    +0.000 OA
ATOM     55  C   UNL     1     106.396 126.311 144.029  0.00  0.00    +0.000 C 
BRANCH  55  56
ATOM     56  C   UNL     1     105.801 125.880 144.404  0.00  0.00    +0.000 C 
ATOM     57  C   UNL     1     105.993 125.335 144.993  0.00  0.00    +0.000 C 
BRANCH  57  59
ATOM     58  O   UNL     1     103.613 123.611 146.492  0.00  0.00    +0.000 OA
ATOM     59  C   UNL     1     105.398 124.905 145.368  0.00  0.00    +0.000 A 
ATOM     60  C   UNL     1     105.129 124.199 145.035  0.00  0.00    +0.000 A 
ATOM     61  C   UNL     1     105.072 125.179 146.074  0.00  0.00    +0.000 A 
ATOM     62  C   UNL     1     104.534 123.768 145.410  0.00  0.00    +0.000 A 
ATOM     63  C   UNL     1     104.478 124.747 146.449  0.00  0.00    +0.000 A 
ATOM     64  C   UNL     1     104.208 124.042 146.117  0.00  0.00    +0.000 A 
ENDBRANCH  57  59
ENDBRANCH  55  56
ENDBRANCH  53  55
ENDBRANCH  48  53
ENDBRANCH  42  50
ENDBRANCH   8  42
TORSDOF 13
ENDMDL
MODEL 10
REMARK VINA RESULT:     -10.2      5.846     10.210
REMARK  Name = 44258894
REMARK  13 active torsions:
REMARK  status: ('A' for Active; 'I' for Inactive)
REMARK    1  A    between atoms: O_1  and  C_23
REMARK    2  A    between atoms: O_1  and  C_26
REMARK    3  A    between atoms: O_4  and  C_27
REMARK    4  A    between atoms: O_4  and  C_40
REMARK    5  A    between atoms: O_12  and  C_39
REMARK    6  A    between atoms: O_12  and  C_45
REMARK    7  A    between atoms: O_13  and  C_37
REMARK    8  A    between atoms: O_13  and  C_51
REMARK    9  A    between atoms: C_28  and  C_33
REMARK   10  A    between atoms: C_38  and  C_41
REMARK   11  A    between atoms: C_42  and  C_50
REMARK   12  A    between atoms: C_51  and  C_54
REMARK   13  A    between atoms: C_58  and  C_59
REMARK                            x       y       z     vdW  Elec       q    Type
REMARK                         _______ _______ _______ _____ _____    ______ ____
ROOT
ATOM      1  O   UNL     1     106.653 129.637 146.319  0.00  0.00    +0.000 OA
ATOM      2  O   UNL     1     107.721 127.923 144.887  0.00  0.00    +0.000 OA
ATOM      3  O   UNL     1     108.696 128.879 144.420  0.00  0.00    +0.000 OA
ATOM      4  C   UNL     1     106.711 128.296 145.826  0.00  0.00    +0.000 A 
ATOM      5  C   UNL     1     106.355 128.868 146.303  0.00  0.00    +0.000 A 
ATOM      6  C   UNL     1     107.365 128.495 145.364  0.00  0.00    +0.000 A 
ATOM      7  C   UNL     1     107.664 129.263 145.380  0.00  0.00    +0.000 A 
ATOM      8  C   UNL     1     108.291 130.851 145.403  0.00  0.00    +0.000 A 
ATOM      9  C   UNL     1     107.308 129.834 145.857  0.00  0.00    +0.000 A 
ATOM     10  C   UNL     1     107.610 130.639 145.881  0.00  0.00    +0.000 A 
ATOM     11  C   UNL     1     108.346 129.457 144.894  0.00  0.00    +0.000 A 
ATOM     12  C   UNL     1     108.662 130.256 144.906  0.00  0.00    +0.000 A 
ENDROOT
BRANCH   5  14
ATOM     13  O   UNL     1     103.736 128.076 148.147  0.00  0.00    +0.000 OA
ATOM     14  C   UNL     1     105.700 128.670 146.764  0.00  0.00    +0.000 A 
ATOM     15  C   UNL     1     105.807 128.333 147.510  0.00  0.00    +0.000 A 
ATOM     16  C   UNL     1     104.938 128.809 146.479  0.00  0.00    +0.000 A 
ATOM     17  C   UNL     1     105.152 128.135 147.970  0.00  0.00    +0.000 A 
ATOM     18  C   UNL     1     104.284 128.610 146.941  0.00  0.00    +0.000 A 
ATOM     19  C   UNL     1     104.390 128.273 147.686  0.00  0.00    +0.000 A 
ENDBRANCH   5  14
BRANCH   4  20
ATOM     20  O   UNL     1     106.412 127.527 145.810  0.00  0.00    +0.000 OA
BRANCH  20  27
ATOM     21  O   UNL     1     105.854 127.621 144.498  0.00  0.00    +0.000 OA
ATOM     22  O   UNL     1     106.356 125.228 144.114  0.00  0.00    +0.000 OA
ATOM     23  O   UNL     1     105.630 126.119 142.930  0.00  0.00    +0.000 OA
ATOM     24  C   UNL     1     106.384 126.378 144.962  0.00  0.00    +0.000 C 
ATOM     25  C   UNL     1     106.189 126.026 144.242  0.00  0.00    +0.000 C 
ATOM     26  C   UNL     1     105.826 126.471 143.650  0.00  0.00    +0.000 C 
ATOM     27  C   UNL     1     106.217 127.176 145.091  0.00  0.00    +0.000 C 
ATOM     28  C   UNL     1     105.658 127.269 143.779  0.00  0.00    +0.000 C 
BRANCH  28  30
ATOM     29  O   UNL     1     104.612 128.144 143.353  0.00  0.00    +0.000 OA
ATOM     30  C   UNL     1     105.295 127.714 143.186  0.00  0.00    +0.000 C 
ENDBRANCH  28  30
BRANCH  24  31
ATOM     31  O   UNL     1     106.747 125.932 145.554  0.00  0.00    +0.000 OA
BRANCH  31  36
ATOM     32  O   UNL     1     105.480 125.392 145.931  0.00  0.00    +0.000 OA
ATOM     33  O   UNL     1     107.455 125.166 146.832  0.00  0.00    +0.000 OA
ATOM     34  O   UNL     1     106.541 124.242 147.849  0.00  0.00    +0.000 OA
ATOM     35  O   UNL     1     104.920 124.084 147.587  0.00  0.00    +0.000 OA
ATOM     36  C   UNL     1     106.291 125.470 146.062  0.00  0.00    +0.000 C 
ATOM     37  C   UNL     1     106.645 125.087 146.701  0.00  0.00    +0.000 C 
ATOM     38  C   UNL     1     106.188 124.625 147.210  0.00  0.00    +0.000 C 
ATOM     39  C   UNL     1     105.377 124.546 147.079  0.00  0.00    +0.000 C 
ATOM     40  C   UNL     1     105.024 124.930 146.439  0.00  0.00    +0.000 C 
ATOM     41  C   UNL     1     104.212 124.851 146.309  0.00  0.00    +0.000 C 
ENDBRANCH  31  36
ENDBRANCH  24  31
ENDBRANCH  20  27
ENDBRANCH   4  20
BRANCH   8  42
ATOM     42  O   UNL     1     108.587 131.621 145.421  0.00  0.00    +0.000 OA
BRANCH  42  50
ATOM     43  O   UNL     1     107.580 132.161 144.563  0.00  0.00    +0.000 OA
ATOM     44  O   UNL     1     107.735 134.330 145.745  0.00  0.00    +0.000 OA
ATOM     45  O   UNL     1     106.676 134.147 144.493  0.00  0.00    +0.000 OA
ATOM     46  C   UNL     1     107.684 133.607 145.351  0.00  0.00    +0.000 C 
ATOM     47  C   UNL     1     107.154 133.516 144.725  0.00  0.00    +0.000 C 
ATOM     48  C   UNL     1     108.161 132.975 145.583  0.00  0.00    +0.000 C 
ATOM     49  C   UNL     1     107.102 132.793 144.331  0.00  0.00    +0.000 C 
ATOM     50  C   UNL     1     108.110 132.252 145.189  0.00  0.00    +0.000 C 
BRANCH  49  52
ATOM     51  O   UNL     1     106.830 132.377 142.991  0.00  0.00    +0.000 OA
ATOM     52  C   UNL     1     106.573 132.701 143.705  0.00  0.00    +0.000 C 
ENDBRANCH  49  52
BRANCH  48  53
ATOM     53  O   UNL     1     108.691 133.067 146.209  0.00  0.00    +0.000 OA
BRANCH  53  55
ATOM     54  O   UNL     1     109.647 133.782 145.424  0.00  0.00    +0.000 OA
ATOM     55  C   UNL     1     109.472 133.286 146.060  0.00  0.00    +0.000 C 
BRANCH  55  56
ATOM     56  C   UNL     1     110.078 133.010 146.546  0.00  0.00    +0.000 C 
ATOM     57  C   UNL     1     110.751 133.471 146.672  0.00  0.00    +0.000 C 
BRANCH  57  59
ATOM     58  O   UNL     1     113.176 132.368 148.619  0.00  0.00    +0.000 OA
ATOM     59  C   UNL     1     111.357 133.195 147.158  0.00  0.00    +0.000 A 
ATOM     60  C   UNL     1     111.359 133.385 147.961  0.00  0.00    +0.000 A 
ATOM     61  C   UNL     1     111.961 132.730 146.842  0.00  0.00    +0.000 A 
ATOM     62  C   UNL     1     111.965 133.109 148.448  0.00  0.00    +0.000 A 
ATOM     63  C   UNL     1     112.566 132.455 147.329  0.00  0.00    +0.000 A 
ATOM     64  C   UNL     1     112.569 132.644 148.132  0.00  0.00    +0.000 A 
ENDBRANCH  57  59
ENDBRANCH  55  56
ENDBRANCH  53  55
ENDBRANCH  48  53
ENDBRANCH  42  50
ENDBRANCH   8  42
TORSDOF 13
ENDMDL
