MODEL 1
REMARK VINA RESULT:      -9.0      0.000      0.000
REMARK  Name = 11016019
REMARK  5 active torsions:
REMARK  status: ('A' for Active; 'I' for Inactive)
REMARK    1  A    between atoms: O_2  and  C_16
REMARK    2  A    between atoms: O_2  and  C_18
REMARK    3  A    between atoms: O_10  and  C_32
REMARK    4  A    between atoms: C_15  and  C_17
REMARK    5  A    between atoms: C_25  and  C_27
REMARK                            x       y       z     vdW  Elec       q    Type
REMARK                         _______ _______ _______ _____ _____    ______ ____
ROOT
ATOM      1  O   UNL     1     110.414 127.484 136.564  0.00  0.00    +0.000 OA
ATOM      2  O   UNL     1     107.913 128.641 135.697  0.00  0.00    +0.000 OA
ATOM      3  O   UNL     1     108.048 127.217 135.886  0.00  0.00    +0.000 OA
ATOM      4  C   UNL     1     109.869 129.617 136.179  0.00  0.00    +0.000 A 
ATOM      5  C   UNL     1     110.332 128.924 136.389  0.00  0.00    +0.000 A 
ATOM      6  C   UNL     1     109.049 129.524 135.944  0.00  0.00    +0.000 A 
ATOM      7  C   UNL     1     109.966 128.147 136.361  0.00  0.00    +0.000 A 
ATOM      8  C   UNL     1     109.177 128.057 136.135  0.00  0.00    +0.000 A 
ATOM      9  C   UNL     1     108.700 128.740 135.921  0.00  0.00    +0.000 A 
ATOM     10  C   UNL     1     108.837 127.306 136.112  0.00  0.00    +0.000 A 
ATOM     11  C   UNL     1     110.074 126.733 136.541  0.00  0.00    +0.000 A 
ATOM     12  C   UNL     1     109.285 126.644 136.315  0.00  0.00    +0.000 A 
ENDROOT
BRANCH  11  14
ATOM     13  O   UNL     1     111.166 125.001 138.534  0.00  0.00    +0.000 OA
ATOM     14  C   UNL     1     110.522 126.071 136.744  0.00  0.00    +0.000 A 
ATOM     15  C   UNL     1     110.620 125.867 137.537  0.00  0.00    +0.000 A 
ATOM     16  C   UNL     1     110.871 125.612 136.154  0.00  0.00    +0.000 A 
ATOM     17  C   UNL     1     111.068 125.205 137.741  0.00  0.00    +0.000 A 
ATOM     18  C   UNL     1     111.319 124.950 136.357  0.00  0.00    +0.000 A 
ATOM     19  C   UNL     1     111.417 124.746 137.151  0.00  0.00    +0.000 A 
BRANCH  19  20
ATOM     20  O   UNL     1     111.866 124.084 137.354  0.00  0.00    +0.000 OA
ATOM     21  C   UNL     1     112.328 123.707 136.784  0.00  0.00    +0.000 C 
ENDBRANCH  19  20
ENDBRANCH  11  14
BRANCH   4  22
ATOM     22  O   UNL     1     110.212 130.367 136.203  0.00  0.00    +0.000 OA
BRANCH  22  31
ATOM     23  O   UNL     1     109.622 130.837 137.416  0.00  0.00    +0.000 OA
ATOM     24  O   UNL     1     111.787 131.832 138.085  0.00  0.00    +0.000 OA
ATOM     25  O   UNL     1     110.475 131.970 139.075  0.00  0.00    +0.000 OA
ATOM     26  O   UNL     1     111.656 131.030 136.649  0.00  0.00    +0.000 OA
ATOM     27  C   UNL     1     111.065 131.500 137.862  0.00  0.00    +0.000 C 
ATOM     28  C   UNL     1     110.410 131.570 138.357  0.00  0.00    +0.000 C 
ATOM     29  C   UNL     1     111.000 131.100 137.144  0.00  0.00    +0.000 C 
ATOM     30  C   UNL     1     109.688 131.238 138.134  0.00  0.00    +0.000 C 
ATOM     31  C   UNL     1     110.278 130.768 136.921  0.00  0.00    +0.000 C 
BRANCH  30  33
ATOM     32  O   UNL     1     108.336 131.652 138.346  0.00  0.00    +0.000 OA
ATOM     33  C   UNL     1     109.031 131.307 138.629  0.00  0.00    +0.000 C 
ENDBRANCH  30  33
ENDBRANCH  22  31
ENDBRANCH   4  22
TORSDOF 5
ENDMDL
MODEL 2
REMARK VINA RESULT:      -9.0      6.096      7.538
REMARK  Name = 11016019
REMARK  5 active torsions:
REMARK  status: ('A' for Active; 'I' for Inactive)
REMARK    1  A    between atoms: O_2  and  C_16
REMARK    2  A    between atoms: O_2  and  C_18
REMARK    3  A    between atoms: O_10  and  C_32
REMARK    4  A    between atoms: C_15  and  C_17
REMARK    5  A    between atoms: C_25  and  C_27
REMARK                            x       y       z     vdW  Elec       q    Type
REMARK                         _______ _______ _______ _____ _____    ______ ____
ROOT
ATOM      1  O   UNL     1     104.631 124.603 139.599  0.00  0.00    +0.000 OA
ATOM      2  O   UNL     1     105.626 123.661 142.143  0.00  0.00    +0.000 OA
ATOM      3  O   UNL     1     104.857 122.799 141.280  0.00  0.00    +0.000 OA
ATOM      4  C   UNL     1     105.837 125.660 141.155  0.00  0.00    +0.000 A 
ATOM      5  C   UNL     1     105.401 125.512 140.429  0.00  0.00    +0.000 A 
ATOM      6  C   UNL     1     105.916 125.035 141.738  0.00  0.00    +0.000 A 
ATOM      7  C   UNL     1     105.049 124.740 140.297  0.00  0.00    +0.000 A 
ATOM      8  C   UNL     1     105.124 124.138 140.857  0.00  0.00    +0.000 A 
ATOM      9  C   UNL     1     105.557 124.269 141.588  0.00  0.00    +0.000 A 
ATOM     10  C   UNL     1     104.781 123.400 140.719  0.00  0.00    +0.000 A 
ATOM     11  C   UNL     1     104.289 123.865 139.461  0.00  0.00    +0.000 A 
ATOM     12  C   UNL     1     104.364 123.264 140.021  0.00  0.00    +0.000 A 
ENDROOT
BRANCH  11  14
ATOM     13  O   UNL     1     101.816 123.795 138.030  0.00  0.00    +0.000 OA
ATOM     14  C   UNL     1     103.871 123.728 138.763  0.00  0.00    +0.000 A 
ATOM     15  C   UNL     1     103.052 123.830 138.745  0.00  0.00    +0.000 A 
ATOM     16  C   UNL     1     104.272 123.490 138.082  0.00  0.00    +0.000 A 
ATOM     17  C   UNL     1     102.634 123.693 138.048  0.00  0.00    +0.000 A 
ATOM     18  C   UNL     1     103.854 123.353 137.384  0.00  0.00    +0.000 A 
ATOM     19  C   UNL     1     103.035 123.455 137.367  0.00  0.00    +0.000 A 
BRANCH  19  20
ATOM     20  O   UNL     1     102.617 123.318 136.669  0.00  0.00    +0.000 OA
ATOM     21  C   UNL     1     103.002 122.998 136.013  0.00  0.00    +0.000 C 
ENDBRANCH  19  20
ENDBRANCH  11  14
BRANCH   4  22
ATOM     22  O   UNL     1     106.179 126.399 141.290  0.00  0.00    +0.000 OA
BRANCH  22  31
ATOM     23  O   UNL     1     107.501 126.053 140.872  0.00  0.00    +0.000 OA
ATOM     24  O   UNL     1     108.441 127.492 142.653  0.00  0.00    +0.000 OA
ATOM     25  O   UNL     1     109.448 126.666 141.640  0.00  0.00    +0.000 OA
ATOM     26  O   UNL     1     106.806 127.358 142.478  0.00  0.00    +0.000 OA
ATOM     27  C   UNL     1     108.128 127.012 142.059  0.00  0.00    +0.000 C 
ATOM     28  C   UNL     1     108.631 126.600 141.553  0.00  0.00    +0.000 C 
ATOM     29  C   UNL     1     107.310 126.946 141.972  0.00  0.00    +0.000 C 
ATOM     30  C   UNL     1     108.318 126.120 140.960  0.00  0.00    +0.000 C 
ATOM     31  C   UNL     1     106.996 126.466 141.378  0.00  0.00    +0.000 C 
BRANCH  30  33
ATOM     32  O   UNL     1     108.960 124.903 140.576  0.00  0.00    +0.000 OA
ATOM     33  C   UNL     1     108.821 125.707 140.453  0.00  0.00    +0.000 C 
ENDBRANCH  30  33
ENDBRANCH  22  31
ENDBRANCH   4  22
TORSDOF 5
ENDMDL
MODEL 3
REMARK VINA RESULT:      -8.9      6.634      9.375
REMARK  Name = 11016019
REMARK  5 active torsions:
REMARK  status: ('A' for Active; 'I' for Inactive)
REMARK    1  A    between atoms: O_2  and  C_16
REMARK    2  A    between atoms: O_2  and  C_18
REMARK    3  A    between atoms: O_10  and  C_32
REMARK    4  A    between atoms: C_15  and  C_17
REMARK    5  A    between atoms: C_25  and  C_27
REMARK                            x       y       z     vdW  Elec       q    Type
REMARK                         _______ _______ _______ _____ _____    ______ ____
ROOT
ATOM      1  O   UNL     1     103.262 130.251 141.961  0.00  0.00    +0.000 OA
ATOM      2  O   UNL     1     103.687 127.927 140.298  0.00  0.00    +0.000 OA
ATOM      3  O   UNL     1     102.812 128.993 139.877  0.00  0.00    +0.000 OA
ATOM      4  C   UNL     1     104.533 128.446 142.306  0.00  0.00    +0.000 A 
ATOM      5  C   UNL     1     104.154 129.207 142.433  0.00  0.00    +0.000 A 
ATOM      6  C   UNL     1     104.377 128.009 141.583  0.00  0.00    +0.000 A 
ATOM      7  C   UNL     1     103.623 129.520 141.834  0.00  0.00    +0.000 A 
ATOM      8  C   UNL     1     103.473 129.101 141.139  0.00  0.00    +0.000 A 
ATOM      9  C   UNL     1     103.844 128.339 140.996  0.00  0.00    +0.000 A 
ATOM     10  C   UNL     1     102.962 129.412 140.571  0.00  0.00    +0.000 A 
ATOM     11  C   UNL     1     102.751 130.562 141.393  0.00  0.00    +0.000 A 
ATOM     12  C   UNL     1     102.601 130.143 140.699  0.00  0.00    +0.000 A 
ENDROOT
BRANCH  11  14
ATOM     13  O   UNL     1     102.712 133.398 141.041  0.00  0.00    +0.000 OA
ATOM     14  C   UNL     1     102.389 131.293 141.520  0.00  0.00    +0.000 A 
ATOM     15  C   UNL     1     102.731 131.980 141.217  0.00  0.00    +0.000 A 
ATOM     16  C   UNL     1     101.686 131.336 141.948  0.00  0.00    +0.000 A 
ATOM     17  C   UNL     1     102.370 132.711 141.344  0.00  0.00    +0.000 A 
ATOM     18  C   UNL     1     101.324 132.067 142.075  0.00  0.00    +0.000 A 
ATOM     19  C   UNL     1     101.667 132.754 141.772  0.00  0.00    +0.000 A 
BRANCH  19  20
ATOM     20  O   UNL     1     101.305 133.485 141.899  0.00  0.00    +0.000 OA
ATOM     21  C   UNL     1     100.721 133.563 142.477  0.00  0.00    +0.000 C 
ENDBRANCH  19  20
ENDBRANCH  11  14
BRANCH   4  22
ATOM     22  O   UNL     1     105.044 128.137 142.875  0.00  0.00    +0.000 OA
BRANCH  22  31
ATOM     23  O   UNL     1     106.249 128.691 142.342  0.00  0.00    +0.000 OA
ATOM     24  O   UNL     1     107.473 126.635 142.973  0.00  0.00    +0.000 OA
ATOM     25  O   UNL     1     108.269 127.874 142.230  0.00  0.00    +0.000 OA
ATOM     26  O   UNL     1     105.860 126.766 143.295  0.00  0.00    +0.000 OA
ATOM     27  C   UNL     1     107.065 127.320 142.763  0.00  0.00    +0.000 C 
ATOM     28  C   UNL     1     107.463 127.939 142.392  0.00  0.00    +0.000 C 
ATOM     29  C   UNL     1     106.258 127.385 142.924  0.00  0.00    +0.000 C 
ATOM     30  C   UNL     1     107.055 128.625 142.181  0.00  0.00    +0.000 C 
ATOM     31  C   UNL     1     105.850 128.071 142.714  0.00  0.00    +0.000 C 
BRANCH  30  33
ATOM     32  O   UNL     1     107.214 129.498 141.061  0.00  0.00    +0.000 OA
ATOM     33  C   UNL     1     107.453 129.245 141.810  0.00  0.00    +0.000 C 
ENDBRANCH  30  33
ENDBRANCH  22  31
ENDBRANCH   4  22
TORSDOF 5
ENDMDL
MODEL 4
REMARK VINA RESULT:      -8.9      2.440      5.141
REMARK  Name = 11016019
REMARK  5 active torsions:
REMARK  status: ('A' for Active; 'I' for Inactive)
REMARK    1  A    between atoms: O_2  and  C_16
REMARK    2  A    between atoms: O_2  and  C_18
REMARK    3  A    between atoms: O_10  and  C_32
REMARK    4  A    between atoms: C_15  and  C_17
REMARK    5  A    between atoms: C_25  and  C_27
REMARK                            x       y       z     vdW  Elec       q    Type
REMARK                         _______ _______ _______ _____ _____    ______ ____
ROOT
ATOM      1  O   UNL     1     112.370 128.277 135.527  0.00  0.00    +0.000 OA
ATOM      2  O   UNL     1     109.590 128.325 134.744  0.00  0.00    +0.000 OA
ATOM      3  O   UNL     1     110.420 129.497 134.612  0.00  0.00    +0.000 OA
ATOM      4  C   UNL     1     110.825 126.664 135.597  0.00  0.00    +0.000 A 
ATOM      5  C   UNL     1     111.579 127.069 135.681  0.00  0.00    +0.000 A 
ATOM      6  C   UNL     1     110.149 127.087 135.280  0.00  0.00    +0.000 A 
ATOM      7  C   UNL     1     111.645 127.892 135.445  0.00  0.00    +0.000 A 
ATOM      8  C   UNL     1     110.995 128.300 135.140  0.00  0.00    +0.000 A 
ATOM      9  C   UNL     1     110.234 127.910 135.050  0.00  0.00    +0.000 A 
ATOM     10  C   UNL     1     111.070 129.091 134.917  0.00  0.00    +0.000 A 
ATOM     11  C   UNL     1     112.446 129.068 135.305  0.00  0.00    +0.000 A 
ATOM     12  C   UNL     1     111.796 129.474 135.000  0.00  0.00    +0.000 A 
ENDROOT
BRANCH  11  14
ATOM     13  O   UNL     1     114.242 130.658 136.858  0.00  0.00    +0.000 OA
ATOM     14  C   UNL     1     113.171 129.452 135.387  0.00  0.00    +0.000 A 
ATOM     15  C   UNL     1     113.344 129.863 136.081  0.00  0.00    +0.000 A 
ATOM     16  C   UNL     1     113.724 129.425 134.775  0.00  0.00    +0.000 A 
ATOM     17  C   UNL     1     114.069 130.247 136.164  0.00  0.00    +0.000 A 
ATOM     18  C   UNL     1     114.449 129.809 134.857  0.00  0.00    +0.000 A 
ATOM     19  C   UNL     1     114.622 130.221 135.552  0.00  0.00    +0.000 A 
BRANCH  19  20
ATOM     20  O   UNL     1     115.347 130.605 135.634  0.00  0.00    +0.000 OA
ATOM     21  C   UNL     1     115.681 130.999 134.991  0.00  0.00    +0.000 C 
ENDBRANCH  19  20
ENDBRANCH  11  14
BRANCH   4  22
ATOM     22  O   UNL     1     110.753 125.873 135.821  0.00  0.00    +0.000 OA
BRANCH  22  31
ATOM     23  O   UNL     1     110.333 126.091 137.169  0.00  0.00    +0.000 OA
ATOM     24  O   UNL     1     111.737 124.194 137.914  0.00  0.00    +0.000 OA
ATOM     25  O   UNL     1     110.850 125.045 139.013  0.00  0.00    +0.000 OA
ATOM     26  O   UNL     1     111.689 124.608 136.317  0.00  0.00    +0.000 OA
ATOM     27  C   UNL     1     111.269 124.826 137.665  0.00  0.00    +0.000 C 
ATOM     28  C   UNL     1     110.826 125.251 138.215  0.00  0.00    +0.000 C 
ATOM     29  C   UNL     1     111.245 125.033 136.867  0.00  0.00    +0.000 C 
ATOM     30  C   UNL     1     110.358 125.884 137.967  0.00  0.00    +0.000 C 
ATOM     31  C   UNL     1     110.777 125.665 136.619  0.00  0.00    +0.000 C 
BRANCH  30  33
ATOM     32  O   UNL     1     109.114 126.459 138.374  0.00  0.00    +0.000 OA
ATOM     33  C   UNL     1     109.914 126.309 138.517  0.00  0.00    +0.000 C 
ENDBRANCH  30  33
ENDBRANCH  22  31
ENDBRANCH   4  22
TORSDOF 5
ENDMDL
MODEL 5
REMARK VINA RESULT:      -8.9      1.992      5.755
REMARK  Name = 11016019
REMARK  5 active torsions:
REMARK  status: ('A' for Active; 'I' for Inactive)
REMARK    1  A    between atoms: O_2  and  C_16
REMARK    2  A    between atoms: O_2  and  C_18
REMARK    3  A    between atoms: O_10  and  C_32
REMARK    4  A    between atoms: C_15  and  C_17
REMARK    5  A    between atoms: C_25  and  C_27
REMARK                            x       y       z     vdW  Elec       q    Type
REMARK                         _______ _______ _______ _____ _____    ______ ____
ROOT
ATOM      1  O   UNL     1     111.112 128.668 136.481  0.00  0.00    +0.000 OA
ATOM      2  O   UNL     1     113.741 128.547 135.291  0.00  0.00    +0.000 OA
ATOM      3  O   UNL     1     112.733 129.443 134.779  0.00  0.00    +0.000 OA
ATOM      4  C   UNL     1     112.881 127.413 137.019  0.00  0.00    +0.000 A 
ATOM      5  C   UNL     1     112.090 127.748 137.036  0.00  0.00    +0.000 A 
ATOM      6  C   UNL     1     113.443 127.681 136.429  0.00  0.00    +0.000 A 
ATOM      7  C   UNL     1     111.872 128.349 136.461  0.00  0.00    +0.000 A 
ATOM      8  C   UNL     1     112.413 128.607 135.893  0.00  0.00    +0.000 A 
ATOM      9  C   UNL     1     113.208 128.283 135.862  0.00  0.00    +0.000 A 
ATOM     10  C   UNL     1     112.193 129.185 135.346  0.00  0.00    +0.000 A 
ATOM     11  C   UNL     1     110.892 129.245 135.934  0.00  0.00    +0.000 A 
ATOM     12  C   UNL     1     111.432 129.503 135.367  0.00  0.00    +0.000 A 
ENDROOT
BRANCH  11  14
ATOM     13  O   UNL     1     108.060 128.905 135.755  0.00  0.00    +0.000 OA
ATOM     14  C   UNL     1     110.131 129.564 135.955  0.00  0.00    +0.000 A 
ATOM     15  C   UNL     1     109.476 129.075 135.845  0.00  0.00    +0.000 A 
ATOM     16  C   UNL     1     110.026 130.372 136.085  0.00  0.00    +0.000 A 
ATOM     17  C   UNL     1     108.715 129.393 135.865  0.00  0.00    +0.000 A 
ATOM     18  C   UNL     1     109.265 130.691 136.105  0.00  0.00    +0.000 A 
ATOM     19  C   UNL     1     108.610 130.201 135.995  0.00  0.00    +0.000 A 
BRANCH  19  20
ATOM     20  O   UNL     1     107.849 130.520 136.016  0.00  0.00    +0.000 OA
ATOM     21  C   UNL     1     107.745 131.338 136.042  0.00  0.00    +0.000 C 
ENDBRANCH  19  20
ENDBRANCH  11  14
BRANCH   4  22
ATOM     22  O   UNL     1     113.098 126.836 137.567  0.00  0.00    +0.000 OA
BRANCH  22  31
ATOM     23  O   UNL     1     112.492 125.708 136.932  0.00  0.00    +0.000 OA
ATOM     24  O   UNL     1     114.471 124.330 137.490  0.00  0.00    +0.000 OA
ATOM     25  O   UNL     1     113.206 123.663 136.669  0.00  0.00    +0.000 OA
ATOM     26  O   UNL     1     114.417 125.917 137.940  0.00  0.00    +0.000 OA
ATOM     27  C   UNL     1     113.811 124.790 137.304  0.00  0.00    +0.000 C 
ATOM     28  C   UNL     1     113.179 124.456 136.893  0.00  0.00    +0.000 C 
ATOM     29  C   UNL     1     113.785 125.583 137.529  0.00  0.00    +0.000 C 
ATOM     30  C   UNL     1     112.520 124.915 136.707  0.00  0.00    +0.000 C 
ATOM     31  C   UNL     1     113.125 126.042 137.343  0.00  0.00    +0.000 C 
BRANCH  30  33
ATOM     32  O   UNL     1     111.116 124.682 136.575  0.00  0.00    +0.000 OA
ATOM     33  C   UNL     1     111.887 124.581 136.296  0.00  0.00    +0.000 C 
ENDBRANCH  30  33
ENDBRANCH  22  31
ENDBRANCH   4  22
TORSDOF 5
ENDMDL
MODEL 6
REMARK VINA RESULT:      -8.9      7.422      9.712
REMARK  Name = 11016019
REMARK  5 active torsions:
REMARK  status: ('A' for Active; 'I' for Inactive)
REMARK    1  A    between atoms: O_2  and  C_16
REMARK    2  A    between atoms: O_2  and  C_18
REMARK    3  A    between atoms: O_10  and  C_32
REMARK    4  A    between atoms: C_15  and  C_17
REMARK    5  A    between atoms: C_25  and  C_27
REMARK                            x       y       z     vdW  Elec       q    Type
REMARK                         _______ _______ _______ _____ _____    ______ ____
ROOT
ATOM      1  O   UNL     1     104.985 127.625 142.473  0.00  0.00    +0.000 OA
ATOM      2  O   UNL     1     107.850 127.447 142.796  0.00  0.00    +0.000 OA
ATOM      3  O   UNL     1     107.226 128.669 142.351  0.00  0.00    +0.000 OA
ATOM      4  C   UNL     1     106.256 125.911 143.135  0.00  0.00    +0.000 A 
ATOM      5  C   UNL     1     105.561 126.371 142.924  0.00  0.00    +0.000 A 
ATOM      6  C   UNL     1     107.033 126.273 143.092  0.00  0.00    +0.000 A 
ATOM      7  C   UNL     1     105.655 127.188 142.674  0.00  0.00    +0.000 A 
ATOM      8  C   UNL     1     106.402 127.536 142.633  0.00  0.00    +0.000 A 
ATOM      9  C   UNL     1     107.107 127.091 142.840  0.00  0.00    +0.000 A 
ATOM     10  C   UNL     1     106.479 128.321 142.391  0.00  0.00    +0.000 A 
ATOM     11  C   UNL     1     105.062 128.410 142.231  0.00  0.00    +0.000 A 
ATOM     12  C   UNL     1     105.809 128.758 142.190  0.00  0.00    +0.000 A 
ENDROOT
BRANCH  11  14
ATOM     13  O   UNL     1     103.020 129.085 140.348  0.00  0.00    +0.000 OA
ATOM     14  C   UNL     1     104.392 128.848 142.030  0.00  0.00    +0.000 A 
ATOM     15  C   UNL     1     104.041 128.748 141.290  0.00  0.00    +0.000 A 
ATOM     16  C   UNL     1     104.073 129.386 142.568  0.00  0.00    +0.000 A 
ATOM     17  C   UNL     1     103.371 129.185 141.088  0.00  0.00    +0.000 A 
ATOM     18  C   UNL     1     103.403 129.823 142.367  0.00  0.00    +0.000 A 
ATOM     19  C   UNL     1     103.052 129.722 141.627  0.00  0.00    +0.000 A 
BRANCH  19  20
ATOM     20  O   UNL     1     102.382 130.160 141.426  0.00  0.00    +0.000 OA
ATOM     21  C   UNL     1     102.213 130.863 141.823  0.00  0.00    +0.000 C 
ENDBRANCH  19  20
ENDBRANCH  11  14
BRANCH   4  22
ATOM     22  O   UNL     1     106.176 125.126 143.376  0.00  0.00    +0.000 OA
BRANCH  22  31
ATOM     23  O   UNL     1     106.336 125.318 144.783  0.00  0.00    +0.000 OA
ATOM     24  O   UNL     1     104.507 123.707 145.211  0.00  0.00    +0.000 OA
ATOM     25  O   UNL     1     105.277 124.436 146.474  0.00  0.00    +0.000 OA
ATOM     26  O   UNL     1     104.956 124.052 143.661  0.00  0.00    +0.000 OA
ATOM     27  C   UNL     1     105.116 124.244 145.068  0.00  0.00    +0.000 C 
ATOM     28  C   UNL     1     105.501 124.608 145.700  0.00  0.00    +0.000 C 
ATOM     29  C   UNL     1     105.341 124.416 144.293  0.00  0.00    +0.000 C 
ATOM     30  C   UNL     1     106.111 125.145 145.557  0.00  0.00    +0.000 C 
ATOM     31  C   UNL     1     105.951 124.953 144.150  0.00  0.00    +0.000 C 
BRANCH  30  33
ATOM     32  O   UNL     1     107.309 125.408 146.290  0.00  0.00    +0.000 OA
ATOM     33  C   UNL     1     106.496 125.510 146.189  0.00  0.00    +0.000 C 
ENDBRANCH  30  33
ENDBRANCH  22  31
ENDBRANCH   4  22
TORSDOF 5
ENDMDL
MODEL 7
REMARK VINA RESULT:      -8.9      1.538      2.672
REMARK  Name = 11016019
REMARK  5 active torsions:
REMARK  status: ('A' for Active; 'I' for Inactive)
REMARK    1  A    between atoms: O_2  and  C_16
REMARK    2  A    between atoms: O_2  and  C_18
REMARK    3  A    between atoms: O_10  and  C_32
REMARK    4  A    between atoms: C_15  and  C_17
REMARK    5  A    between atoms: C_25  and  C_27
REMARK                            x       y       z     vdW  Elec       q    Type
REMARK                         _______ _______ _______ _____ _____    ______ ____
ROOT
ATOM      1  O   UNL     1     111.526 127.177 136.168  0.00  0.00    +0.000 OA
ATOM      2  O   UNL     1     113.330 129.372 135.643  0.00  0.00    +0.000 OA
ATOM      3  O   UNL     1     113.815 128.121 136.170  0.00  0.00    +0.000 OA
ATOM      4  C   UNL     1     111.113 129.220 135.364  0.00  0.00    +0.000 A 
ATOM      5  C   UNL     1     110.985 128.416 135.637  0.00  0.00    +0.000 A 
ATOM      6  C   UNL     1     111.907 129.548 135.364  0.00  0.00    +0.000 A 
ATOM      7  C   UNL     1     111.654 127.949 135.907  0.00  0.00    +0.000 A 
ATOM      8  C   UNL     1     112.418 128.263 135.908  0.00  0.00    +0.000 A 
ATOM      9  C   UNL     1     112.563 129.066 135.638  0.00  0.00    +0.000 A 
ATOM     10  C   UNL     1     113.052 127.806 136.169  0.00  0.00    +0.000 A 
ATOM     11  C   UNL     1     112.161 126.720 136.430  0.00  0.00    +0.000 A 
ATOM     12  C   UNL     1     112.924 127.034 136.430  0.00  0.00    +0.000 A 
ENDROOT
BRANCH  11  14
ATOM     13  O   UNL     1     111.244 124.907 138.440  0.00  0.00    +0.000 OA
ATOM     14  C   UNL     1     112.033 125.947 136.691  0.00  0.00    +0.000 A 
ATOM     15  C   UNL     1     111.703 125.813 137.434  0.00  0.00    +0.000 A 
ATOM     16  C   UNL     1     112.236 125.310 136.208  0.00  0.00    +0.000 A 
ATOM     17  C   UNL     1     111.574 125.042 137.696  0.00  0.00    +0.000 A 
ATOM     18  C   UNL     1     112.108 124.538 136.469  0.00  0.00    +0.000 A 
ATOM     19  C   UNL     1     111.777 124.404 137.213  0.00  0.00    +0.000 A 
BRANCH  19  20
ATOM     20  O   UNL     1     111.649 123.632 137.474  0.00  0.00    +0.000 OA
ATOM     21  C   UNL     1     112.023 123.001 137.098  0.00  0.00    +0.000 C 
ENDBRANCH  19  20
ENDBRANCH  11  14
BRANCH   4  22
ATOM     22  O   UNL     1     110.476 129.676 135.102  0.00  0.00    +0.000 OA
BRANCH  22  31
ATOM     23  O   UNL     1     110.221 130.398 136.308  0.00  0.00    +0.000 OA
ATOM     24  O   UNL     1     107.787 130.120 135.960  0.00  0.00    +0.000 OA
ATOM     25  O   UNL     1     108.343 130.935 137.282  0.00  0.00    +0.000 OA
ATOM     26  O   UNL     1     108.853 129.490 134.870  0.00  0.00    +0.000 OA
ATOM     27  C   UNL     1     108.598 130.213 136.076  0.00  0.00    +0.000 C 
ATOM     28  C   UNL     1     108.876 130.620 136.737  0.00  0.00    +0.000 C 
ATOM     29  C   UNL     1     109.131 129.898 135.531  0.00  0.00    +0.000 C 
ATOM     30  C   UNL     1     109.688 130.713 136.853  0.00  0.00    +0.000 C 
ATOM     31  C   UNL     1     109.943 129.990 135.647  0.00  0.00    +0.000 C 
BRANCH  30  33
ATOM     32  O   UNL     1     110.511 131.734 137.420  0.00  0.00    +0.000 OA
ATOM     33  C   UNL     1     109.966 131.121 137.514  0.00  0.00    +0.000 C 
ENDBRANCH  30  33
ENDBRANCH  22  31
ENDBRANCH   4  22
TORSDOF 5
ENDMDL
MODEL 8
REMARK VINA RESULT:      -8.9      1.350      2.375
REMARK  Name = 11016019
REMARK  5 active torsions:
REMARK  status: ('A' for Active; 'I' for Inactive)
REMARK    1  A    between atoms: O_2  and  C_16
REMARK    2  A    between atoms: O_2  and  C_18
REMARK    3  A    between atoms: O_10  and  C_32
REMARK    4  A    between atoms: C_15  and  C_17
REMARK    5  A    between atoms: C_25  and  C_27
REMARK                            x       y       z     vdW  Elec       q    Type
REMARK                         _______ _______ _______ _____ _____    ______ ____
ROOT
ATOM      1  O   UNL     1     110.989 126.262 136.598  0.00  0.00    +0.000 OA
ATOM      2  O   UNL     1     108.751 126.335 134.773  0.00  0.00    +0.000 OA
ATOM      3  O   UNL     1     109.797 125.353 134.629  0.00  0.00    +0.000 OA
ATOM      4  C   UNL     1     109.224 127.630 136.538  0.00  0.00    +0.000 A 
ATOM      5  C   UNL     1     109.963 127.272 136.789  0.00  0.00    +0.000 A 
ATOM      6  C   UNL     1     108.810 127.315 135.855  0.00  0.00    +0.000 A 
ATOM      7  C   UNL     1     110.279 126.603 136.353  0.00  0.00    +0.000 A 
ATOM      8  C   UNL     1     109.882 126.299 135.696  0.00  0.00    +0.000 A 
ATOM      9  C   UNL     1     109.141 126.645 135.431  0.00  0.00    +0.000 A 
ATOM     10  C   UNL     1     110.194 125.656 135.285  0.00  0.00    +0.000 A 
ATOM     11  C   UNL     1     111.302 125.619 136.187  0.00  0.00    +0.000 A 
ATOM     12  C   UNL     1     110.904 125.316 135.531  0.00  0.00    +0.000 A 
ENDROOT
BRANCH  11  14
ATOM     13  O   UNL     1     112.756 123.362 137.167  0.00  0.00    +0.000 OA
ATOM     14  C   UNL     1     112.012 125.278 136.432  0.00  0.00    +0.000 A 
ATOM     15  C   UNL     1     112.029 124.491 136.677  0.00  0.00    +0.000 A 
ATOM     16  C   UNL     1     112.706 125.725 136.433  0.00  0.00    +0.000 A 
ATOM     17  C   UNL     1     112.739 124.150 136.922  0.00  0.00    +0.000 A 
ATOM     18  C   UNL     1     113.416 125.385 136.678  0.00  0.00    +0.000 A 
ATOM     19  C   UNL     1     113.432 124.597 136.923  0.00  0.00    +0.000 A 
BRANCH  19  20
ATOM     20  O   UNL     1     114.143 124.256 137.168  0.00  0.00    +0.000 OA
ATOM     21  C   UNL     1     114.817 124.723 137.253  0.00  0.00    +0.000 C 
ENDBRANCH  19  20
ENDBRANCH  11  14
BRANCH   4  22
ATOM     22  O   UNL     1     108.913 128.274 136.951  0.00  0.00    +0.000 OA
BRANCH  22  31
ATOM     23  O   UNL     1     109.327 129.301 136.048  0.00  0.00    +0.000 OA
ATOM     24  O   UNL     1     109.876 130.766 137.966  0.00  0.00    +0.000 OA
ATOM     25  O   UNL     1     110.106 131.304 136.424  0.00  0.00    +0.000 OA
ATOM     26  O   UNL     1     109.280 129.250 138.229  0.00  0.00    +0.000 OA
ATOM     27  C   UNL     1     109.693 130.278 137.326  0.00  0.00    +0.000 C 
ATOM     28  C   UNL     1     109.808 130.547 136.556  0.00  0.00    +0.000 C 
ATOM     29  C   UNL     1     109.395 129.520 137.459  0.00  0.00    +0.000 C 
ATOM     30  C   UNL     1     109.625 130.059 135.917  0.00  0.00    +0.000 C 
ATOM     31  C   UNL     1     109.212 129.032 136.820  0.00  0.00    +0.000 C 
BRANCH  30  33
ATOM     32  O   UNL     1     109.108 130.337 134.613  0.00  0.00    +0.000 OA
ATOM     33  C   UNL     1     109.740 130.328 135.145  0.00  0.00    +0.000 C 
ENDBRANCH  30  33
ENDBRANCH  22  31
ENDBRANCH   4  22
TORSDOF 5
ENDMDL
MODEL 9
REMARK VINA RESULT:      -8.8      9.225     11.061
REMARK  Name = 11016019
REMARK  5 active torsions:
REMARK  status: ('A' for Active; 'I' for Inactive)
REMARK    1  A    between atoms: O_2  and  C_16
REMARK    2  A    between atoms: O_2  and  C_18
REMARK    3  A    between atoms: O_10  and  C_32
REMARK    4  A    between atoms: C_15  and  C_17
REMARK    5  A    between atoms: C_25  and  C_27
REMARK                            x       y       z     vdW  Elec       q    Type
REMARK                         _______ _______ _______ _____ _____    ______ ____
ROOT
ATOM      1  O   UNL     1     105.350 126.548 144.142  0.00  0.00    +0.000 OA
ATOM      2  O   UNL     1     107.283 126.474 146.288  0.00  0.00    +0.000 OA
ATOM      3  O   UNL     1     107.234 127.585 145.368  0.00  0.00    +0.000 OA
ATOM      4  C   UNL     1     105.693 125.003 145.720  0.00  0.00    +0.000 A 
ATOM      5  C   UNL     1     105.355 125.407 145.040  0.00  0.00    +0.000 A 
ATOM      6  C   UNL     1     106.347 125.363 146.145  0.00  0.00    +0.000 A 
ATOM      7  C   UNL     1     105.677 126.165 144.795  0.00  0.00    +0.000 A 
ATOM      8  C   UNL     1     106.305 126.511 145.204  0.00  0.00    +0.000 A 
ATOM      9  C   UNL     1     106.655 126.121 145.885  0.00  0.00    +0.000 A 
ATOM     10  C   UNL     1     106.606 127.239 144.959  0.00  0.00    +0.000 A 
ATOM     11  C   UNL     1     105.650 127.277 143.898  0.00  0.00    +0.000 A 
ATOM     12  C   UNL     1     106.278 127.622 144.307  0.00  0.00    +0.000 A 
ENDROOT
BRANCH  11  14
ATOM     13  O   UNL     1     105.196 127.413 141.079  0.00  0.00    +0.000 OA
ATOM     14  C   UNL     1     105.322 127.660 143.245  0.00  0.00    +0.000 A 
ATOM     15  C   UNL     1     105.423 127.345 142.489  0.00  0.00    +0.000 A 
ATOM     16  C   UNL     1     104.895 128.358 143.348  0.00  0.00    +0.000 A 
ATOM     17  C   UNL     1     105.096 127.728 141.836  0.00  0.00    +0.000 A 
ATOM     18  C   UNL     1     104.567 128.741 142.695  0.00  0.00    +0.000 A 
ATOM     19  C   UNL     1     104.668 128.426 141.938  0.00  0.00    +0.000 A 
BRANCH  19  20
ATOM     20  O   UNL     1     104.340 128.809 141.285  0.00  0.00    +0.000 OA
ATOM     21  C   UNL     1     103.736 129.361 141.390  0.00  0.00    +0.000 C 
ENDBRANCH  19  20
ENDBRANCH  11  14
BRANCH   4  22
ATOM     22  O   UNL     1     105.390 124.275 145.962  0.00  0.00    +0.000 OA
BRANCH  22  31
ATOM     23  O   UNL     1     104.411 124.777 146.873  0.00  0.00    +0.000 OA
ATOM     24  O   UNL     1     102.834 123.011 146.151  0.00  0.00    +0.000 OA
ATOM     25  O   UNL     1     102.381 124.101 147.302  0.00  0.00    +0.000 OA
ATOM     26  O   UNL     1     104.340 123.097 145.480  0.00  0.00    +0.000 OA
ATOM     27  C   UNL     1     103.360 123.599 146.391  0.00  0.00    +0.000 C 
ATOM     28  C   UNL     1     103.133 124.144 146.967  0.00  0.00    +0.000 C 
ATOM     29  C   UNL     1     104.112 123.642 146.056  0.00  0.00    +0.000 C 
ATOM     30  C   UNL     1     103.658 124.733 147.208  0.00  0.00    +0.000 C 
ATOM     31  C   UNL     1     104.638 124.231 146.296  0.00  0.00    +0.000 C 
BRANCH  30  33
ATOM     32  O   UNL     1     103.908 125.398 148.447  0.00  0.00    +0.000 OA
ATOM     33  C   UNL     1     103.432 125.278 147.784  0.00  0.00    +0.000 C 
ENDBRANCH  30  33
ENDBRANCH  22  31
ENDBRANCH   4  22
TORSDOF 5
ENDMDL
MODEL 10
REMARK VINA RESULT:      -8.8      2.236      3.855
REMARK  Name = 11016019
REMARK  5 active torsions:
REMARK  status: ('A' for Active; 'I' for Inactive)
REMARK    1  A    between atoms: O_2  and  C_16
REMARK    2  A    between atoms: O_2  and  C_18
REMARK    3  A    between atoms: O_10  and  C_32
REMARK    4  A    between atoms: C_15  and  C_17
REMARK    5  A    between atoms: C_25  and  C_27
REMARK                            x       y       z     vdW  Elec       q    Type
REMARK                         _______ _______ _______ _____ _____    ______ ____
ROOT
ATOM      1  O   UNL     1     112.236 126.728 137.539  0.00  0.00    +0.000 OA
ATOM      2  O   UNL     1     111.137 124.659 135.848  0.00  0.00    +0.000 OA
ATOM      3  O   UNL     1     111.671 124.349 137.152  0.00  0.00    +0.000 OA
ATOM      4  C   UNL     1     111.341 126.861 135.496  0.00  0.00    +0.000 A 
ATOM      5  C   UNL     1     111.711 127.095 136.236  0.00  0.00    +0.000 A 
ATOM      6  C   UNL     1     111.145 126.036 135.362  0.00  0.00    +0.000 A 
ATOM      7  C   UNL     1     111.880 126.499 136.831  0.00  0.00    +0.000 A 
ATOM      8  C   UNL     1     111.692 125.706 136.702  0.00  0.00    +0.000 A 
ATOM      9  C   UNL     1     111.322 125.455 135.968  0.00  0.00    +0.000 A 
ATOM     10  C   UNL     1     111.859 125.142 137.281  0.00  0.00    +0.000 A 
ATOM     11  C   UNL     1     112.403 126.165 138.118  0.00  0.00    +0.000 A 
ATOM     12  C   UNL     1     112.215 125.372 137.989  0.00  0.00    +0.000 A 
ENDROOT
BRANCH  11  14
ATOM     13  O   UNL     1     112.189 126.872 140.879  0.00  0.00    +0.000 OA
ATOM     14  C   UNL     1     112.759 126.394 138.827  0.00  0.00    +0.000 A 
ATOM     15  C   UNL     1     112.297 126.519 139.499  0.00  0.00    +0.000 A 
ATOM     16  C   UNL     1     113.576 126.499 138.863  0.00  0.00    +0.000 A 
ATOM     17  C   UNL     1     112.651 126.748 140.207  0.00  0.00    +0.000 A 
ATOM     18  C   UNL     1     113.932 126.728 139.571  0.00  0.00    +0.000 A 
ATOM     19  C   UNL     1     113.469 126.852 140.243  0.00  0.00    +0.000 A 
BRANCH  19  20
ATOM     20  O   UNL     1     113.824 127.082 140.952  0.00  0.00    +0.000 OA
ATOM     21  C   UNL     1     114.624 127.283 140.966  0.00  0.00    +0.000 C 
ENDBRANCH  19  20
ENDBRANCH  11  14
BRANCH   4  22
ATOM     22  O   UNL     1     111.175 127.427 134.919  0.00  0.00    +0.000 OA
BRANCH  22  31
ATOM     23  O   UNL     1     109.838 127.733 135.321  0.00  0.00    +0.000 OA
ATOM     24  O   UNL     1     110.248 130.130 134.860  0.00  0.00    +0.000 OA
ATOM     25  O   UNL     1     108.775 129.636 135.415  0.00  0.00    +0.000 OA
ATOM     26  O   UNL     1     111.448 129.025 134.612  0.00  0.00    +0.000 OA
ATOM     27  C   UNL     1     110.111 129.331 135.014  0.00  0.00    +0.000 C 
ATOM     28  C   UNL     1     109.375 129.085 135.291  0.00  0.00    +0.000 C 
ATOM     29  C   UNL     1     110.712 128.779 134.889  0.00  0.00    +0.000 C 
ATOM     30  C   UNL     1     109.238 128.286 135.445  0.00  0.00    +0.000 C 
ATOM     31  C   UNL     1     110.575 127.980 135.043  0.00  0.00    +0.000 C 
BRANCH  30  33
ATOM     32  O   UNL     1     108.442 127.664 136.455  0.00  0.00    +0.000 OA
ATOM     33  C   UNL     1     108.502 128.038 135.722  0.00  0.00    +0.000 C 
ENDBRANCH  30  33
ENDBRANCH  22  31
ENDBRANCH   4  22
TORSDOF 5
ENDMDL
