MODEL 1
REMARK VINA RESULT:     -10.0      0.000      0.000
REMARK  Name = 91872679
REMARK  3 active torsions:
REMARK  status: ('A' for Active; 'I' for Inactive)
REMARK    1  A    between atoms: O_1  and  C_12
REMARK    2  A    between atoms: O_1  and  C_15
REMARK    3  A    between atoms: C_16  and  C_19
REMARK                            x       y       z     vdW  Elec       q    Type
REMARK                         _______ _______ _______ _____ _____    ______ ____
ROOT
ATOM      1  O   UNL     1     105.579 124.437 147.724  0.00  0.00    +0.000 OA
ATOM      2  O   UNL     1     107.011 125.580 146.061  0.00  0.00    +0.000 OA
ATOM      3  O   UNL     1     108.131 125.561 146.970  0.00  0.00    +0.000 OA
ATOM      4  O   UNL     1     107.795 124.362 149.611  0.00  0.00    +0.000 OA
ATOM      5  C   UNL     1     105.748 125.025 146.433  0.00  0.00    +0.000 C 
ATOM      6  C   UNL     1     105.270 124.644 146.987  0.00  0.00    +0.000 C 
ATOM      7  C   UNL     1     106.534 125.199 146.615  0.00  0.00    +0.000 C 
ATOM      8  C   UNL     1     106.841 124.992 147.352  0.00  0.00    +0.000 A 
ATOM      9  C   UNL     1     106.364 124.611 147.907  0.00  0.00    +0.000 A 
ATOM     10  C   UNL     1     107.661 125.180 147.531  0.00  0.00    +0.000 A 
ATOM     11  C   UNL     1     106.673 124.391 148.678  0.00  0.00    +0.000 A 
ATOM     12  C   UNL     1     107.987 124.967 148.296  0.00  0.00    +0.000 A 
ATOM     13  C   UNL     1     107.490 124.570 148.874  0.00  0.00    +0.000 A 
ENDROOT
BRANCH   6  15
ATOM     14  O   UNL     1     102.129 123.946 146.256  0.00  0.00    +0.000 OA
ATOM     15  C   UNL     1     104.485 124.469 146.805  0.00  0.00    +0.000 A 
ATOM     16  C   UNL     1     103.876 124.923 147.127  0.00  0.00    +0.000 A 
ATOM     17  C   UNL     1     104.309 123.841 146.300  0.00  0.00    +0.000 A 
ATOM     18  C   UNL     1     103.091 124.748 146.944  0.00  0.00    +0.000 A 
ATOM     19  C   UNL     1     103.523 123.667 146.117  0.00  0.00    +0.000 A 
ATOM     20  C   UNL     1     102.915 124.120 146.439  0.00  0.00    +0.000 A 
ENDBRANCH   6  15
BRANCH   5  21
ATOM     21  O   UNL     1     105.440 125.231 145.696  0.00  0.00    +0.000 OA
BRANCH  21  27
ATOM     22  O   UNL     1     105.391 126.621 146.021  0.00  0.00    +0.000 OA
ATOM     23  O   UNL     1     105.515 125.610 144.092  0.00  0.00    +0.000 OA
ATOM     24  O   UNL     1     105.503 127.190 143.615  0.00  0.00    +0.000 OA
ATOM     25  O   UNL     1     105.416 128.391 144.743  0.00  0.00    +0.000 OA
ATOM     26  C   UNL     1     105.472 126.210 144.655  0.00  0.00    +0.000 C 
ATOM     27  C   UNL     1     105.434 126.021 145.458  0.00  0.00    +0.000 C 
ATOM     28  C   UNL     1     105.466 127.000 144.417  0.00  0.00    +0.000 C 
ATOM     29  C   UNL     1     105.422 127.601 144.981  0.00  0.00    +0.000 C 
ATOM     30  C   UNL     1     105.385 127.411 145.783  0.00  0.00    +0.000 C 
ENDBRANCH  21  27
ENDBRANCH   5  21
TORSDOF 3
ENDMDL
MODEL 2
REMARK VINA RESULT:      -9.5      1.529      4.016
REMARK  Name = 91872679
REMARK  3 active torsions:
REMARK  status: ('A' for Active; 'I' for Inactive)
REMARK    1  A    between atoms: O_1  and  C_12
REMARK    2  A    between atoms: O_1  and  C_15
REMARK    3  A    between atoms: C_16  and  C_19
REMARK                            x       y       z     vdW  Elec       q    Type
REMARK                         _______ _______ _______ _____ _____    ______ ____
ROOT
ATOM      1  O   UNL     1     103.699 125.701 147.308  0.00  0.00    +0.000 OA
ATOM      2  O   UNL     1     105.633 124.408 146.464  0.00  0.00    +0.000 OA
ATOM      3  O   UNL     1     104.770 123.322 146.070  0.00  0.00    +0.000 OA
ATOM      4  O   UNL     1     101.897 123.547 146.537  0.00  0.00    +0.000 OA
ATOM      5  C   UNL     1     105.104 125.587 147.077  0.00  0.00    +0.000 C 
ATOM      6  C   UNL     1     104.459 126.018 147.358  0.00  0.00    +0.000 C 
ATOM      7  C   UNL     1     104.988 124.839 146.745  0.00  0.00    +0.000 C 
ATOM      8  C   UNL     1     104.228 124.524 146.696  0.00  0.00    +0.000 A 
ATOM      9  C   UNL     1     103.583 124.955 146.977  0.00  0.00    +0.000 A 
ATOM     10  C   UNL     1     104.120 123.745 146.348  0.00  0.00    +0.000 A 
ATOM     11  C   UNL     1     102.786 124.637 146.930  0.00  0.00    +0.000 A 
ATOM     12  C   UNL     1     103.330 123.412 146.293  0.00  0.00    +0.000 A 
ATOM     13  C   UNL     1     102.659 123.861 146.586  0.00  0.00    +0.000 A 
ENDROOT
BRANCH   6  15
ATOM     14  O   UNL     1     104.924 129.004 148.683  0.00  0.00    +0.000 OA
ATOM     15  C   UNL     1     104.575 126.764 147.689  0.00  0.00    +0.000 A 
ATOM     16  C   UNL     1     104.530 126.865 148.507  0.00  0.00    +0.000 A 
ATOM     17  C   UNL     1     104.737 127.410 147.203  0.00  0.00    +0.000 A 
ATOM     18  C   UNL     1     104.646 127.611 148.838  0.00  0.00    +0.000 A 
ATOM     19  C   UNL     1     104.853 128.157 147.534  0.00  0.00    +0.000 A 
ATOM     20  C   UNL     1     104.808 128.257 148.351  0.00  0.00    +0.000 A 
ENDBRANCH   6  15
BRANCH   5  21
ATOM     21  O   UNL     1     105.865 125.901 147.127  0.00  0.00    +0.000 OA
BRANCH  21  27
ATOM     22  O   UNL     1     106.229 125.058 148.221  0.00  0.00    +0.000 OA
ATOM     23  O   UNL     1     107.454 126.040 146.705  0.00  0.00    +0.000 OA
ATOM     24  O   UNL     1     108.613 125.266 147.589  0.00  0.00    +0.000 OA
ATOM     25  O   UNL     1     108.182 124.353 148.894  0.00  0.00    +0.000 OA
ATOM     26  C   UNL     1     107.239 125.584 147.357  0.00  0.00    +0.000 C 
ATOM     27  C   UNL     1     106.444 125.514 147.569  0.00  0.00    +0.000 C 
ATOM     28  C   UNL     1     107.818 125.197 147.799  0.00  0.00    +0.000 C 
ATOM     29  C   UNL     1     107.603 124.740 148.452  0.00  0.00    +0.000 C 
ATOM     30  C   UNL     1     106.808 124.671 148.662  0.00  0.00    +0.000 C 
ENDBRANCH  21  27
ENDBRANCH   5  21
TORSDOF 3
ENDMDL
MODEL 3
REMARK VINA RESULT:      -9.4     11.946     12.993
REMARK  Name = 91872679
REMARK  3 active torsions:
REMARK  status: ('A' for Active; 'I' for Inactive)
REMARK    1  A    between atoms: O_1  and  C_12
REMARK    2  A    between atoms: O_1  and  C_15
REMARK    3  A    between atoms: C_16  and  C_19
REMARK                            x       y       z     vdW  Elec       q    Type
REMARK                         _______ _______ _______ _____ _____    ______ ____
ROOT
ATOM      1  O   UNL     1     111.903 125.804 136.092  0.00  0.00    +0.000 OA
ATOM      2  O   UNL     1     111.523 128.240 136.300  0.00  0.00    +0.000 OA
ATOM      3  O   UNL     1     110.282 128.138 135.572  0.00  0.00    +0.000 OA
ATOM      4  O   UNL     1     109.410 125.521 134.614  0.00  0.00    +0.000 OA
ATOM      5  C   UNL     1     112.326 127.086 136.558  0.00  0.00    +0.000 C 
ATOM      6  C   UNL     1     112.453 126.274 136.489  0.00  0.00    +0.000 C 
ATOM      7  C   UNL     1     111.649 127.428 136.231  0.00  0.00    +0.000 C 
ATOM      8  C   UNL     1     111.101 126.957 135.834  0.00  0.00    +0.000 A 
ATOM      9  C   UNL     1     111.228 126.145 135.764  0.00  0.00    +0.000 A 
ATOM     10  C   UNL     1     110.401 127.324 135.497  0.00  0.00    +0.000 A 
ATOM     11  C   UNL     1     110.663 125.644 135.353  0.00  0.00    +0.000 A 
ATOM     12  C   UNL     1     109.825 126.840 135.082  0.00  0.00    +0.000 A 
ATOM     13  C   UNL     1     109.957 125.994 135.010  0.00  0.00    +0.000 A 
ENDROOT
BRANCH   6  15
ATOM     14  O   UNL     1     115.156 124.908 137.800  0.00  0.00    +0.000 OA
ATOM     15  C   UNL     1     113.128 125.933 136.816  0.00  0.00    +0.000 A 
ATOM     16  C   UNL     1     113.754 125.705 136.329  0.00  0.00    +0.000 A 
ATOM     17  C   UNL     1     113.178 125.819 137.632  0.00  0.00    +0.000 A 
ATOM     18  C   UNL     1     114.429 125.364 136.656  0.00  0.00    +0.000 A 
ATOM     19  C   UNL     1     113.855 125.477 137.960  0.00  0.00    +0.000 A 
ATOM     20  C   UNL     1     114.479 125.250 137.472  0.00  0.00    +0.000 A 
ENDBRANCH   6  15
BRANCH   5  21
ATOM     21  O   UNL     1     112.874 127.557 136.955  0.00  0.00    +0.000 OA
BRANCH  21  27
ATOM     22  O   UNL     1     113.380 128.144 135.756  0.00  0.00    +0.000 OA
ATOM     23  O   UNL     1     113.304 128.909 137.798  0.00  0.00    +0.000 OA
ATOM     24  O   UNL     1     114.025 130.173 137.019  0.00  0.00    +0.000 OA
ATOM     25  O   UNL     1     114.316 130.084 135.397  0.00  0.00    +0.000 OA
ATOM     26  C   UNL     1     113.449 128.865 136.988  0.00  0.00    +0.000 C 
ATOM     27  C   UNL     1     113.235 128.189 136.566  0.00  0.00    +0.000 C 
ATOM     28  C   UNL     1     113.810 129.496 136.598  0.00  0.00    +0.000 C 
ATOM     29  C   UNL     1     113.956 129.452 135.787  0.00  0.00    +0.000 C 
ATOM     30  C   UNL     1     113.741 128.776 135.366  0.00  0.00    +0.000 C 
ENDBRANCH  21  27
ENDBRANCH   5  21
TORSDOF 3
ENDMDL
MODEL 4
REMARK VINA RESULT:      -9.4      1.073      3.529
REMARK  Name = 91872679
REMARK  3 active torsions:
REMARK  status: ('A' for Active; 'I' for Inactive)
REMARK    1  A    between atoms: O_1  and  C_12
REMARK    2  A    between atoms: O_1  and  C_15
REMARK    3  A    between atoms: C_16  and  C_19
REMARK                            x       y       z     vdW  Elec       q    Type
REMARK                         _______ _______ _______ _____ _____    ______ ____
ROOT
ATOM      1  O   UNL     1     104.021 124.523 148.220  0.00  0.00    +0.000 OA
ATOM      2  O   UNL     1     104.026 124.297 145.755  0.00  0.00    +0.000 OA
ATOM      3  O   UNL     1     102.603 124.059 145.746  0.00  0.00    +0.000 OA
ATOM      4  O   UNL     1     101.148 124.050 148.277  0.00  0.00    +0.000 OA
ATOM      5  C   UNL     1     104.728 124.527 146.979  0.00  0.00    +0.000 C 
ATOM      6  C   UNL     1     104.727 124.602 147.800  0.00  0.00    +0.000 C 
ATOM      7  C   UNL     1     104.024 124.372 146.577  0.00  0.00    +0.000 C 
ATOM      8  C   UNL     1     103.319 124.294 146.997  0.00  0.00    +0.000 A 
ATOM      9  C   UNL     1     103.317 124.369 147.819  0.00  0.00    +0.000 A 
ATOM     10  C   UNL     1     102.592 124.133 146.567  0.00  0.00    +0.000 A 
ATOM     11  C   UNL     1     102.588 124.289 148.267  0.00  0.00    +0.000 A 
ATOM     12  C   UNL     1     101.854 124.050 146.999  0.00  0.00    +0.000 A 
ATOM     13  C   UNL     1     101.852 124.128 147.855  0.00  0.00    +0.000 A 
ENDROOT
BRANCH   6  15
ATOM     14  O   UNL     1     107.543 125.217 149.406  0.00  0.00    +0.000 OA
ATOM     15  C   UNL     1     105.430 124.756 148.201  0.00  0.00    +0.000 A 
ATOM     16  C   UNL     1     105.578 125.510 148.502  0.00  0.00    +0.000 A 
ATOM     17  C   UNL     1     105.987 124.155 148.303  0.00  0.00    +0.000 A 
ATOM     18  C   UNL     1     106.282 125.664 148.903  0.00  0.00    +0.000 A 
ATOM     19  C   UNL     1     106.692 124.309 148.704  0.00  0.00    +0.000 A 
ATOM     20  C   UNL     1     106.839 125.064 149.004  0.00  0.00    +0.000 A 
ENDBRANCH   6  15
BRANCH   5  21
ATOM     21  O   UNL     1     105.434 124.605 146.558  0.00  0.00    +0.000 OA
BRANCH  21  27
ATOM     22  O   UNL     1     105.104 125.908 146.074  0.00  0.00    +0.000 OA
ATOM     23  O   UNL     1     106.403 124.363 145.245  0.00  0.00    +0.000 OA
ATOM     24  O   UNL     1     106.557 125.545 144.104  0.00  0.00    +0.000 OA
ATOM     25  O   UNL     1     105.742 126.970 144.277  0.00  0.00    +0.000 OA
ATOM     26  C   UNL     1     105.996 125.075 145.331  0.00  0.00    +0.000 C 
ATOM     27  C   UNL     1     105.511 125.196 145.988  0.00  0.00    +0.000 C 
ATOM     28  C   UNL     1     106.073 125.666 144.761  0.00  0.00    +0.000 C 
ATOM     29  C   UNL     1     105.665 126.378 144.847  0.00  0.00    +0.000 C 
ATOM     30  C   UNL     1     105.181 126.499 145.504  0.00  0.00    +0.000 C 
ENDBRANCH  21  27
ENDBRANCH   5  21
TORSDOF 3
ENDMDL
MODEL 5
REMARK VINA RESULT:      -9.4      9.914     11.647
REMARK  Name = 91872679
REMARK  3 active torsions:
REMARK  status: ('A' for Active; 'I' for Inactive)
REMARK    1  A    between atoms: O_1  and  C_12
REMARK    2  A    between atoms: O_1  and  C_15
REMARK    3  A    between atoms: C_16  and  C_19
REMARK                            x       y       z     vdW  Elec       q    Type
REMARK                         _______ _______ _______ _____ _____    ______ ____
ROOT
ATOM      1  O   UNL     1     113.533 126.213 138.664  0.00  0.00    +0.000 OA
ATOM      2  O   UNL     1     111.141 125.697 138.293  0.00  0.00    +0.000 OA
ATOM      3  O   UNL     1     110.794 126.244 139.582  0.00  0.00    +0.000 OA
ATOM      4  O   UNL     1     112.906 127.334 141.278  0.00  0.00    +0.000 OA
ATOM      5  C   UNL     1     112.496 125.681 137.838  0.00  0.00    +0.000 C 
ATOM      6  C   UNL     1     113.293 125.853 137.961  0.00  0.00    +0.000 C 
ATOM      7  C   UNL     1     111.938 125.869 138.417  0.00  0.00    +0.000 C 
ATOM      8  C   UNL     1     112.179 126.229 139.119  0.00  0.00    +0.000 A 
ATOM      9  C   UNL     1     112.976 126.401 139.242  0.00  0.00    +0.000 A 
ATOM     10  C   UNL     1     111.589 126.420 139.714  0.00  0.00    +0.000 A 
ATOM     11  C   UNL     1     113.239 126.776 139.970  0.00  0.00    +0.000 A 
ATOM     12  C   UNL     1     111.833 126.795 140.448  0.00  0.00    +0.000 A 
ATOM     13  C   UNL     1     112.663 126.974 140.576  0.00  0.00    +0.000 A 
ENDROOT
BRANCH   6  15
ATOM     14  O   UNL     1     115.521 125.102 135.645  0.00  0.00    +0.000 OA
ATOM     15  C   UNL     1     113.849 125.665 137.383  0.00  0.00    +0.000 A 
ATOM     16  C   UNL     1     114.127 124.891 137.312  0.00  0.00    +0.000 A 
ATOM     17  C   UNL     1     114.129 126.251 136.874  0.00  0.00    +0.000 A 
ATOM     18  C   UNL     1     114.683 124.703 136.734  0.00  0.00    +0.000 A 
ATOM     19  C   UNL     1     114.687 126.063 136.294  0.00  0.00    +0.000 A 
ATOM     20  C   UNL     1     114.963 125.289 136.225  0.00  0.00    +0.000 A 
ENDBRANCH   6  15
BRANCH   5  21
ATOM     21  O   UNL     1     112.255 125.321 137.136  0.00  0.00    +0.000 OA
BRANCH  21  27
ATOM     22  O   UNL     1     111.674 126.525 136.632  0.00  0.00    +0.000 OA
ATOM     23  O   UNL     1     111.263 124.435 136.160  0.00  0.00    +0.000 OA
ATOM     24  O   UNL     1     110.185 125.196 135.168  0.00  0.00    +0.000 OA
ATOM     25  O   UNL     1     110.100 126.843 135.153  0.00  0.00    +0.000 OA
ATOM     26  C   UNL     1     111.220 125.258 136.152  0.00  0.00    +0.000 C 
ATOM     27  C   UNL     1     111.716 125.702 136.640  0.00  0.00    +0.000 C 
ATOM     28  C   UNL     1     110.682 125.638 135.657  0.00  0.00    +0.000 C 
ATOM     29  C   UNL     1     110.639 126.463 135.649  0.00  0.00    +0.000 C 
ATOM     30  C   UNL     1     111.135 126.906 136.137  0.00  0.00    +0.000 C 
ENDBRANCH  21  27
ENDBRANCH   5  21
TORSDOF 3
ENDMDL
MODEL 6
REMARK VINA RESULT:      -9.2     10.160     12.167
REMARK  Name = 91872679
REMARK  3 active torsions:
REMARK  status: ('A' for Active; 'I' for Inactive)
REMARK    1  A    between atoms: O_1  and  C_12
REMARK    2  A    between atoms: O_1  and  C_15
REMARK    3  A    between atoms: C_16  and  C_19
REMARK                            x       y       z     vdW  Elec       q    Type
REMARK                         _______ _______ _______ _____ _____    ______ ____
ROOT
ATOM      1  O   UNL     1     113.507 127.157 136.358  0.00  0.00    +0.000 OA
ATOM      2  O   UNL     1     112.463 128.308 138.284  0.00  0.00    +0.000 OA
ATOM      3  O   UNL     1     112.835 129.596 137.753  0.00  0.00    +0.000 OA
ATOM      4  O   UNL     1     114.291 129.723 135.225  0.00  0.00    +0.000 OA
ATOM      5  C   UNL     1     112.795 127.100 137.595  0.00  0.00    +0.000 C 
ATOM      6  C   UNL     1     113.143 126.717 136.953  0.00  0.00    +0.000 C 
ATOM      7  C   UNL     1     112.811 127.924 137.642  0.00  0.00    +0.000 C 
ATOM      8  C   UNL     1     113.175 128.364 137.047  0.00  0.00    +0.000 A 
ATOM      9  C   UNL     1     113.523 127.980 136.405  0.00  0.00    +0.000 A 
ATOM     10  C   UNL     1     113.186 129.221 137.107  0.00  0.00    +0.000 A 
ATOM     11  C   UNL     1     113.906 128.428 135.778  0.00  0.00    +0.000 A 
ATOM     12  C   UNL     1     113.563 129.685 136.490  0.00  0.00    +0.000 A 
ATOM     13  C   UNL     1     113.926 129.285 135.822  0.00  0.00    +0.000 A 
ENDROOT
BRANCH   6  15
ATOM     14  O   UNL     1     113.077 123.422 136.766  0.00  0.00    +0.000 OA
ATOM     15  C   UNL     1     113.127 125.894 136.906  0.00  0.00    +0.000 A 
ATOM     16  C   UNL     1     113.805 125.456 137.080  0.00  0.00    +0.000 A 
ATOM     17  C   UNL     1     112.432 125.507 136.685  0.00  0.00    +0.000 A 
ATOM     18  C   UNL     1     113.788 124.633 137.034  0.00  0.00    +0.000 A 
ATOM     19  C   UNL     1     112.416 124.683 136.638  0.00  0.00    +0.000 A 
ATOM     20  C   UNL     1     113.094 124.247 136.813  0.00  0.00    +0.000 A 
ENDBRANCH   6  15
BRANCH   5  21
ATOM     21  O   UNL     1     112.431 126.661 138.191  0.00  0.00    +0.000 OA
BRANCH  21  27
ATOM     22  O   UNL     1     113.478 126.927 139.125  0.00  0.00    +0.000 OA
ATOM     23  O   UNL     1     111.390 126.375 139.439  0.00  0.00    +0.000 OA
ATOM     24  O   UNL     1     111.917 126.499 140.997  0.00  0.00    +0.000 OA
ATOM     25  O   UNL     1     113.485 126.908 141.308  0.00  0.00    +0.000 OA
ATOM     26  C   UNL     1     112.173 126.580 139.594  0.00  0.00    +0.000 C 
ATOM     27  C   UNL     1     112.694 126.723 138.970  0.00  0.00    +0.000 C 
ATOM     28  C   UNL     1     112.437 126.642 140.373  0.00  0.00    +0.000 C 
ATOM     29  C   UNL     1     113.222 126.847 140.528  0.00  0.00    +0.000 C 
ATOM     30  C   UNL     1     113.741 126.989 139.904  0.00  0.00    +0.000 C 
ENDBRANCH  21  27
ENDBRANCH   5  21
TORSDOF 3
ENDMDL
MODEL 7
REMARK VINA RESULT:      -9.1     10.992     13.120
REMARK  Name = 91872679
REMARK  3 active torsions:
REMARK  status: ('A' for Active; 'I' for Inactive)
REMARK    1  A    between atoms: O_1  and  C_12
REMARK    2  A    between atoms: O_1  and  C_15
REMARK    3  A    between atoms: C_16  and  C_19
REMARK                            x       y       z     vdW  Elec       q    Type
REMARK                         _______ _______ _______ _____ _____    ______ ____
ROOT
ATOM      1  O   UNL     1     114.224 127.540 136.072  0.00  0.00    +0.000 OA
ATOM      2  O   UNL     1     111.873 128.265 136.339  0.00  0.00    +0.000 OA
ATOM      3  O   UNL     1     112.150 129.508 135.662  0.00  0.00    +0.000 OA
ATOM      4  O   UNL     1     114.856 130.028 134.697  0.00  0.00    +0.000 OA
ATOM      5  C   UNL     1     112.899 127.290 136.543  0.00  0.00    +0.000 C 
ATOM      6  C   UNL     1     113.683 127.049 136.454  0.00  0.00    +0.000 C 
ATOM      7  C   UNL     1     112.657 128.023 136.250  0.00  0.00    +0.000 C 
ATOM      8  C   UNL     1     113.199 128.514 135.869  0.00  0.00    +0.000 A 
ATOM      9  C   UNL     1     113.983 128.272 135.780  0.00  0.00    +0.000 A 
ATOM     10  C   UNL     1     112.936 129.275 135.569  0.00  0.00    +0.000 A 
ATOM     11  C   UNL     1     114.557 128.775 135.384  0.00  0.00    +0.000 A 
ATOM     12  C   UNL     1     113.496 129.791 135.171  0.00  0.00    +0.000 A 
ATOM     13  C   UNL     1     114.312 129.539 135.078  0.00  0.00    +0.000 A 
ENDROOT
BRANCH   6  15
ATOM     14  O   UNL     1     114.648 124.118 137.623  0.00  0.00    +0.000 OA
ATOM     15  C   UNL     1     113.924 126.317 136.746  0.00  0.00    +0.000 A 
ATOM     16  C   UNL     1     114.020 126.207 137.558  0.00  0.00    +0.000 A 
ATOM     17  C   UNL     1     114.070 125.693 136.226  0.00  0.00    +0.000 A 
ATOM     18  C   UNL     1     114.261 125.475 137.850  0.00  0.00    +0.000 A 
ATOM     19  C   UNL     1     114.311 124.959 136.518  0.00  0.00    +0.000 A 
ATOM     20  C   UNL     1     114.407 124.851 137.330  0.00  0.00    +0.000 A 
ENDBRANCH   6  15
BRANCH   5  21
ATOM     21  O   UNL     1     112.356 126.800 136.924  0.00  0.00    +0.000 OA
BRANCH  21  27
ATOM     22  O   UNL     1     111.699 126.422 135.713  0.00  0.00    +0.000 OA
ATOM     23  O   UNL     1     110.957 126.548 137.762  0.00  0.00    +0.000 OA
ATOM     24  O   UNL     1     109.600 126.044 136.970  0.00  0.00    +0.000 OA
ATOM     25  O   UNL     1     109.642 125.792 135.340  0.00  0.00    +0.000 OA
ATOM     26  C   UNL     1     110.979 126.422 136.948  0.00  0.00    +0.000 C 
ATOM     27  C   UNL     1     111.678 126.548 136.528  0.00  0.00    +0.000 C 
ATOM     28  C   UNL     1     110.300 126.170 136.552  0.00  0.00    +0.000 C 
ATOM     29  C   UNL     1     110.321 126.044 135.736  0.00  0.00    +0.000 C 
ATOM     30  C   UNL     1     111.020 126.170 135.317  0.00  0.00    +0.000 C 
ENDBRANCH  21  27
ENDBRANCH   5  21
TORSDOF 3
ENDMDL
MODEL 8
REMARK VINA RESULT:      -9.1     10.344     12.376
REMARK  Name = 91872679
REMARK  3 active torsions:
REMARK  status: ('A' for Active; 'I' for Inactive)
REMARK    1  A    between atoms: O_1  and  C_12
REMARK    2  A    between atoms: O_1  and  C_15
REMARK    3  A    between atoms: C_16  and  C_19
REMARK                            x       y       z     vdW  Elec       q    Type
REMARK                         _______ _______ _______ _____ _____    ______ ____
ROOT
ATOM      1  O   UNL     1     113.557 126.804 136.781  0.00  0.00    +0.000 OA
ATOM      2  O   UNL     1     111.609 125.481 136.020  0.00  0.00    +0.000 OA
ATOM      3  O   UNL     1     112.280 124.248 136.353  0.00  0.00    +0.000 OA
ATOM      4  O   UNL     1     114.973 124.356 137.477  0.00  0.00    +0.000 OA
ATOM      5  C   UNL     1     112.239 126.746 136.231  0.00  0.00    +0.000 C 
ATOM      6  C   UNL     1     112.889 127.187 136.485  0.00  0.00    +0.000 C 
ATOM      7  C   UNL     1     112.258 125.922 136.274  0.00  0.00    +0.000 C 
ATOM      8  C   UNL     1     112.926 125.540 136.570  0.00  0.00    +0.000 A 
ATOM      9  C   UNL     1     113.576 125.981 136.824  0.00  0.00    +0.000 A 
ATOM     10  C   UNL     1     112.934 124.681 136.609  0.00  0.00    +0.000 A 
ATOM     11  C   UNL     1     114.278 125.594 137.134  0.00  0.00    +0.000 A 
ATOM     12  C   UNL     1     113.627 124.277 136.916  0.00  0.00    +0.000 A 
ATOM     13  C   UNL     1     114.303 124.736 137.181  0.00  0.00    +0.000 A 
ENDROOT
BRANCH   6  15
ATOM     14  O   UNL     1     112.812 130.482 136.315  0.00  0.00    +0.000 OA
ATOM     15  C   UNL     1     112.869 128.010 136.443  0.00  0.00    +0.000 A 
ATOM     16  C   UNL     1     112.750 128.457 137.126  0.00  0.00    +0.000 A 
ATOM     17  C   UNL     1     112.970 128.388 135.716  0.00  0.00    +0.000 A 
ATOM     18  C   UNL     1     112.731 129.280 137.084  0.00  0.00    +0.000 A 
ATOM     19  C   UNL     1     112.951 129.212 135.673  0.00  0.00    +0.000 A 
ATOM     20  C   UNL     1     112.831 129.658 136.358  0.00  0.00    +0.000 A 
ENDBRANCH   6  15
BRANCH   5  21
ATOM     21  O   UNL     1     111.571 127.128 135.935  0.00  0.00    +0.000 OA
BRANCH  21  27
ATOM     22  O   UNL     1     110.798 126.859 137.105  0.00  0.00    +0.000 OA
ATOM     23  O   UNL     1     110.186 127.230 135.044  0.00  0.00    +0.000 OA
ATOM     24  O   UNL     1     108.720 127.012 135.769  0.00  0.00    +0.000 OA
ATOM     25  O   UNL     1     108.639 126.692 137.386  0.00  0.00    +0.000 OA
ATOM     26  C   UNL     1     110.146 127.070 135.852  0.00  0.00    +0.000 C 
ATOM     27  C   UNL     1     110.838 127.019 136.298  0.00  0.00    +0.000 C 
ATOM     28  C   UNL     1     109.413 126.961 136.214  0.00  0.00    +0.000 C 
ATOM     29  C   UNL     1     109.372 126.801 137.023  0.00  0.00    +0.000 C 
ATOM     30  C   UNL     1     110.065 126.750 137.468  0.00  0.00    +0.000 C 
ENDBRANCH  21  27
ENDBRANCH   5  21
TORSDOF 3
ENDMDL
MODEL 9
REMARK VINA RESULT:      -9.1      9.218     11.050
REMARK  Name = 91872679
REMARK  3 active torsions:
REMARK  status: ('A' for Active; 'I' for Inactive)
REMARK    1  A    between atoms: O_1  and  C_12
REMARK    2  A    between atoms: O_1  and  C_15
REMARK    3  A    between atoms: C_16  and  C_19
REMARK                            x       y       z     vdW  Elec       q    Type
REMARK                         _______ _______ _______ _____ _____    ______ ____
ROOT
ATOM      1  O   UNL     1     113.813 126.224 138.294  0.00  0.00    +0.000 OA
ATOM      2  O   UNL     1     111.750 124.925 137.867  0.00  0.00    +0.000 OA
ATOM      3  O   UNL     1     112.369 124.258 136.748  0.00  0.00    +0.000 OA
ATOM      4  O   UNL     1     115.125 124.917 136.047  0.00  0.00    +0.000 OA
ATOM      5  C   UNL     1     112.464 125.898 138.634  0.00  0.00    +0.000 C 
ATOM      6  C   UNL     1     113.152 126.331 138.776  0.00  0.00    +0.000 C 
ATOM      7  C   UNL     1     112.438 125.358 138.010  0.00  0.00    +0.000 C 
ATOM      8  C   UNL     1     113.100 125.252 137.529  0.00  0.00    +0.000 A 
ATOM      9  C   UNL     1     113.787 125.685 137.671  0.00  0.00    +0.000 A 
ATOM     10  C   UNL     1     113.061 124.686 136.883  0.00  0.00    +0.000 A 
ATOM     11  C   UNL     1     114.483 125.582 137.177  0.00  0.00    +0.000 A 
ATOM     12  C   UNL     1     113.746 124.571 136.378  0.00  0.00    +0.000 A 
ATOM     13  C   UNL     1     114.462 125.022 136.527  0.00  0.00    +0.000 A 
ENDROOT
BRANCH   6  15
ATOM     14  O   UNL     1     113.255 128.489 141.271  0.00  0.00    +0.000 OA
ATOM     15  C   UNL     1     113.177 126.870 139.399  0.00  0.00    +0.000 A 
ATOM     16  C   UNL     1     113.123 127.680 139.248  0.00  0.00    +0.000 A 
ATOM     17  C   UNL     1     113.257 126.601 140.175  0.00  0.00    +0.000 A 
ATOM     18  C   UNL     1     113.149 128.219 139.871  0.00  0.00    +0.000 A 
ATOM     19  C   UNL     1     113.283 127.140 140.799  0.00  0.00    +0.000 A 
ATOM     20  C   UNL     1     113.229 127.949 140.646  0.00  0.00    +0.000 A 
ENDBRANCH   6  15
BRANCH   5  21
ATOM     21  O   UNL     1     111.802 126.004 139.114  0.00  0.00    +0.000 OA
BRANCH  21  27
ATOM     22  O   UNL     1     111.086 126.714 138.103  0.00  0.00    +0.000 OA
ATOM     23  O   UNL     1     110.375 125.568 139.818  0.00  0.00    +0.000 OA
ATOM     24  O   UNL     1     108.945 126.060 139.158  0.00  0.00    +0.000 OA
ATOM     25  O   UNL     1     108.943 126.989 137.794  0.00  0.00    +0.000 OA
ATOM     26  C   UNL     1     110.374 126.032 139.137  0.00  0.00    +0.000 C 
ATOM     27  C   UNL     1     111.087 126.250 138.784  0.00  0.00    +0.000 C 
ATOM     28  C   UNL     1     109.659 126.278 138.807  0.00  0.00    +0.000 C 
ATOM     29  C   UNL     1     109.657 126.743 138.124  0.00  0.00    +0.000 C 
ATOM     30  C   UNL     1     110.371 126.960 137.773  0.00  0.00    +0.000 C 
ENDBRANCH  21  27
ENDBRANCH   5  21
TORSDOF 3
ENDMDL
MODEL 10
REMARK VINA RESULT:      -9.1      1.738      4.081
REMARK  Name = 91872679
REMARK  3 active torsions:
REMARK  status: ('A' for Active; 'I' for Inactive)
REMARK    1  A    between atoms: O_1  and  C_12
REMARK    2  A    between atoms: O_1  and  C_15
REMARK    3  A    between atoms: C_16  and  C_19
REMARK                            x       y       z     vdW  Elec       q    Type
REMARK                         _______ _______ _______ _____ _____    ______ ____
ROOT
ATOM      1  O   UNL     1     105.064 124.220 146.927  0.00  0.00    +0.000 OA
ATOM      2  O   UNL     1     103.489 125.688 148.148  0.00  0.00    +0.000 OA
ATOM      3  O   UNL     1     102.359 125.022 147.548  0.00  0.00    +0.000 OA
ATOM      4  O   UNL     1     102.831 122.830 145.677  0.00  0.00    +0.000 OA
ATOM      5  C   UNL     1     104.828 125.292 147.842  0.00  0.00    +0.000 C 
ATOM      6  C   UNL     1     105.353 124.803 147.435  0.00  0.00    +0.000 C 
ATOM      7  C   UNL     1     104.014 125.199 147.741  0.00  0.00    +0.000 C 
ATOM      8  C   UNL     1     103.726 124.616 147.233  0.00  0.00    +0.000 A 
ATOM      9  C   UNL     1     104.251 124.127 146.826  0.00  0.00    +0.000 A 
ATOM     10  C   UNL     1     102.877 124.528 147.137  0.00  0.00    +0.000 A 
ATOM     11  C   UNL     1     103.963 123.516 146.295  0.00  0.00    +0.000 A 
ATOM     12  C   UNL     1     102.570 123.923 146.610  0.00  0.00    +0.000 A 
ATOM     13  C   UNL     1     103.117 123.414 146.186  0.00  0.00    +0.000 A 
ENDROOT
BRANCH   6  15
ATOM     14  O   UNL     1     108.607 125.177 147.839  0.00  0.00    +0.000 OA
ATOM     15  C   UNL     1     106.166 124.896 147.536  0.00  0.00    +0.000 A 
ATOM     16  C   UNL     1     106.615 125.270 146.952  0.00  0.00    +0.000 A 
ATOM     17  C   UNL     1     106.532 124.617 148.220  0.00  0.00    +0.000 A 
ATOM     18  C   UNL     1     107.428 125.363 147.053  0.00  0.00    +0.000 A 
ATOM     19  C   UNL     1     107.346 124.711 148.322  0.00  0.00    +0.000 A 
ATOM     20  C   UNL     1     107.793 125.084 147.738  0.00  0.00    +0.000 A 
ENDBRANCH   6  15
BRANCH   5  21
ATOM     21  O   UNL     1     105.116 125.875 148.350  0.00  0.00    +0.000 OA
BRANCH  21  27
ATOM     22  O   UNL     1     104.807 126.932 147.441  0.00  0.00    +0.000 OA
ATOM     23  O   UNL     1     105.025 126.934 149.612  0.00  0.00    +0.000 OA
ATOM     24  O   UNL     1     104.670 128.521 149.333  0.00  0.00    +0.000 OA
ATOM     25  O   UNL     1     104.407 129.049 147.793  0.00  0.00    +0.000 OA
ATOM     26  C   UNL     1     104.893 127.197 148.842  0.00  0.00    +0.000 C 
ATOM     27  C   UNL     1     104.939 126.668 148.210  0.00  0.00    +0.000 C 
ATOM     28  C   UNL     1     104.716 127.991 148.703  0.00  0.00    +0.000 C 
ATOM     29  C   UNL     1     104.584 128.256 147.932  0.00  0.00    +0.000 C 
ATOM     30  C   UNL     1     104.630 127.726 147.301  0.00  0.00    +0.000 C 
ENDBRANCH  21  27
ENDBRANCH   5  21
TORSDOF 3
ENDMDL
