MODEL 1
REMARK VINA RESULT:      -7.5      0.000      0.000
REMARK  Name = 44257123
REMARK  3 active torsions:
REMARK  status: ('A' for Active; 'I' for Inactive)
REMARK    1  A    between atoms: O_3  and  C_12
REMARK    2  A    between atoms: O_5  and  C_20
REMARK    3  A    between atoms: C_7  and  C_11
REMARK                            x       y       z     vdW  Elec       q    Type
REMARK                         _______ _______ _______ _____ _____    ______ ____
ROOT
ATOM      1  O   UNL     1     113.884 126.879 136.757  0.00  0.00    +0.000 OA
ATOM      2  O   UNL     1     111.958 127.514 135.948  0.00  0.00    +0.000 OA
ATOM      3  O   UNL     1     114.880 124.247 137.503  0.00  0.00    +0.000 OA
ATOM      4  C   UNL     1     112.559 127.032 136.241  0.00  0.00    +0.000 C 
ATOM      5  C   UNL     1     113.282 127.362 136.463  0.00  0.00    +0.000 C 
ATOM      6  C   UNL     1     112.439 126.218 136.312  0.00  0.00    +0.000 C 
ATOM      7  C   UNL     1     113.039 125.736 136.605  0.00  0.00    +0.000 A 
ATOM      8  C   UNL     1     113.762 126.066 136.827  0.00  0.00    +0.000 A 
ATOM      9  C   UNL     1     112.901 124.890 136.674  0.00  0.00    +0.000 A 
ATOM     10  C   UNL     1     114.396 125.574 137.134  0.00  0.00    +0.000 A 
ATOM     11  C   UNL     1     113.524 124.383 136.978  0.00  0.00    +0.000 A 
ATOM     12  C   UNL     1     114.277 124.727 137.210  0.00  0.00    +0.000 A 
ENDROOT
BRANCH   5  13
ATOM     13  C   UNL     1     113.403 128.175 136.393  0.00  0.00    +0.000 A 
ATOM     14  C   UNL     1     113.754 128.481 135.711  0.00  0.00    +0.000 A 
ATOM     15  C   UNL     1     113.175 128.681 137.003  0.00  0.00    +0.000 A 
ATOM     16  C   UNL     1     113.876 129.294 135.641  0.00  0.00    +0.000 A 
ATOM     17  C   UNL     1     113.297 129.494 136.931  0.00  0.00    +0.000 A 
ATOM     18  C   UNL     1     113.647 129.800 136.251  0.00  0.00    +0.000 A 
BRANCH  18  19
ATOM     19  O   UNL     1     113.770 130.613 136.179  0.00  0.00    +0.000 OA
ATOM     20  C   UNL     1     113.930 131.067 136.850  0.00  0.00    +0.000 C 
ENDBRANCH  18  19
ENDBRANCH   5  13
BRANCH   9  21
ATOM     21  O   UNL     1     112.175 124.569 136.449  0.00  0.00    +0.000 OA
ATOM     22  C   UNL     1     111.996 123.786 136.637  0.00  0.00    +0.000 C 
ENDBRANCH   9  21
TORSDOF 3
ENDMDL
MODEL 2
REMARK VINA RESULT:      -7.4      8.709     10.118
REMARK  Name = 44257123
REMARK  3 active torsions:
REMARK  status: ('A' for Active; 'I' for Inactive)
REMARK    1  A    between atoms: O_3  and  C_12
REMARK    2  A    between atoms: O_5  and  C_20
REMARK    3  A    between atoms: C_7  and  C_11
REMARK                            x       y       z     vdW  Elec       q    Type
REMARK                         _______ _______ _______ _____ _____    ______ ____
ROOT
ATOM      1  O   UNL     1     105.060 123.874 139.535  0.00  0.00    +0.000 OA
ATOM      2  O   UNL     1     103.784 125.578 139.052  0.00  0.00    +0.000 OA
ATOM      3  O   UNL     1     107.269 123.598 141.413  0.00  0.00    +0.000 OA
ATOM      4  C   UNL     1     104.374 125.121 139.404  0.00  0.00    +0.000 C 
ATOM      5  C   UNL     1     104.470 124.332 139.183  0.00  0.00    +0.000 C 
ATOM      6  C   UNL     1     104.867 125.452 139.977  0.00  0.00    +0.000 C 
ATOM      7  C   UNL     1     105.456 124.995 140.328  0.00  0.00    +0.000 A 
ATOM      8  C   UNL     1     105.553 124.206 140.107  0.00  0.00    +0.000 A 
ATOM      9  C   UNL     1     105.964 125.352 140.923  0.00  0.00    +0.000 A 
ATOM     10  C   UNL     1     106.164 123.719 140.467  0.00  0.00    +0.000 A 
ATOM     11  C   UNL     1     106.579 124.880 141.293  0.00  0.00    +0.000 A 
ATOM     12  C   UNL     1     106.680 124.058 141.063  0.00  0.00    +0.000 A 
ENDROOT
BRANCH   5  13
ATOM     13  C   UNL     1     103.978 124.000 138.611  0.00  0.00    +0.000 A 
ATOM     14  C   UNL     1     103.181 123.866 138.781  0.00  0.00    +0.000 A 
ATOM     15  C   UNL     1     104.281 123.802 137.869  0.00  0.00    +0.000 A 
ATOM     16  C   UNL     1     102.688 123.534 138.208  0.00  0.00    +0.000 A 
ATOM     17  C   UNL     1     103.787 123.470 137.298  0.00  0.00    +0.000 A 
ATOM     18  C   UNL     1     102.991 123.336 137.467  0.00  0.00    +0.000 A 
BRANCH  18  19
ATOM     19  O   UNL     1     102.497 123.004 136.895  0.00  0.00    +0.000 OA
ATOM     20  C   UNL     1     102.810 122.760 136.172  0.00  0.00    +0.000 C 
ENDBRANCH  18  19
ENDBRANCH   5  13
BRANCH   9  21
ATOM     21  O   UNL     1     105.859 126.142 141.138  0.00  0.00    +0.000 OA
ATOM     22  C   UNL     1     106.265 126.449 141.787  0.00  0.00    +0.000 C 
ENDBRANCH   9  21
TORSDOF 3
ENDMDL
MODEL 3
REMARK VINA RESULT:      -7.4     13.319     14.449
REMARK  Name = 44257123
REMARK  3 active torsions:
REMARK  status: ('A' for Active; 'I' for Inactive)
REMARK    1  A    between atoms: O_3  and  C_12
REMARK    2  A    between atoms: O_5  and  C_20
REMARK    3  A    between atoms: C_7  and  C_11
REMARK                            x       y       z     vdW  Elec       q    Type
REMARK                         _______ _______ _______ _____ _____    ______ ____
ROOT
ATOM      1  O   UNL     1     103.949 124.869 147.543  0.00  0.00    +0.000 OA
ATOM      2  O   UNL     1     105.054 123.910 145.923  0.00  0.00    +0.000 OA
ATOM      3  O   UNL     1     101.101 124.948 148.144  0.00  0.00    +0.000 OA
ATOM      4  C   UNL     1     104.428 124.158 146.399  0.00  0.00    +0.000 C 
ATOM      5  C   UNL     1     104.576 124.621 147.066  0.00  0.00    +0.000 C 
ATOM      6  C   UNL     1     103.654 123.943 146.210  0.00  0.00    +0.000 C 
ATOM      7  C   UNL     1     103.029 124.191 146.686  0.00  0.00    +0.000 A 
ATOM      8  C   UNL     1     103.176 124.654 147.353  0.00  0.00    +0.000 A 
ATOM      9  C   UNL     1     102.227 123.960 146.478  0.00  0.00    +0.000 A 
ATOM     10  C   UNL     1     102.532 124.918 147.857  0.00  0.00    +0.000 A 
ATOM     11  C   UNL     1     101.571 124.216 146.971  0.00  0.00    +0.000 A 
ATOM     12  C   UNL     1     101.725 124.698 147.665  0.00  0.00    +0.000 A 
ENDROOT
BRANCH   5  13
ATOM     13  C   UNL     1     105.349 124.836 147.256  0.00  0.00    +0.000 A 
ATOM     14  C   UNL     1     105.719 125.449 146.844  0.00  0.00    +0.000 A 
ATOM     15  C   UNL     1     105.752 124.440 147.857  0.00  0.00    +0.000 A 
ATOM     16  C   UNL     1     106.492 125.664 147.035  0.00  0.00    +0.000 A 
ATOM     17  C   UNL     1     106.525 124.657 148.047  0.00  0.00    +0.000 A 
ATOM     18  C   UNL     1     106.895 125.268 147.636  0.00  0.00    +0.000 A 
BRANCH  18  19
ATOM     19  O   UNL     1     107.669 125.485 147.825  0.00  0.00    +0.000 OA
ATOM     20  C   UNL     1     108.196 124.919 148.113  0.00  0.00    +0.000 C 
ENDBRANCH  18  19
ENDBRANCH   5  13
BRANCH   9  21
ATOM     21  O   UNL     1     102.089 123.497 145.809  0.00  0.00    +0.000 OA
ATOM     22  C   UNL     1     101.326 123.231 145.643  0.00  0.00    +0.000 C 
ENDBRANCH   9  21
TORSDOF 3
ENDMDL
MODEL 4
REMARK VINA RESULT:      -7.4      0.860      4.491
REMARK  Name = 44257123
REMARK  3 active torsions:
REMARK  status: ('A' for Active; 'I' for Inactive)
REMARK    1  A    between atoms: O_3  and  C_12
REMARK    2  A    between atoms: O_5  and  C_20
REMARK    3  A    between atoms: C_7  and  C_11
REMARK                            x       y       z     vdW  Elec       q    Type
REMARK                         _______ _______ _______ _____ _____    ______ ____
ROOT
ATOM      1  O   UNL     1     113.847 127.588 135.984  0.00  0.00    +0.000 OA
ATOM      2  O   UNL     1     112.718 127.350 137.838  0.00  0.00    +0.000 OA
ATOM      3  O   UNL     1     114.898 129.961 134.665  0.00  0.00    +0.000 OA
ATOM      4  C   UNL     1     113.128 127.702 137.215  0.00  0.00    +0.000 C 
ATOM      5  C   UNL     1     113.436 127.235 136.608  0.00  0.00    +0.000 C 
ATOM      6  C   UNL     1     113.230 128.521 137.198  0.00  0.00    +0.000 C 
ATOM      7  C   UNL     1     113.640 128.872 136.575  0.00  0.00    +0.000 A 
ATOM      8  C   UNL     1     113.948 128.406 135.968  0.00  0.00    +0.000 A 
ATOM      9  C   UNL     1     113.740 129.726 136.569  0.00  0.00    +0.000 A 
ATOM     10  C   UNL     1     114.377 128.761 135.313  0.00  0.00    +0.000 A 
ATOM     11  C   UNL     1     114.166 130.098 135.922  0.00  0.00    +0.000 A 
ATOM     12  C   UNL     1     114.487 129.612 135.290  0.00  0.00    +0.000 A 
ENDROOT
BRANCH   5  13
ATOM     13  C   UNL     1     113.334 126.417 136.624  0.00  0.00    +0.000 A 
ATOM     14  C   UNL     1     113.932 125.933 136.925  0.00  0.00    +0.000 A 
ATOM     15  C   UNL     1     112.636 126.082 136.340  0.00  0.00    +0.000 A 
ATOM     16  C   UNL     1     113.831 125.115 136.941  0.00  0.00    +0.000 A 
ATOM     17  C   UNL     1     112.536 125.263 136.357  0.00  0.00    +0.000 A 
ATOM     18  C   UNL     1     113.132 124.780 136.657  0.00  0.00    +0.000 A 
BRANCH  18  19
ATOM     19  O   UNL     1     113.032 123.961 136.674  0.00  0.00    +0.000 OA
ATOM     20  C   UNL     1     112.300 123.640 136.877  0.00  0.00    +0.000 C 
ENDBRANCH  18  19
ENDBRANCH   5  13
BRANCH   9  21
ATOM     21  O   UNL     1     113.428 130.185 137.180  0.00  0.00    +0.000 OA
ATOM     22  C   UNL     1     113.540 131.002 137.179  0.00  0.00    +0.000 C 
ENDBRANCH   9  21
TORSDOF 3
ENDMDL
MODEL 5
REMARK VINA RESULT:      -7.4      1.898      2.764
REMARK  Name = 44257123
REMARK  3 active torsions:
REMARK  status: ('A' for Active; 'I' for Inactive)
REMARK    1  A    between atoms: O_3  and  C_12
REMARK    2  A    between atoms: O_5  and  C_20
REMARK    3  A    between atoms: C_7  and  C_11
REMARK                            x       y       z     vdW  Elec       q    Type
REMARK                         _______ _______ _______ _____ _____    ______ ____
ROOT
ATOM      1  O   UNL     1     111.398 125.885 136.090  0.00  0.00    +0.000 OA
ATOM      2  O   UNL     1     112.636 127.683 136.078  0.00  0.00    +0.000 OA
ATOM      3  O   UNL     1     112.002 123.143 136.862  0.00  0.00    +0.000 OA
ATOM      4  C   UNL     1     112.403 126.899 136.176  0.00  0.00    +0.000 C 
ATOM      5  C   UNL     1     111.632 126.671 135.991  0.00  0.00    +0.000 C 
ATOM      6  C   UNL     1     112.941 126.341 136.459  0.00  0.00    +0.000 C 
ATOM      7  C   UNL     1     112.708 125.556 136.557  0.00  0.00    +0.000 A 
ATOM      8  C   UNL     1     111.937 125.328 136.373  0.00  0.00    +0.000 A 
ATOM      9  C   UNL     1     113.278 124.984 136.853  0.00  0.00    +0.000 A 
ATOM     10  C   UNL     1     111.682 124.513 136.471  0.00  0.00    +0.000 A 
ATOM     11  C   UNL     1     113.041 124.165 136.957  0.00  0.00    +0.000 A 
ATOM     12  C   UNL     1     112.237 123.928 136.765  0.00  0.00    +0.000 A 
ENDROOT
BRANCH   5  13
ATOM     13  C   UNL     1     111.093 127.228 135.709  0.00  0.00    +0.000 A 
ATOM     14  C   UNL     1     111.000 127.335 134.895  0.00  0.00    +0.000 A 
ATOM     15  C   UNL     1     110.648 127.678 136.238  0.00  0.00    +0.000 A 
ATOM     16  C   UNL     1     110.462 127.892 134.612  0.00  0.00    +0.000 A 
ATOM     17  C   UNL     1     110.109 128.235 135.953  0.00  0.00    +0.000 A 
ATOM     18  C   UNL     1     110.016 128.342 135.141  0.00  0.00    +0.000 A 
BRANCH  18  19
ATOM     19  O   UNL     1     109.478 128.899 134.857  0.00  0.00    +0.000 OA
ATOM     20  C   UNL     1     109.723 129.674 134.714  0.00  0.00    +0.000 C 
ENDBRANCH  18  19
ENDBRANCH   5  13
BRANCH   9  21
ATOM     21  O   UNL     1     114.047 125.221 137.035  0.00  0.00    +0.000 OA
ATOM     22  C   UNL     1     114.595 124.667 137.306  0.00  0.00    +0.000 C 
ENDBRANCH   9  21
TORSDOF 3
ENDMDL
MODEL 6
REMARK VINA RESULT:      -7.3      1.027      2.120
REMARK  Name = 44257123
REMARK  3 active torsions:
REMARK  status: ('A' for Active; 'I' for Inactive)
REMARK    1  A    between atoms: O_3  and  C_12
REMARK    2  A    between atoms: O_5  and  C_20
REMARK    3  A    between atoms: C_7  and  C_11
REMARK                            x       y       z     vdW  Elec       q    Type
REMARK                         _______ _______ _______ _____ _____    ______ ____
ROOT
ATOM      1  O   UNL     1     112.139 127.250 135.922  0.00  0.00    +0.000 OA
ATOM      2  O   UNL     1     113.939 126.868 137.097  0.00  0.00    +0.000 OA
ATOM      3  O   UNL     1     109.976 125.486 135.092  0.00  0.00    +0.000 OA
ATOM      4  C   UNL     1     113.225 126.745 136.703  0.00  0.00    +0.000 C 
ATOM      5  C   UNL     1     112.854 127.373 136.317  0.00  0.00    +0.000 C 
ATOM      6  C   UNL     1     112.882 125.995 136.694  0.00  0.00    +0.000 C 
ATOM      7  C   UNL     1     112.168 125.872 136.300  0.00  0.00    +0.000 A 
ATOM      8  C   UNL     1     111.797 126.500 135.914  0.00  0.00    +0.000 A 
ATOM      9  C   UNL     1     111.821 125.086 136.298  0.00  0.00    +0.000 A 
ATOM     10  C   UNL     1     111.052 126.384 135.500  0.00  0.00    +0.000 A 
ATOM     11  C   UNL     1     111.077 124.952 135.890  0.00  0.00    +0.000 A 
ATOM     12  C   UNL     1     110.690 125.606 135.487  0.00  0.00    +0.000 A 
ENDROOT
BRANCH   5  13
ATOM     13  C   UNL     1     113.196 128.123 136.325  0.00  0.00    +0.000 A 
ATOM     14  C   UNL     1     113.007 128.656 136.927  0.00  0.00    +0.000 A 
ATOM     15  C   UNL     1     113.727 128.341 135.733  0.00  0.00    +0.000 A 
ATOM     16  C   UNL     1     113.349 129.407 136.935  0.00  0.00    +0.000 A 
ATOM     17  C   UNL     1     114.069 129.092 135.742  0.00  0.00    +0.000 A 
ATOM     18  C   UNL     1     113.880 129.625 136.342  0.00  0.00    +0.000 A 
BRANCH  18  19
ATOM     19  O   UNL     1     114.222 130.376 136.352  0.00  0.00    +0.000 OA
ATOM     20  C   UNL     1     114.906 130.522 135.915  0.00  0.00    +0.000 C 
ENDBRANCH  18  19
ENDBRANCH   5  13
BRANCH   9  21
ATOM     21  O   UNL     1     112.200 124.464 136.687  0.00  0.00    +0.000 OA
ATOM     22  C   UNL     1     111.865 123.710 136.681  0.00  0.00    +0.000 C 
ENDBRANCH   9  21
TORSDOF 3
ENDMDL
MODEL 7
REMARK VINA RESULT:      -7.2      2.623      3.008
REMARK  Name = 44257123
REMARK  3 active torsions:
REMARK  status: ('A' for Active; 'I' for Inactive)
REMARK    1  A    between atoms: O_3  and  C_12
REMARK    2  A    between atoms: O_5  and  C_20
REMARK    3  A    between atoms: C_7  and  C_11
REMARK                            x       y       z     vdW  Elec       q    Type
REMARK                         _______ _______ _______ _____ _____    ______ ____
ROOT
ATOM      1  O   UNL     1     113.851 126.308 138.660  0.00  0.00    +0.000 OA
ATOM      2  O   UNL     1     111.771 126.581 139.263  0.00  0.00    +0.000 OA
ATOM      3  O   UNL     1     115.067 124.527 136.703  0.00  0.00    +0.000 OA
ATOM      4  C   UNL     1     112.437 126.294 138.871  0.00  0.00    +0.000 C 
ATOM      5  C   UNL     1     113.184 126.596 139.051  0.00  0.00    +0.000 C 
ATOM      6  C   UNL     1     112.359 125.703 138.300  0.00  0.00    +0.000 C 
ATOM      7  C   UNL     1     113.025 125.416 137.909  0.00  0.00    +0.000 A 
ATOM      8  C   UNL     1     113.771 125.718 138.089  0.00  0.00    +0.000 A 
ATOM      9  C   UNL     1     112.930 124.801 137.316  0.00  0.00    +0.000 A 
ATOM     10  C   UNL     1     114.474 125.427 137.688  0.00  0.00    +0.000 A 
ATOM     11  C   UNL     1     113.620 124.497 136.905  0.00  0.00    +0.000 A 
ATOM     12  C   UNL     1     114.398 124.813 137.093  0.00  0.00    +0.000 A 
ENDROOT
BRANCH   5  13
ATOM     13  C   UNL     1     113.264 127.186 139.622  0.00  0.00    +0.000 A 
ATOM     14  C   UNL     1     113.220 127.981 139.402  0.00  0.00    +0.000 A 
ATOM     15  C   UNL     1     113.387 126.982 140.412  0.00  0.00    +0.000 A 
ATOM     16  C   UNL     1     113.300 128.571 139.973  0.00  0.00    +0.000 A 
ATOM     17  C   UNL     1     113.467 127.574 140.982  0.00  0.00    +0.000 A 
ATOM     18  C   UNL     1     113.423 128.367 140.763  0.00  0.00    +0.000 A 
BRANCH  18  19
ATOM     19  O   UNL     1     113.503 128.958 141.333  0.00  0.00    +0.000 OA
ATOM     20  C   UNL     1     112.834 129.344 141.623  0.00  0.00    +0.000 C 
ENDBRANCH  18  19
ENDBRANCH   5  13
BRANCH   9  21
ATOM     21  O   UNL     1     112.179 124.505 137.143  0.00  0.00    +0.000 OA
ATOM     22  C   UNL     1     112.095 123.890 136.599  0.00  0.00    +0.000 C 
ENDBRANCH   9  21
TORSDOF 3
ENDMDL
MODEL 8
REMARK VINA RESULT:      -6.1     12.106     12.932
REMARK  Name = 44257123
REMARK  3 active torsions:
REMARK  status: ('A' for Active; 'I' for Inactive)
REMARK    1  A    between atoms: O_3  and  C_12
REMARK    2  A    between atoms: O_5  and  C_20
REMARK    3  A    between atoms: C_7  and  C_11
REMARK                            x       y       z     vdW  Elec       q    Type
REMARK                         _______ _______ _______ _____ _____    ______ ____
ROOT
ATOM      1  O   UNL     1     102.078 130.946 140.988  0.00  0.00    +0.000 OA
ATOM      2  O   UNL     1     102.806 131.354 143.005  0.00  0.00    +0.000 OA
ATOM      3  O   UNL     1     102.579 128.720 139.178  0.00  0.00    +0.000 OA
ATOM      4  C   UNL     1     102.687 130.978 142.281  0.00  0.00    +0.000 C 
ATOM      5  C   UNL     1     102.197 131.322 141.713  0.00  0.00    +0.000 C 
ATOM      6  C   UNL     1     103.058 130.258 142.123  0.00  0.00    +0.000 C 
ATOM      7  C   UNL     1     102.939 129.882 141.399  0.00  0.00    +0.000 A 
ATOM      8  C   UNL     1     102.449 130.226 140.832  0.00  0.00    +0.000 A 
ATOM      9  C   UNL     1     103.331 129.132 141.247  0.00  0.00    +0.000 A 
ATOM     10  C   UNL     1     102.317 129.844 140.073  0.00  0.00    +0.000 A 
ATOM     11  C   UNL     1     103.211 128.736 140.495  0.00  0.00    +0.000 A 
ATOM     12  C   UNL     1     102.700 129.094 139.903  0.00  0.00    +0.000 A 
ENDROOT
BRANCH   5  13
ATOM     13  C   UNL     1     101.826 132.042 141.869  0.00  0.00    +0.000 A 
ATOM     14  C   UNL     1     101.085 132.053 142.233  0.00  0.00    +0.000 A 
ATOM     15  C   UNL     1     102.195 132.750 141.663  0.00  0.00    +0.000 A 
ATOM     16  C   UNL     1     100.714 132.773 142.389  0.00  0.00    +0.000 A 
ATOM     17  C   UNL     1     101.822 133.470 141.819  0.00  0.00    +0.000 A 
ATOM     18  C   UNL     1     101.082 133.481 142.183  0.00  0.00    +0.000 A 
BRANCH  18  19
ATOM     19  O   UNL     1     100.710 134.201 142.339  0.00  0.00    +0.000 OA
ATOM     20  C   UNL     1     100.855 134.593 143.051  0.00  0.00    +0.000 C 
ENDBRANCH  18  19
ENDBRANCH   5  13
BRANCH   9  21
ATOM     21  O   UNL     1     103.820 128.796 141.821  0.00  0.00    +0.000 OA
ATOM     22  C   UNL     1     104.411 128.266 141.598  0.00  0.00    +0.000 C 
ENDBRANCH   9  21
TORSDOF 3
ENDMDL
