MODEL 1
REMARK VINA RESULT:      -8.3      0.000      0.000
REMARK  Name = 156743
REMARK  2 active torsions:
REMARK  status: ('A' for Active; 'I' for Inactive)
REMARK    1  A    between atoms: O_3  and  C_13
REMARK    2  A    between atoms: C_7  and  C_9
REMARK                            x       y       z     vdW  Elec       q    Type
REMARK                         _______ _______ _______ _____ _____    ______ ____
ROOT
ATOM      1  O   UNL     1     103.869 125.352 147.801  0.00  0.00    +0.000 OA
ATOM      2  O   UNL     1     105.370 123.869 146.508  0.00  0.00    +0.000 OA
ATOM      3  O   UNL     1     104.242 123.185 145.926  0.00  0.00    +0.000 OA
ATOM      4  O   UNL     1     101.542 124.019 146.667  0.00  0.00    +0.000 OA
ATOM      5  C   UNL     1     105.189 124.941 147.435  0.00  0.00    +0.000 C 
ATOM      6  C   UNL     1     104.688 125.435 147.866  0.00  0.00    +0.000 C 
ATOM      7  C   UNL     1     104.870 124.364 146.939  0.00  0.00    +0.000 C 
ATOM      8  C   UNL     1     104.053 124.280 146.873  0.00  0.00    +0.000 A 
ATOM      9  C   UNL     1     103.552 124.775 147.304  0.00  0.00    +0.000 A 
ATOM     10  C   UNL     1     103.733 123.675 146.353  0.00  0.00    +0.000 A 
ATOM     11  C   UNL     1     102.698 124.698 147.245  0.00  0.00    +0.000 A 
ATOM     12  C   UNL     1     102.882 123.584 146.281  0.00  0.00    +0.000 A 
ATOM     13  C   UNL     1     102.361 124.099 146.730  0.00  0.00    +0.000 A 
ENDROOT
BRANCH   5  15
ATOM     14  O   UNL     1     108.462 125.273 147.695  0.00  0.00    +0.000 OA
ATOM     15  C   UNL     1     106.006 125.024 147.500  0.00  0.00    +0.000 A 
ATOM     16  C   UNL     1     106.391 124.796 148.194  0.00  0.00    +0.000 A 
ATOM     17  C   UNL     1     106.440 125.335 146.872  0.00  0.00    +0.000 A 
ATOM     18  C   UNL     1     107.208 124.879 148.259  0.00  0.00    +0.000 A 
ATOM     19  C   UNL     1     107.259 125.419 146.937  0.00  0.00    +0.000 A 
ATOM     20  C   UNL     1     107.643 125.190 147.630  0.00  0.00    +0.000 A 
BRANCH  16  21
ATOM     21  O   UNL     1     105.957 124.484 148.822  0.00  0.00    +0.000 OA
ATOM     22  C   UNL     1     106.336 124.284 149.527  0.00  0.00    +0.000 C 
ENDBRANCH  16  21
ENDBRANCH   5  15
TORSDOF 2
ENDMDL
MODEL 2
REMARK VINA RESULT:      -8.2     11.770     13.483
REMARK  Name = 156743
REMARK  2 active torsions:
REMARK  status: ('A' for Active; 'I' for Inactive)
REMARK    1  A    between atoms: O_3  and  C_13
REMARK    2  A    between atoms: C_7  and  C_9
REMARK                            x       y       z     vdW  Elec       q    Type
REMARK                         _______ _______ _______ _____ _____    ______ ____
ROOT
ATOM      1  O   UNL     1     112.962 126.483 136.504  0.00  0.00    +0.000 OA
ATOM      2  O   UNL     1     111.538 124.482 136.200  0.00  0.00    +0.000 OA
ATOM      3  O   UNL     1     112.587 123.624 136.695  0.00  0.00    +0.000 OA
ATOM      4  O   UNL     1     115.125 124.815 137.513  0.00  0.00    +0.000 OA
ATOM      5  C   UNL     1     111.721 125.895 136.105  0.00  0.00    +0.000 C 
ATOM      6  C   UNL     1     112.196 126.562 136.206  0.00  0.00    +0.000 C 
ATOM      7  C   UNL     1     112.013 125.149 136.302  0.00  0.00    +0.000 C 
ATOM      8  C   UNL     1     112.777 125.069 136.599  0.00  0.00    +0.000 A 
ATOM      9  C   UNL     1     113.252 125.736 136.700  0.00  0.00    +0.000 A 
ATOM     10  C   UNL     1     113.069 124.286 136.800  0.00  0.00    +0.000 A 
ATOM     11  C   UNL     1     114.051 125.666 137.010  0.00  0.00    +0.000 A 
ATOM     12  C   UNL     1     113.865 124.196 137.110  0.00  0.00    +0.000 A 
ATOM     13  C   UNL     1     114.359 124.891 137.216  0.00  0.00    +0.000 A 
ENDROOT
BRANCH   5  15
ATOM     14  O   UNL     1     108.660 126.214 134.913  0.00  0.00    +0.000 OA
ATOM     15  C   UNL     1     110.957 125.975 135.807  0.00  0.00    +0.000 A 
ATOM     16  C   UNL     1     110.357 126.282 136.285  0.00  0.00    +0.000 A 
ATOM     17  C   UNL     1     110.790 125.748 135.032  0.00  0.00    +0.000 A 
ATOM     18  C   UNL     1     109.593 126.361 135.987  0.00  0.00    +0.000 A 
ATOM     19  C   UNL     1     110.024 125.828 134.734  0.00  0.00    +0.000 A 
ATOM     20  C   UNL     1     109.426 126.134 135.212  0.00  0.00    +0.000 A 
BRANCH  16  21
ATOM     21  O   UNL     1     110.524 126.509 137.060  0.00  0.00    +0.000 OA
ATOM     22  C   UNL     1     109.926 126.816 137.538  0.00  0.00    +0.000 C 
ENDBRANCH  16  21
ENDBRANCH   5  15
TORSDOF 2
ENDMDL
MODEL 3
REMARK VINA RESULT:      -8.1      0.599      4.090
REMARK  Name = 156743
REMARK  2 active torsions:
REMARK  status: ('A' for Active; 'I' for Inactive)
REMARK    1  A    between atoms: O_3  and  C_13
REMARK    2  A    between atoms: C_7  and  C_9
REMARK                            x       y       z     vdW  Elec       q    Type
REMARK                         _______ _______ _______ _____ _____    ______ ____
ROOT
ATOM      1  O   UNL     1     105.832 125.199 146.133  0.00  0.00    +0.000 OA
ATOM      2  O   UNL     1     104.760 124.279 148.165  0.00  0.00    +0.000 OA
ATOM      3  O   UNL     1     105.999 124.372 148.897  0.00  0.00    +0.000 OA
ATOM      4  O   UNL     1     108.369 125.417 147.546  0.00  0.00    +0.000 OA
ATOM      5  C   UNL     1     104.675 124.687 146.799  0.00  0.00    +0.000 C 
ATOM      6  C   UNL     1     105.032 124.994 146.121  0.00  0.00    +0.000 C 
ATOM      7  C   UNL     1     105.117 124.586 147.488  0.00  0.00    +0.000 C 
ATOM      8  C   UNL     1     105.916 124.790 147.500  0.00  0.00    +0.000 A 
ATOM      9  C   UNL     1     106.273 125.097 146.823  0.00  0.00    +0.000 A 
ATOM     10  C   UNL     1     106.366 124.680 148.224  0.00  0.00    +0.000 A 
ATOM     11  C   UNL     1     107.105 125.314 146.823  0.00  0.00    +0.000 A 
ATOM     12  C   UNL     1     107.198 124.891 148.243  0.00  0.00    +0.000 A 
ATOM     13  C   UNL     1     107.570 125.211 147.538  0.00  0.00    +0.000 A 
ENDROOT
BRANCH   5  15
ATOM     14  O   UNL     1     101.479 123.868 146.750  0.00  0.00    +0.000 OA
ATOM     15  C   UNL     1     103.877 124.483 146.786  0.00  0.00    +0.000 A 
ATOM     16  C   UNL     1     103.626 123.822 146.360  0.00  0.00    +0.000 A 
ATOM     17  C   UNL     1     103.328 124.938 147.201  0.00  0.00    +0.000 A 
ATOM     18  C   UNL     1     102.827 123.617 146.348  0.00  0.00    +0.000 A 
ATOM     19  C   UNL     1     102.528 124.734 147.189  0.00  0.00    +0.000 A 
ATOM     20  C   UNL     1     102.278 124.073 146.762  0.00  0.00    +0.000 A 
BRANCH  16  21
ATOM     21  O   UNL     1     104.175 123.366 145.946  0.00  0.00    +0.000 OA
ATOM     22  C   UNL     1     103.919 122.739 145.475  0.00  0.00    +0.000 C 
ENDBRANCH  16  21
ENDBRANCH   5  15
TORSDOF 2
ENDMDL
MODEL 4
REMARK VINA RESULT:      -7.9     12.025     13.225
REMARK  Name = 156743
REMARK  2 active torsions:
REMARK  status: ('A' for Active; 'I' for Inactive)
REMARK    1  A    between atoms: O_3  and  C_13
REMARK    2  A    between atoms: C_7  and  C_9
REMARK                            x       y       z     vdW  Elec       q    Type
REMARK                         _______ _______ _______ _____ _____    ______ ____
ROOT
ATOM      1  O   UNL     1     111.972 127.390 136.001  0.00  0.00    +0.000 OA
ATOM      2  O   UNL     1     112.027 124.924 136.208  0.00  0.00    +0.000 OA
ATOM      3  O   UNL     1     110.751 124.811 135.545  0.00  0.00    +0.000 OA
ATOM      4  O   UNL     1     109.394 127.240 134.657  0.00  0.00    +0.000 OA
ATOM      5  C   UNL     1     112.633 126.198 136.434  0.00  0.00    +0.000 C 
ATOM      6  C   UNL     1     112.614 127.020 136.366  0.00  0.00    +0.000 C 
ATOM      7  C   UNL     1     112.009 125.746 136.139  0.00  0.00    +0.000 C 
ATOM      8  C   UNL     1     111.368 126.115 135.775  0.00  0.00    +0.000 A 
ATOM      9  C   UNL     1     111.349 126.937 135.706  0.00  0.00    +0.000 A 
ATOM     10  C   UNL     1     110.724 125.632 135.472  0.00  0.00    +0.000 A 
ATOM     11  C   UNL     1     110.686 127.333 135.329  0.00  0.00    +0.000 A 
ATOM     12  C   UNL     1     110.053 126.011 135.092  0.00  0.00    +0.000 A 
ATOM     13  C   UNL     1     110.034 126.867 135.020  0.00  0.00    +0.000 A 
ENDROOT
BRANCH   5  15
ATOM     14  O   UNL     1     115.200 124.722 137.890  0.00  0.00    +0.000 OA
ATOM     15  C   UNL     1     113.274 125.830 136.798  0.00  0.00    +0.000 A 
ATOM     16  C   UNL     1     113.370 125.879 137.616  0.00  0.00    +0.000 A 
ATOM     17  C   UNL     1     113.821 125.410 136.344  0.00  0.00    +0.000 A 
ATOM     18  C   UNL     1     114.011 125.511 137.980  0.00  0.00    +0.000 A 
ATOM     19  C   UNL     1     114.463 125.041 136.708  0.00  0.00    +0.000 A 
ATOM     20  C   UNL     1     114.558 125.091 137.526  0.00  0.00    +0.000 A 
BRANCH  16  21
ATOM     21  O   UNL     1     112.824 126.299 138.070  0.00  0.00    +0.000 OA
ATOM     22  C   UNL     1     112.928 126.363 138.886  0.00  0.00    +0.000 C 
ENDBRANCH  16  21
ENDBRANCH   5  15
TORSDOF 2
ENDMDL
MODEL 5
REMARK VINA RESULT:      -7.9      1.112      4.063
REMARK  Name = 156743
REMARK  2 active torsions:
REMARK  status: ('A' for Active; 'I' for Inactive)
REMARK    1  A    between atoms: O_3  and  C_13
REMARK    2  A    between atoms: C_7  and  C_9
REMARK                            x       y       z     vdW  Elec       q    Type
REMARK                         _______ _______ _______ _____ _____    ______ ____
ROOT
ATOM      1  O   UNL     1     105.005 124.410 147.723  0.00  0.00    +0.000 OA
ATOM      2  O   UNL     1     103.927 124.605 145.504  0.00  0.00    +0.000 OA
ATOM      3  O   UNL     1     105.140 125.132 144.928  0.00  0.00    +0.000 OA
ATOM      4  O   UNL     1     107.489 125.468 146.631  0.00  0.00    +0.000 OA
ATOM      5  C   UNL     1     103.858 124.248 146.885  0.00  0.00    +0.000 C 
ATOM      6  C   UNL     1     104.217 124.183 147.625  0.00  0.00    +0.000 C 
ATOM      7  C   UNL     1     104.286 124.540 146.243  0.00  0.00    +0.000 C 
ATOM      8  C   UNL     1     105.072 124.767 146.341  0.00  0.00    +0.000 A 
ATOM      9  C   UNL     1     105.432 124.703 147.081  0.00  0.00    +0.000 A 
ATOM     10  C   UNL     1     105.508 125.071 145.664  0.00  0.00    +0.000 A 
ATOM     11  C   UNL     1     106.251 124.936 147.195  0.00  0.00    +0.000 A 
ATOM     12  C   UNL     1     106.327 125.309 145.760  0.00  0.00    +0.000 A 
ATOM     13  C   UNL     1     106.702 125.241 146.530  0.00  0.00    +0.000 A 
ENDROOT
BRANCH   5  15
ATOM     14  O   UNL     1     100.710 123.337 146.495  0.00  0.00    +0.000 OA
ATOM     15  C   UNL     1     103.072 124.020 146.788  0.00  0.00    +0.000 A 
ATOM     16  C   UNL     1     102.467 124.462 147.136  0.00  0.00    +0.000 A 
ATOM     17  C   UNL     1     102.888 123.350 146.343  0.00  0.00    +0.000 A 
ATOM     18  C   UNL     1     101.681 124.235 147.038  0.00  0.00    +0.000 A 
ATOM     19  C   UNL     1     102.101 123.122 146.245  0.00  0.00    +0.000 A 
ATOM     20  C   UNL     1     101.498 123.565 146.593  0.00  0.00    +0.000 A 
BRANCH  16  21
ATOM     21  O   UNL     1     102.651 125.132 147.581  0.00  0.00    +0.000 OA
ATOM     22  C   UNL     1     102.053 125.543 147.974  0.00  0.00    +0.000 C 
ENDBRANCH  16  21
ENDBRANCH   5  15
TORSDOF 2
ENDMDL
MODEL 6
REMARK VINA RESULT:      -7.8     11.669     13.025
REMARK  Name = 156743
REMARK  2 active torsions:
REMARK  status: ('A' for Active; 'I' for Inactive)
REMARK    1  A    between atoms: O_3  and  C_13
REMARK    2  A    between atoms: C_7  and  C_9
REMARK                            x       y       z     vdW  Elec       q    Type
REMARK                         _______ _______ _______ _____ _____    ______ ____
ROOT
ATOM      1  O   UNL     1     110.927 125.126 135.297  0.00  0.00    +0.000 OA
ATOM      2  O   UNL     1     110.309 126.465 137.284  0.00  0.00    +0.000 OA
ATOM      3  O   UNL     1     111.029 125.564 138.151  0.00  0.00    +0.000 OA
ATOM      4  O   UNL     1     112.400 123.264 136.984  0.00  0.00    +0.000 OA
ATOM      5  C   UNL     1     110.257 126.250 135.873  0.00  0.00    +0.000 C 
ATOM      6  C   UNL     1     110.463 125.804 135.210  0.00  0.00    +0.000 C 
ATOM      7  C   UNL     1     110.515 126.019 136.622  0.00  0.00    +0.000 C 
ATOM      8  C   UNL     1     110.978 125.342 136.708  0.00  0.00    +0.000 A 
ATOM      9  C   UNL     1     111.184 124.896 136.046  0.00  0.00    +0.000 A 
ATOM     10  C   UNL     1     111.240 125.112 137.494  0.00  0.00    +0.000 A 
ATOM     11  C   UNL     1     111.666 124.188 136.123  0.00  0.00    +0.000 A 
ATOM     12  C   UNL     1     111.722 124.408 137.591  0.00  0.00    +0.000 A 
ATOM     13  C   UNL     1     111.936 123.943 136.901  0.00  0.00    +0.000 A 
ENDROOT
BRANCH   5  15
ATOM     14  O   UNL     1     108.405 128.959 135.525  0.00  0.00    +0.000 OA
ATOM     15  C   UNL     1     109.795 126.927 135.786  0.00  0.00    +0.000 A 
ATOM     16  C   UNL     1     110.120 127.611 135.458  0.00  0.00    +0.000 A 
ATOM     17  C   UNL     1     109.006 126.921 136.027  0.00  0.00    +0.000 A 
ATOM     18  C   UNL     1     109.657 128.287 135.371  0.00  0.00    +0.000 A 
ATOM     19  C   UNL     1     108.542 127.598 135.940  0.00  0.00    +0.000 A 
ATOM     20  C   UNL     1     108.868 128.281 135.612  0.00  0.00    +0.000 A 
BRANCH  16  21
ATOM     21  O   UNL     1     110.909 127.617 135.216  0.00  0.00    +0.000 OA
ATOM     22  C   UNL     1     111.230 128.294 134.871  0.00  0.00    +0.000 C 
ENDBRANCH  16  21
ENDBRANCH   5  15
TORSDOF 2
ENDMDL
MODEL 7
REMARK VINA RESULT:      -7.7      8.203      9.148
REMARK  Name = 156743
REMARK  2 active torsions:
REMARK  status: ('A' for Active; 'I' for Inactive)
REMARK    1  A    between atoms: O_3  and  C_13
REMARK    2  A    between atoms: C_7  and  C_9
REMARK                            x       y       z     vdW  Elec       q    Type
REMARK                         _______ _______ _______ _____ _____    ______ ____
ROOT
ATOM      1  O   UNL     1     103.133 129.591 140.688  0.00  0.00    +0.000 OA
ATOM      2  O   UNL     1     103.063 130.724 142.887  0.00  0.00    +0.000 OA
ATOM      3  O   UNL     1     103.930 129.724 143.462  0.00  0.00    +0.000 OA
ATOM      4  O   UNL     1     104.885 127.537 141.779  0.00  0.00    +0.000 OA
ATOM      5  C   UNL     1     102.668 130.659 141.515  0.00  0.00    +0.000 C 
ATOM      6  C   UNL     1     102.691 130.282 140.782  0.00  0.00    +0.000 C 
ATOM      7  C   UNL     1     103.087 130.346 142.154  0.00  0.00    +0.000 C 
ATOM      8  C   UNL     1     103.528 129.656 142.060  0.00  0.00    +0.000 A 
ATOM      9  C   UNL     1     103.551 129.278 141.326  0.00  0.00    +0.000 A 
ATOM     10  C   UNL     1     103.959 129.340 142.732  0.00  0.00    +0.000 A 
ATOM     11  C   UNL     1     104.007 128.558 141.216  0.00  0.00    +0.000 A 
ATOM     12  C   UNL     1     104.421 128.621 142.640  0.00  0.00    +0.000 A 
ATOM     13  C   UNL     1     104.445 128.228 141.877  0.00  0.00    +0.000 A 
ENDROOT
BRANCH   5  15
ATOM     14  O   UNL     1     100.902 133.421 141.893  0.00  0.00    +0.000 OA
ATOM     15  C   UNL     1     102.227 131.349 141.610  0.00  0.00    +0.000 A 
ATOM     16  C   UNL     1     102.514 132.066 141.318  0.00  0.00    +0.000 A 
ATOM     17  C   UNL     1     101.498 131.324 141.995  0.00  0.00    +0.000 A 
ATOM     18  C   UNL     1     102.072 132.756 141.413  0.00  0.00    +0.000 A 
ATOM     19  C   UNL     1     101.056 132.014 142.090  0.00  0.00    +0.000 A 
ATOM     20  C   UNL     1     101.344 132.730 141.798  0.00  0.00    +0.000 A 
BRANCH  16  21
ATOM     21  O   UNL     1     103.242 132.092 140.932  0.00  0.00    +0.000 OA
ATOM     22  C   UNL     1     103.524 132.806 140.629  0.00  0.00    +0.000 C 
ENDBRANCH  16  21
ENDBRANCH   5  15
TORSDOF 2
ENDMDL
MODEL 8
REMARK VINA RESULT:      -7.7      1.883      3.920
REMARK  Name = 156743
REMARK  2 active torsions:
REMARK  status: ('A' for Active; 'I' for Inactive)
REMARK    1  A    between atoms: O_3  and  C_13
REMARK    2  A    between atoms: C_7  and  C_9
REMARK                            x       y       z     vdW  Elec       q    Type
REMARK                         _______ _______ _______ _____ _____    ______ ____
ROOT
ATOM      1  O   UNL     1     105.518 124.800 147.432  0.00  0.00    +0.000 OA
ATOM      2  O   UNL     1     107.397 125.917 146.270  0.00  0.00    +0.000 OA
ATOM      3  O   UNL     1     108.306 125.554 147.330  0.00  0.00    +0.000 OA
ATOM      4  O   UNL     1     107.294 124.032 149.608  0.00  0.00    +0.000 OA
ATOM      5  C   UNL     1     106.018 125.545 146.319  0.00  0.00    +0.000 C 
ATOM      6  C   UNL     1     105.392 125.172 146.706  0.00  0.00    +0.000 C 
ATOM      7  C   UNL     1     106.771 125.544 146.657  0.00  0.00    +0.000 C 
ATOM      8  C   UNL     1     106.897 125.172 147.382  0.00  0.00    +0.000 A 
ATOM      9  C   UNL     1     106.271 124.800 147.769  0.00  0.00    +0.000 A 
ATOM     10  C   UNL     1     107.686 125.179 147.724  0.00  0.00    +0.000 A 
ATOM     11  C   UNL     1     106.390 124.409 148.526  0.00  0.00    +0.000 A 
ATOM     12  C   UNL     1     107.823 124.793 148.479  0.00  0.00    +0.000 A 
ATOM     13  C   UNL     1     107.171 124.406 148.883  0.00  0.00    +0.000 A 
ENDROOT
BRANCH   5  15
ATOM     14  O   UNL     1     105.512 127.034 143.418  0.00  0.00    +0.000 OA
ATOM     15  C   UNL     1     105.892 125.916 145.594  0.00  0.00    +0.000 A 
ATOM     16  C   UNL     1     105.774 125.465 144.913  0.00  0.00    +0.000 A 
ATOM     17  C   UNL     1     105.883 126.740 145.549  0.00  0.00    +0.000 A 
ATOM     18  C   UNL     1     105.648 125.837 144.188  0.00  0.00    +0.000 A 
ATOM     19  C   UNL     1     105.756 127.113 144.823  0.00  0.00    +0.000 A 
ATOM     20  C   UNL     1     105.639 126.661 144.143  0.00  0.00    +0.000 A 
BRANCH  16  21
ATOM     21  O   UNL     1     105.783 124.642 144.958  0.00  0.00    +0.000 OA
ATOM     22  C   UNL     1     105.582 124.190 144.297  0.00  0.00    +0.000 C 
ENDBRANCH  16  21
ENDBRANCH   5  15
TORSDOF 2
ENDMDL
MODEL 9
REMARK VINA RESULT:      -7.7      2.258      2.822
REMARK  Name = 156743
REMARK  2 active torsions:
REMARK  status: ('A' for Active; 'I' for Inactive)
REMARK    1  A    between atoms: O_3  and  C_13
REMARK    2  A    between atoms: C_7  and  C_9
REMARK                            x       y       z     vdW  Elec       q    Type
REMARK                         _______ _______ _______ _____ _____    ______ ____
ROOT
ATOM      1  O   UNL     1     106.148 126.977 146.434  0.00  0.00    +0.000 OA
ATOM      2  O   UNL     1     106.803 124.599 146.224  0.00  0.00    +0.000 OA
ATOM      3  O   UNL     1     106.398 124.580 144.839  0.00  0.00    +0.000 OA
ATOM      4  O   UNL     1     105.309 127.014 143.646  0.00  0.00    +0.000 OA
ATOM      5  C   UNL     1     106.680 125.783 147.014  0.00  0.00    +0.000 C 
ATOM      6  C   UNL     1     106.462 126.576 147.084  0.00  0.00    +0.000 C 
ATOM      7  C   UNL     1     106.584 125.392 146.294  0.00  0.00    +0.000 C 
ATOM      8  C   UNL     1     106.271 125.792 145.645  0.00  0.00    +0.000 A 
ATOM      9  C   UNL     1     106.053 126.584 145.715  0.00  0.00    +0.000 A 
ATOM     10  C   UNL     1     106.177 125.373 144.900  0.00  0.00    +0.000 A 
ATOM     11  C   UNL     1     105.725 127.012 145.045  0.00  0.00    +0.000 A 
ATOM     12  C   UNL     1     105.851 125.784 144.220  0.00  0.00    +0.000 A 
ATOM     13  C   UNL     1     105.623 126.610 144.293  0.00  0.00    +0.000 A 
ENDROOT
BRANCH   5  15
ATOM     14  O   UNL     1     107.935 124.181 149.612  0.00  0.00    +0.000 OA
ATOM     15  C   UNL     1     106.993 125.383 147.663  0.00  0.00    +0.000 A 
ATOM     16  C   UNL     1     106.501 125.153 148.284  0.00  0.00    +0.000 A 
ATOM     17  C   UNL     1     107.800 125.212 147.692  0.00  0.00    +0.000 A 
ATOM     18  C   UNL     1     106.814 124.753 148.933  0.00  0.00    +0.000 A 
ATOM     19  C   UNL     1     108.114 124.811 148.342  0.00  0.00    +0.000 A 
ATOM     20  C   UNL     1     107.621 124.582 148.962  0.00  0.00    +0.000 A 
BRANCH  16  21
ATOM     21  O   UNL     1     105.694 125.324 148.255  0.00  0.00    +0.000 OA
ATOM     22  C   UNL     1     105.204 125.110 148.883  0.00  0.00    +0.000 C 
ENDBRANCH  16  21
ENDBRANCH   5  15
TORSDOF 2
ENDMDL
MODEL 10
REMARK VINA RESULT:      -7.5     12.585     13.712
REMARK  Name = 156743
REMARK  2 active torsions:
REMARK  status: ('A' for Active; 'I' for Inactive)
REMARK    1  A    between atoms: O_3  and  C_13
REMARK    2  A    between atoms: C_7  and  C_9
REMARK                            x       y       z     vdW  Elec       q    Type
REMARK                         _______ _______ _______ _____ _____    ______ ____
ROOT
ATOM      1  O   UNL     1     111.758 126.110 136.421  0.00  0.00    +0.000 OA
ATOM      2  O   UNL     1     114.198 126.434 136.678  0.00  0.00    +0.000 OA
ATOM      3  O   UNL     1     114.398 125.016 136.851  0.00  0.00    +0.000 OA
ATOM      4  O   UNL     1     112.084 123.236 136.762  0.00  0.00    +0.000 OA
ATOM      5  C   UNL     1     112.894 126.977 136.465  0.00  0.00    +0.000 C 
ATOM      6  C   UNL     1     112.080 126.869 136.379  0.00  0.00    +0.000 C 
ATOM      7  C   UNL     1     113.385 126.326 136.592  0.00  0.00    +0.000 C 
ATOM      8  C   UNL     1     113.063 125.568 136.633  0.00  0.00    +0.000 A 
ATOM      9  C   UNL     1     112.250 125.460 136.548  0.00  0.00    +0.000 A 
ATOM     10  C   UNL     1     113.586 124.898 136.766  0.00  0.00    +0.000 A 
ATOM     11  C   UNL     1     111.903 124.674 136.589  0.00  0.00    +0.000 A 
ATOM     12  C   UNL     1     113.256 124.106 136.810  0.00  0.00    +0.000 A 
ATOM     13  C   UNL     1     112.409 123.994 136.721  0.00  0.00    +0.000 A 
ENDROOT
BRANCH   5  15
ATOM     14  O   UNL     1     114.181 130.011 136.298  0.00  0.00    +0.000 OA
ATOM     15  C   UNL     1     113.215 127.735 136.423  0.00  0.00    +0.000 A 
ATOM     16  C   UNL     1     113.100 128.267 137.043  0.00  0.00    +0.000 A 
ATOM     17  C   UNL     1     113.653 127.961 135.762  0.00  0.00    +0.000 A 
ATOM     18  C   UNL     1     113.422 129.025 137.002  0.00  0.00    +0.000 A 
ATOM     19  C   UNL     1     113.975 128.721 135.720  0.00  0.00    +0.000 A 
ATOM     20  C   UNL     1     113.859 129.252 136.340  0.00  0.00    +0.000 A 
BRANCH  16  21
ATOM     21  O   UNL     1     112.663 128.040 137.705  0.00  0.00    +0.000 OA
ATOM     22  C   UNL     1     112.541 128.574 138.322  0.00  0.00    +0.000 C 
ENDBRANCH  16  21
ENDBRANCH   5  15
TORSDOF 2
ENDMDL
