MODEL 1
REMARK VINA RESULT:      -9.0      0.000      0.000
REMARK  Name = 14482998
REMARK  5 active torsions:
REMARK  status: ('A' for Active; 'I' for Inactive)
REMARK    1  A    between atoms: O_2  and  C_14
REMARK    2  A    between atoms: O_6  and  C_25
REMARK    3  A    between atoms: C_7  and  C_9
REMARK    4  A    between atoms: C_8  and  C_10
REMARK    5  A    between atoms: C_8  and  C_21
REMARK                            x       y       z     vdW  Elec       q    Type
REMARK                         _______ _______ _______ _____ _____    ______ ____
ROOT
ATOM      1  O   UNL     1     103.182 124.881 147.134  0.00  0.00    +0.000 OA
ATOM      2  O   UNL     1     105.212 123.865 146.147  0.00  0.00    +0.000 OA
ATOM      3  O   UNL     1     104.435 122.789 145.584  0.00  0.00    +0.000 OA
ATOM      4  C   UNL     1     104.594 124.901 146.915  0.00  0.00    +0.000 C 
ATOM      5  C   UNL     1     103.918 125.239 147.243  0.00  0.00    +0.000 C 
ATOM      6  C   UNL     1     104.535 124.204 146.476  0.00  0.00    +0.000 C 
ATOM      7  C   UNL     1     103.801 123.846 146.367  0.00  0.00    +0.000 A 
ATOM      8  C   UNL     1     103.124 124.184 146.696  0.00  0.00    +0.000 A 
ATOM      9  C   UNL     1     103.753 123.120 145.909  0.00  0.00    +0.000 A 
ATOM     10  C   UNL     1     102.352 123.820 146.589  0.00  0.00    +0.000 A 
ATOM     11  C   UNL     1     102.990 122.743 145.792  0.00  0.00    +0.000 A 
ATOM     12  C   UNL     1     102.285 123.095 146.134  0.00  0.00    +0.000 A 
ENDROOT
BRANCH   4  14
ATOM     13  O   UNL     1     107.535 126.334 147.352  0.00  0.00    +0.000 OA
ATOM     14  C   UNL     1     105.329 125.259 147.024  0.00  0.00    +0.000 A 
ATOM     15  C   UNL     1     106.573 125.344 147.723  0.00  0.00    +0.000 A 
ATOM     16  C   UNL     1     105.837 124.985 147.613  0.00  0.00    +0.000 A 
ATOM     17  C   UNL     1     105.556 125.890 146.544  0.00  0.00    +0.000 A 
ATOM     18  C   UNL     1     106.799 125.975 147.243  0.00  0.00    +0.000 A 
ATOM     19  C   UNL     1     106.291 126.249 146.653  0.00  0.00    +0.000 A 
BRANCH  15  20
ATOM     20  C   UNL     1     107.081 125.071 148.312  0.00  0.00    +0.000 C 
ATOM     21  C   UNL     1     107.555 124.715 147.738  0.00  0.00    +0.000 C 
ATOM     22  C   UNL     1     106.607 125.426 148.886  0.00  0.00    +0.000 C 
BRANCH  20  23
ATOM     23  C   UNL     1     107.590 124.797 148.902  0.00  0.00    +0.000 C 
ATOM     24  C   UNL     1     107.352 124.185 149.400  0.00  0.00    +0.000 C 
ENDBRANCH  20  23
ENDBRANCH  15  20
BRANCH  17  25
ATOM     25  O   UNL     1     105.048 126.164 145.954  0.00  0.00    +0.000 OA
ATOM     26  C   UNL     1     105.247 126.832 145.515  0.00  0.00    +0.000 C 
ENDBRANCH  17  25
ENDBRANCH   4  14
BRANCH  12  27
ATOM     27  O   UNL     1     101.549 122.739 146.027  0.00  0.00    +0.000 OA
ATOM     28  C   UNL     1     100.981 123.102 145.550  0.00  0.00    +0.000 C 
ENDBRANCH  12  27
TORSDOF 5
ENDMDL
MODEL 2
REMARK VINA RESULT:      -8.2     10.869     12.758
REMARK  Name = 14482998
REMARK  5 active torsions:
REMARK  status: ('A' for Active; 'I' for Inactive)
REMARK    1  A    between atoms: O_2  and  C_14
REMARK    2  A    between atoms: O_6  and  C_25
REMARK    3  A    between atoms: C_7  and  C_9
REMARK    4  A    between atoms: C_8  and  C_10
REMARK    5  A    between atoms: C_8  and  C_21
REMARK                            x       y       z     vdW  Elec       q    Type
REMARK                         _______ _______ _______ _____ _____    ______ ____
ROOT
ATOM      1  O   UNL     1     112.818 128.501 138.794  0.00  0.00    +0.000 OA
ATOM      2  O   UNL     1     113.866 126.439 139.674  0.00  0.00    +0.000 OA
ATOM      3  O   UNL     1     114.378 127.153 140.818  0.00  0.00    +0.000 OA
ATOM      4  C   UNL     1     113.094 127.104 138.672  0.00  0.00    +0.000 C 
ATOM      5  C   UNL     1     112.745 127.791 138.378  0.00  0.00    +0.000 C 
ATOM      6  C   UNL     1     113.517 127.127 139.380  0.00  0.00    +0.000 C 
ATOM      7  C   UNL     1     113.590 127.835 139.795  0.00  0.00    +0.000 A 
ATOM      8  C   UNL     1     113.240 128.523 139.502  0.00  0.00    +0.000 A 
ATOM      9  C   UNL     1     114.032 127.845 140.532  0.00  0.00    +0.000 A 
ATOM     10  C   UNL     1     113.310 129.268 139.925  0.00  0.00    +0.000 A 
ATOM     11  C   UNL     1     114.112 128.581 140.969  0.00  0.00    +0.000 A 
ATOM     12  C   UNL     1     113.748 129.297 140.663  0.00  0.00    +0.000 A 
ENDROOT
BRANCH   4  14
ATOM     13  O   UNL     1     112.802 124.267 137.011  0.00  0.00    +0.000 OA
ATOM     14  C   UNL     1     113.021 126.395 138.257  0.00  0.00    +0.000 A 
ATOM     15  C   UNL     1     113.567 125.422 137.364  0.00  0.00    +0.000 A 
ATOM     16  C   UNL     1     113.640 126.131 137.780  0.00  0.00    +0.000 A 
ATOM     17  C   UNL     1     112.329 125.950 138.319  0.00  0.00    +0.000 A 
ATOM     18  C   UNL     1     112.875 124.977 137.426  0.00  0.00    +0.000 A 
ATOM     19  C   UNL     1     112.256 125.241 137.904  0.00  0.00    +0.000 A 
BRANCH  15  20
ATOM     20  C   UNL     1     114.186 125.157 136.887  0.00  0.00    +0.000 C 
ATOM     21  C   UNL     1     114.466 124.692 137.508  0.00  0.00    +0.000 C 
ATOM     22  C   UNL     1     113.906 125.623 136.266  0.00  0.00    +0.000 C 
BRANCH  20  23
ATOM     23  C   UNL     1     114.805 124.893 136.409  0.00  0.00    +0.000 C 
ATOM     24  C   UNL     1     115.269 125.437 135.999  0.00  0.00    +0.000 C 
ENDBRANCH  20  23
ENDBRANCH  15  20
BRANCH  17  25
ATOM     25  O   UNL     1     111.710 126.214 138.796  0.00  0.00    +0.000 OA
ATOM     26  C   UNL     1     110.991 125.811 138.799  0.00  0.00    +0.000 C 
ENDBRANCH  17  25
ENDBRANCH   4  14
BRANCH  12  27
ATOM     27  O   UNL     1     113.820 130.007 141.076  0.00  0.00    +0.000 OA
ATOM     28  C   UNL     1     114.436 130.526 140.900  0.00  0.00    +0.000 C 
ENDBRANCH  12  27
TORSDOF 5
ENDMDL
MODEL 3
REMARK VINA RESULT:      -8.1     12.106     13.257
REMARK  Name = 14482998
REMARK  5 active torsions:
REMARK  status: ('A' for Active; 'I' for Inactive)
REMARK    1  A    between atoms: O_2  and  C_14
REMARK    2  A    between atoms: O_6  and  C_25
REMARK    3  A    between atoms: C_7  and  C_9
REMARK    4  A    between atoms: C_8  and  C_10
REMARK    5  A    between atoms: C_8  and  C_21
REMARK                            x       y       z     vdW  Elec       q    Type
REMARK                         _______ _______ _______ _____ _____    ______ ____
ROOT
ATOM      1  O   UNL     1     111.961 128.307 135.422  0.00  0.00    +0.000 OA
ATOM      2  O   UNL     1     111.313 127.110 137.489  0.00  0.00    +0.000 OA
ATOM      3  O   UNL     1     111.027 128.357 138.156  0.00  0.00    +0.000 OA
ATOM      4  C   UNL     1     111.775 127.084 136.137  0.00  0.00    +0.000 C 
ATOM      5  C   UNL     1     111.991 127.482 135.448  0.00  0.00    +0.000 C 
ATOM      6  C   UNL     1     111.529 127.509 136.800  0.00  0.00    +0.000 C 
ATOM      7  C   UNL     1     111.499 128.333 136.774  0.00  0.00    +0.000 A 
ATOM      8  C   UNL     1     111.715 128.732 136.085  0.00  0.00    +0.000 A 
ATOM      9  C   UNL     1     111.241 128.765 137.471  0.00  0.00    +0.000 A 
ATOM     10  C   UNL     1     111.688 129.590 136.045  0.00  0.00    +0.000 A 
ATOM     11  C   UNL     1     111.208 129.623 137.450  0.00  0.00    +0.000 A 
ATOM     12  C   UNL     1     111.433 130.038 136.733  0.00  0.00    +0.000 A 
ENDROOT
BRANCH   4  14
ATOM     13  O   UNL     1     111.895 123.787 136.241  0.00  0.00    +0.000 OA
ATOM     14  C   UNL     1     111.805 126.260 136.163  0.00  0.00    +0.000 A 
ATOM     15  C   UNL     1     112.477 125.057 136.544  0.00  0.00    +0.000 A 
ATOM     16  C   UNL     1     112.446 125.882 136.518  0.00  0.00    +0.000 A 
ATOM     17  C   UNL     1     111.193 125.814 135.835  0.00  0.00    +0.000 A 
ATOM     18  C   UNL     1     111.865 124.612 136.215  0.00  0.00    +0.000 A 
ATOM     19  C   UNL     1     111.223 124.990 135.860  0.00  0.00    +0.000 A 
BRANCH  15  20
ATOM     20  C   UNL     1     113.118 124.679 136.899  0.00  0.00    +0.000 C 
ATOM     21  C   UNL     1     113.557 124.775 136.207  0.00  0.00    +0.000 C 
ATOM     22  C   UNL     1     112.679 124.583 137.591  0.00  0.00    +0.000 C 
BRANCH  20  23
ATOM     23  C   UNL     1     113.760 124.301 137.254  0.00  0.00    +0.000 C 
ATOM     24  C   UNL     1     114.494 124.674 137.282  0.00  0.00    +0.000 C 
ENDBRANCH  20  23
ENDBRANCH  15  20
BRANCH  17  25
ATOM     25  O   UNL     1     110.552 126.192 135.480  0.00  0.00    +0.000 OA
ATOM     26  C   UNL     1     109.980 125.750 135.083  0.00  0.00    +0.000 C 
ENDBRANCH  17  25
ENDBRANCH   4  14
BRANCH  12  27
ATOM     27  O   UNL     1     111.404 130.862 136.704  0.00  0.00    +0.000 OA
ATOM     28  C   UNL     1     112.037 131.307 136.989  0.00  0.00    +0.000 C 
ENDBRANCH  12  27
TORSDOF 5
ENDMDL
MODEL 4
REMARK VINA RESULT:      -8.1     10.785     12.759
REMARK  Name = 14482998
REMARK  5 active torsions:
REMARK  status: ('A' for Active; 'I' for Inactive)
REMARK    1  A    between atoms: O_2  and  C_14
REMARK    2  A    between atoms: O_6  and  C_25
REMARK    3  A    between atoms: C_7  and  C_9
REMARK    4  A    between atoms: C_8  and  C_10
REMARK    5  A    between atoms: C_8  and  C_21
REMARK                            x       y       z     vdW  Elec       q    Type
REMARK                         _______ _______ _______ _____ _____    ______ ____
ROOT
ATOM      1  O   UNL     1     113.499 126.284 137.746  0.00  0.00    +0.000 OA
ATOM      2  O   UNL     1     111.071 126.099 138.188  0.00  0.00    +0.000 OA
ATOM      3  O   UNL     1     111.271 126.408 139.582  0.00  0.00    +0.000 OA
ATOM      4  C   UNL     1     112.171 126.038 137.278  0.00  0.00    +0.000 C 
ATOM      5  C   UNL     1     112.980 126.099 137.131  0.00  0.00    +0.000 C 
ATOM      6  C   UNL     1     111.880 126.161 138.041  0.00  0.00    +0.000 C 
ATOM      7  C   UNL     1     112.398 126.346 138.655  0.00  0.00    +0.000 A 
ATOM      8  C   UNL     1     113.207 126.407 138.508  0.00  0.00    +0.000 A 
ATOM      9  C   UNL     1     112.082 126.472 139.445  0.00  0.00    +0.000 A 
ATOM     10  C   UNL     1     113.757 126.599 139.140  0.00  0.00    +0.000 A 
ATOM     11  C   UNL     1     112.617 126.665 140.089  0.00  0.00    +0.000 A 
ATOM     12  C   UNL     1     113.459 126.729 139.936  0.00  0.00    +0.000 A 
ENDROOT
BRANCH   4  14
ATOM     13  O   UNL     1     110.099 125.299 134.818  0.00  0.00    +0.000 OA
ATOM     14  C   UNL     1     111.653 125.853 136.664  0.00  0.00    +0.000 A 
ATOM     15  C   UNL     1     110.712 126.268 135.671  0.00  0.00    +0.000 A 
ATOM     16  C   UNL     1     111.231 126.452 136.286  0.00  0.00    +0.000 A 
ATOM     17  C   UNL     1     111.557 125.069 136.426  0.00  0.00    +0.000 A 
ATOM     18  C   UNL     1     110.617 125.483 135.434  0.00  0.00    +0.000 A 
ATOM     19  C   UNL     1     111.040 124.884 135.811  0.00  0.00    +0.000 A 
BRANCH  15  20
ATOM     20  C   UNL     1     110.290 126.867 135.293  0.00  0.00    +0.000 C 
ATOM     21  C   UNL     1     109.644 126.723 135.787  0.00  0.00    +0.000 C 
ATOM     22  C   UNL     1     110.935 127.012 134.800  0.00  0.00    +0.000 C 
BRANCH  20  23
ATOM     23  C   UNL     1     109.867 127.467 134.916  0.00  0.00    +0.000 C 
ATOM     24  C   UNL     1     110.069 128.256 135.042  0.00  0.00    +0.000 C 
ENDBRANCH  20  23
ENDBRANCH  15  20
BRANCH  17  25
ATOM     25  O   UNL     1     111.980 124.469 136.803  0.00  0.00    +0.000 OA
ATOM     26  C   UNL     1     111.929 123.692 136.530  0.00  0.00    +0.000 C 
ENDBRANCH  17  25
ENDBRANCH   4  14
BRANCH  12  27
ATOM     27  O   UNL     1     113.980 126.914 140.549  0.00  0.00    +0.000 OA
ATOM     28  C   UNL     1     114.139 127.702 140.731  0.00  0.00    +0.000 C 
ENDBRANCH  12  27
TORSDOF 5
ENDMDL
MODEL 5
REMARK VINA RESULT:      -8.0      1.777      4.477
REMARK  Name = 14482998
REMARK  5 active torsions:
REMARK  status: ('A' for Active; 'I' for Inactive)
REMARK    1  A    between atoms: O_2  and  C_14
REMARK    2  A    between atoms: O_6  and  C_25
REMARK    3  A    between atoms: C_7  and  C_9
REMARK    4  A    between atoms: C_8  and  C_10
REMARK    5  A    between atoms: C_8  and  C_21
REMARK                            x       y       z     vdW  Elec       q    Type
REMARK                         _______ _______ _______ _____ _____    ______ ____
ROOT
ATOM      1  O   UNL     1     104.643 126.311 146.378  0.00  0.00    +0.000 OA
ATOM      2  O   UNL     1     104.578 123.860 146.043  0.00  0.00    +0.000 OA
ATOM      3  O   UNL     1     105.675 123.929 145.109  0.00  0.00    +0.000 OA
ATOM      4  C   UNL     1     104.067 125.036 146.672  0.00  0.00    +0.000 C 
ATOM      5  C   UNL     1     104.088 125.854 146.783  0.00  0.00    +0.000 C 
ATOM      6  C   UNL     1     104.600 124.677 146.155  0.00  0.00    +0.000 C 
ATOM      7  C   UNL     1     105.154 125.134 145.750  0.00  0.00    +0.000 A 
ATOM      8  C   UNL     1     105.176 125.951 145.861  0.00  0.00    +0.000 A 
ATOM      9  C   UNL     1     105.704 124.747 145.214  0.00  0.00    +0.000 A 
ATOM     10  C   UNL     1     105.749 126.438 145.445  0.00  0.00    +0.000 A 
ATOM     11  C   UNL     1     106.283 125.218 144.789  0.00  0.00    +0.000 A 
ATOM     12  C   UNL     1     106.306 126.068 144.905  0.00  0.00    +0.000 A 
ENDROOT
BRANCH   4  14
ATOM     13  O   UNL     1     101.848 123.209 148.293  0.00  0.00    +0.000 OA
ATOM     14  C   UNL     1     103.513 124.580 147.077  0.00  0.00    +0.000 A 
ATOM     15  C   UNL     1     102.299 123.824 147.085  0.00  0.00    +0.000 A 
ATOM     16  C   UNL     1     102.854 124.282 146.679  0.00  0.00    +0.000 A 
ATOM     17  C   UNL     1     103.616 124.421 147.880  0.00  0.00    +0.000 A 
ATOM     18  C   UNL     1     102.403 123.666 147.888  0.00  0.00    +0.000 A 
ATOM     19  C   UNL     1     103.062 123.964 148.285  0.00  0.00    +0.000 A 
BRANCH  15  20
ATOM     20  C   UNL     1     101.640 123.526 146.687  0.00  0.00    +0.000 C 
ATOM     21  C   UNL     1     101.246 124.241 146.804  0.00  0.00    +0.000 C 
ATOM     22  C   UNL     1     102.035 122.811 146.570  0.00  0.00    +0.000 C 
BRANCH  20  23
ATOM     23  C   UNL     1     100.982 123.228 146.290  0.00  0.00    +0.000 C 
ATOM     24  C   UNL     1     101.005 123.128 145.472  0.00  0.00    +0.000 C 
ENDBRANCH  20  23
ENDBRANCH  15  20
BRANCH  17  25
ATOM     25  O   UNL     1     104.274 124.719 148.278  0.00  0.00    +0.000 OA
ATOM     26  C   UNL     1     104.336 124.634 149.096  0.00  0.00    +0.000 C 
ENDBRANCH  17  25
ENDBRANCH   4  14
BRANCH  12  27
ATOM     27  O   UNL     1     106.859 126.528 144.501  0.00  0.00    +0.000 OA
ATOM     28  C   UNL     1     106.672 126.844 143.763  0.00  0.00    +0.000 C 
ENDBRANCH  12  27
TORSDOF 5
ENDMDL
MODEL 6
REMARK VINA RESULT:      -8.0     12.619     14.056
REMARK  Name = 14482998
REMARK  5 active torsions:
REMARK  status: ('A' for Active; 'I' for Inactive)
REMARK    1  A    between atoms: O_2  and  C_14
REMARK    2  A    between atoms: O_6  and  C_25
REMARK    3  A    between atoms: C_7  and  C_9
REMARK    4  A    between atoms: C_8  and  C_10
REMARK    5  A    between atoms: C_8  and  C_21
REMARK                            x       y       z     vdW  Elec       q    Type
REMARK                         _______ _______ _______ _____ _____    ______ ____
ROOT
ATOM      1  O   UNL     1     112.491 128.940 137.512  0.00  0.00    +0.000 OA
ATOM      2  O   UNL     1     113.724 127.779 135.708  0.00  0.00    +0.000 OA
ATOM      3  O   UNL     1     114.440 128.987 135.379  0.00  0.00    +0.000 OA
ATOM      4  C   UNL     1     112.760 127.754 136.762  0.00  0.00    +0.000 C 
ATOM      5  C   UNL     1     112.349 128.141 137.363  0.00  0.00    +0.000 C 
ATOM      6  C   UNL     1     113.313 128.166 136.309  0.00  0.00    +0.000 C 
ATOM      7  C   UNL     1     113.455 128.964 136.458  0.00  0.00    +0.000 A 
ATOM      8  C   UNL     1     113.044 129.351 137.059  0.00  0.00    +0.000 A 
ATOM      9  C   UNL     1     114.034 129.382 135.979  0.00  0.00    +0.000 A 
ATOM     10  C   UNL     1     113.184 130.184 137.224  0.00  0.00    +0.000 A 
ATOM     11  C   UNL     1     114.186 130.214 136.129  0.00  0.00    +0.000 A 
ATOM     12  C   UNL     1     113.759 130.618 136.755  0.00  0.00    +0.000 A 
ENDROOT
BRANCH   4  14
ATOM     13  O   UNL     1     112.190 124.558 136.168  0.00  0.00    +0.000 OA
ATOM     14  C   UNL     1     112.617 126.955 136.613  0.00  0.00    +0.000 A 
ATOM     15  C   UNL     1     113.003 125.585 136.739  0.00  0.00    +0.000 A 
ATOM     16  C   UNL     1     113.146 126.384 136.887  0.00  0.00    +0.000 A 
ATOM     17  C   UNL     1     111.946 126.727 136.191  0.00  0.00    +0.000 A 
ATOM     18  C   UNL     1     112.332 125.357 136.317  0.00  0.00    +0.000 A 
ATOM     19  C   UNL     1     111.804 125.928 136.043  0.00  0.00    +0.000 A 
BRANCH  15  20
ATOM     20  C   UNL     1     113.532 125.014 137.013  0.00  0.00    +0.000 C 
ATOM     21  C   UNL     1     113.914 125.016 136.282  0.00  0.00    +0.000 C 
ATOM     22  C   UNL     1     113.150 125.011 137.744  0.00  0.00    +0.000 C 
BRANCH  20  23
ATOM     23  C   UNL     1     114.061 124.443 137.287  0.00  0.00    +0.000 C 
ATOM     24  C   UNL     1     114.845 124.646 137.440  0.00  0.00    +0.000 C 
ENDBRANCH  20  23
ENDBRANCH  15  20
BRANCH  17  25
ATOM     25  O   UNL     1     111.417 127.298 135.917  0.00  0.00    +0.000 OA
ATOM     26  C   UNL     1     110.731 127.069 135.522  0.00  0.00    +0.000 C 
ENDBRANCH  17  25
ENDBRANCH   4  14
BRANCH  12  27
ATOM     27  O   UNL     1     113.899 131.416 136.906  0.00  0.00    +0.000 OA
ATOM     28  C   UNL     1     113.394 131.990 136.596  0.00  0.00    +0.000 C 
ENDBRANCH  12  27
TORSDOF 5
ENDMDL
MODEL 7
REMARK VINA RESULT:      -7.9     12.252     14.324
REMARK  Name = 14482998
REMARK  5 active torsions:
REMARK  status: ('A' for Active; 'I' for Inactive)
REMARK    1  A    between atoms: O_2  and  C_14
REMARK    2  A    between atoms: O_6  and  C_25
REMARK    3  A    between atoms: C_7  and  C_9
REMARK    4  A    between atoms: C_8  and  C_10
REMARK    5  A    between atoms: C_8  and  C_21
REMARK                            x       y       z     vdW  Elec       q    Type
REMARK                         _______ _______ _______ _____ _____    ______ ____
ROOT
ATOM      1  O   UNL     1     114.337 127.724 135.830  0.00  0.00    +0.000 OA
ATOM      2  O   UNL     1     112.043 128.557 136.240  0.00  0.00    +0.000 OA
ATOM      3  O   UNL     1     112.412 129.879 135.794  0.00  0.00    +0.000 OA
ATOM      4  C   UNL     1     112.993 127.490 136.258  0.00  0.00    +0.000 C 
ATOM      5  C   UNL     1     113.757 127.212 136.121  0.00  0.00    +0.000 C 
ATOM      6  C   UNL     1     112.807 128.279 136.103  0.00  0.00    +0.000 C 
ATOM      7  C   UNL     1     113.385 128.790 135.812  0.00  0.00    +0.000 A 
ATOM      8  C   UNL     1     114.150 128.512 135.676  0.00  0.00    +0.000 A 
ATOM      9  C   UNL     1     113.179 129.610 135.655  0.00  0.00    +0.000 A 
ATOM     10  C   UNL     1     114.762 129.035 135.372  0.00  0.00    +0.000 A 
ATOM     11  C   UNL     1     113.778 130.146 135.352  0.00  0.00    +0.000 A 
ATOM     12  C   UNL     1     114.574 129.857 135.210  0.00  0.00    +0.000 A 
ENDROOT
BRANCH   4  14
ATOM     13  O   UNL     1     110.678 125.446 137.422  0.00  0.00    +0.000 OA
ATOM     14  C   UNL     1     112.415 126.980 136.549  0.00  0.00    +0.000 A 
ATOM     15  C   UNL     1     111.278 126.141 136.327  0.00  0.00    +0.000 A 
ATOM     16  C   UNL     1     111.857 126.652 136.036  0.00  0.00    +0.000 A 
ATOM     17  C   UNL     1     112.392 126.796 137.353  0.00  0.00    +0.000 A 
ATOM     18  C   UNL     1     111.257 125.958 137.131  0.00  0.00    +0.000 A 
ATOM     19  C   UNL     1     111.814 126.285 137.644  0.00  0.00    +0.000 A 
BRANCH  15  20
ATOM     20  C   UNL     1     110.721 125.814 135.814  0.00  0.00    +0.000 C 
ATOM     21  C   UNL     1     111.224 125.174 135.676  0.00  0.00    +0.000 C 
ATOM     22  C   UNL     1     110.219 126.453 135.952  0.00  0.00    +0.000 C 
BRANCH  20  23
ATOM     23  C   UNL     1     110.164 125.486 135.301  0.00  0.00    +0.000 C 
ATOM     24  C   UNL     1     109.951 125.888 134.613  0.00  0.00    +0.000 C 
ENDBRANCH  20  23
ENDBRANCH  15  20
BRANCH  17  25
ATOM     25  O   UNL     1     112.949 127.123 137.866  0.00  0.00    +0.000 OA
ATOM     26  C   UNL     1     112.958 126.903 138.661  0.00  0.00    +0.000 C 
ENDBRANCH  17  25
ENDBRANCH   4  14
BRANCH  12  27
ATOM     27  O   UNL     1     115.155 130.366 134.919  0.00  0.00    +0.000 OA
ATOM     28  C   UNL     1     115.521 130.905 135.424  0.00  0.00    +0.000 C 
ENDBRANCH  12  27
TORSDOF 5
ENDMDL
MODEL 8
REMARK VINA RESULT:      -7.9     12.171     13.843
REMARK  Name = 14482998
REMARK  5 active torsions:
REMARK  status: ('A' for Active; 'I' for Inactive)
REMARK    1  A    between atoms: O_2  and  C_14
REMARK    2  A    between atoms: O_6  and  C_25
REMARK    3  A    between atoms: C_7  and  C_9
REMARK    4  A    between atoms: C_8  and  C_10
REMARK    5  A    between atoms: C_8  and  C_21
REMARK                            x       y       z     vdW  Elec       q    Type
REMARK                         _______ _______ _______ _____ _____    ______ ____
ROOT
ATOM      1  O   UNL     1     113.754 128.332 136.007  0.00  0.00    +0.000 OA
ATOM      2  O   UNL     1     111.967 127.651 137.578  0.00  0.00    +0.000 OA
ATOM      3  O   UNL     1     112.039 128.922 138.256  0.00  0.00    +0.000 OA
ATOM      4  C   UNL     1     112.815 127.357 136.466  0.00  0.00    +0.000 C 
ATOM      5  C   UNL     1     113.410 127.584 135.942  0.00  0.00    +0.000 C 
ATOM      6  C   UNL     1     112.563 127.878 137.055  0.00  0.00    +0.000 C 
ATOM      7  C   UNL     1     112.906 128.625 137.119  0.00  0.00    +0.000 A 
ATOM      8  C   UNL     1     113.502 128.851 136.595  0.00  0.00    +0.000 A 
ATOM      9  C   UNL     1     112.635 129.158 137.737  0.00  0.00    +0.000 A 
ATOM     10  C   UNL     1     113.867 129.627 136.653  0.00  0.00    +0.000 A 
ATOM     11  C   UNL     1     112.989 129.937 137.809  0.00  0.00    +0.000 A 
ATOM     12  C   UNL     1     113.609 130.173 137.264  0.00  0.00    +0.000 A 
ENDROOT
BRANCH   4  14
ATOM     13  O   UNL     1     111.440 124.368 136.206  0.00  0.00    +0.000 OA
ATOM     14  C   UNL     1     112.471 126.610 136.401  0.00  0.00    +0.000 A 
ATOM     15  C   UNL     1     111.388 125.778 135.980  0.00  0.00    +0.000 A 
ATOM     16  C   UNL     1     111.732 126.526 136.045  0.00  0.00    +0.000 A 
ATOM     17  C   UNL     1     112.867 125.947 136.693  0.00  0.00    +0.000 A 
ATOM     18  C   UNL     1     111.784 125.116 136.271  0.00  0.00    +0.000 A 
ATOM     19  C   UNL     1     112.524 125.200 136.628  0.00  0.00    +0.000 A 
BRANCH  15  20
ATOM     20  C   UNL     1     110.649 125.693 135.624  0.00  0.00    +0.000 C 
ATOM     21  C   UNL     1     110.289 125.711 136.366  0.00  0.00    +0.000 C 
ATOM     22  C   UNL     1     111.009 125.676 134.881  0.00  0.00    +0.000 C 
BRANCH  20  23
ATOM     23  C   UNL     1     109.910 125.609 135.267  0.00  0.00    +0.000 C 
ATOM     24  C   UNL     1     109.561 126.250 134.884  0.00  0.00    +0.000 C 
ENDBRANCH  20  23
ENDBRANCH  15  20
BRANCH  17  25
ATOM     25  O   UNL     1     113.606 126.031 137.049  0.00  0.00    +0.000 OA
ATOM     26  C   UNL     1     114.017 125.366 137.311  0.00  0.00    +0.000 C 
ENDBRANCH  17  25
ENDBRANCH   4  14
BRANCH  12  27
ATOM     27  O   UNL     1     113.954 130.920 137.326  0.00  0.00    +0.000 OA
ATOM     28  C   UNL     1     113.673 131.544 136.866  0.00  0.00    +0.000 C 
ENDBRANCH  12  27
TORSDOF 5
ENDMDL
MODEL 9
REMARK VINA RESULT:      -7.8     12.162     13.729
REMARK  Name = 14482998
REMARK  5 active torsions:
REMARK  status: ('A' for Active; 'I' for Inactive)
REMARK    1  A    between atoms: O_2  and  C_14
REMARK    2  A    between atoms: O_6  and  C_25
REMARK    3  A    between atoms: C_7  and  C_9
REMARK    4  A    between atoms: C_8  and  C_10
REMARK    5  A    between atoms: C_8  and  C_21
REMARK                            x       y       z     vdW  Elec       q    Type
REMARK                         _______ _______ _______ _____ _____    ______ ____
ROOT
ATOM      1  O   UNL     1     111.847 126.196 136.091  0.00  0.00    +0.000 OA
ATOM      2  O   UNL     1     113.816 127.089 137.295  0.00  0.00    +0.000 OA
ATOM      3  O   UNL     1     114.239 125.757 137.650  0.00  0.00    +0.000 OA
ATOM      4  C   UNL     1     112.633 127.308 136.524  0.00  0.00    +0.000 C 
ATOM      5  C   UNL     1     111.977 127.011 136.123  0.00  0.00    +0.000 C 
ATOM      6  C   UNL     1     113.160 126.791 136.894  0.00  0.00    +0.000 C 
ATOM      7  C   UNL     1     113.030 125.978 136.862  0.00  0.00    +0.000 A 
ATOM      8  C   UNL     1     112.373 125.680 136.461  0.00  0.00    +0.000 A 
ATOM      9  C   UNL     1     113.586 125.450 137.251  0.00  0.00    +0.000 A 
ATOM     10  C   UNL     1     112.227 124.834 136.421  0.00  0.00    +0.000 A 
ATOM     11  C   UNL     1     113.455 124.601 137.222  0.00  0.00    +0.000 A 
ATOM     12  C   UNL     1     112.772 124.291 136.804  0.00  0.00    +0.000 A 
ENDROOT
BRANCH   4  14
ATOM     13  O   UNL     1     113.153 130.565 136.650  0.00  0.00    +0.000 OA
ATOM     14  C   UNL     1     112.763 128.122 136.556  0.00  0.00    +0.000 A 
ATOM     15  C   UNL     1     113.447 129.286 136.085  0.00  0.00    +0.000 A 
ATOM     16  C   UNL     1     113.317 128.471 136.054  0.00  0.00    +0.000 A 
ATOM     17  C   UNL     1     112.340 128.588 137.090  0.00  0.00    +0.000 A 
ATOM     18  C   UNL     1     113.023 129.750 136.619  0.00  0.00    +0.000 A 
ATOM     19  C   UNL     1     112.470 129.401 137.121  0.00  0.00    +0.000 A 
BRANCH  15  20
ATOM     20  C   UNL     1     114.000 129.635 135.583  0.00  0.00    +0.000 C 
ATOM     21  C   UNL     1     114.517 129.730 136.218  0.00  0.00    +0.000 C 
ATOM     22  C   UNL     1     113.484 129.540 134.947  0.00  0.00    +0.000 C 
BRANCH  20  23
ATOM     23  C   UNL     1     114.554 129.984 135.080  0.00  0.00    +0.000 C 
ATOM     24  C   UNL     1     115.041 129.511 134.612  0.00  0.00    +0.000 C 
ENDBRANCH  20  23
ENDBRANCH  15  20
BRANCH  17  25
ATOM     25  O   UNL     1     111.786 128.239 137.592  0.00  0.00    +0.000 OA
ATOM     26  C   UNL     1     111.332 128.708 138.096  0.00  0.00    +0.000 C 
ENDBRANCH  17  25
ENDBRANCH   4  14
BRANCH  12  27
ATOM     27  O   UNL     1     112.639 123.478 136.771  0.00  0.00    +0.000 OA
ATOM     28  C   UNL     1     112.018 123.143 137.198  0.00  0.00    +0.000 C 
ENDBRANCH  12  27
TORSDOF 5
ENDMDL
MODEL 10
REMARK VINA RESULT:      -7.8     10.090     11.819
REMARK  Name = 14482998
REMARK  5 active torsions:
REMARK  status: ('A' for Active; 'I' for Inactive)
REMARK    1  A    between atoms: O_2  and  C_14
REMARK    2  A    between atoms: O_6  and  C_25
REMARK    3  A    between atoms: C_7  and  C_9
REMARK    4  A    between atoms: C_8  and  C_10
REMARK    5  A    between atoms: C_8  and  C_21
REMARK                            x       y       z     vdW  Elec       q    Type
REMARK                         _______ _______ _______ _____ _____    ______ ____
ROOT
ATOM      1  O   UNL     1     112.829 128.281 139.616  0.00  0.00    +0.000 OA
ATOM      2  O   UNL     1     111.834 126.018 139.492  0.00  0.00    +0.000 OA
ATOM      3  O   UNL     1     111.546 126.036 140.905  0.00  0.00    +0.000 OA
ATOM      4  C   UNL     1     112.468 127.127 138.852  0.00  0.00    +0.000 C 
ATOM      5  C   UNL     1     112.800 127.881 138.894  0.00  0.00    +0.000 C 
ATOM      6  C   UNL     1     112.166 126.772 139.533  0.00  0.00    +0.000 C 
ATOM      7  C   UNL     1     112.195 127.171 140.254  0.00  0.00    +0.000 A 
ATOM      8  C   UNL     1     112.526 127.925 140.295  0.00  0.00    +0.000 A 
ATOM      9  C   UNL     1     111.876 126.790 140.956  0.00  0.00    +0.000 A 
ATOM     10  C   UNL     1     112.562 128.351 141.041  0.00  0.00    +0.000 A 
ATOM     11  C   UNL     1     111.904 127.201 141.710  0.00  0.00    +0.000 A 
ATOM     12  C   UNL     1     112.249 127.986 141.753  0.00  0.00    +0.000 A 
ENDROOT
BRANCH   4  14
ATOM     13  O   UNL     1     112.353 125.531 135.966  0.00  0.00    +0.000 OA
ATOM     14  C   UNL     1     112.439 126.729 138.131  0.00  0.00    +0.000 A 
ATOM     15  C   UNL     1     112.983 125.763 137.227  0.00  0.00    +0.000 A 
ATOM     16  C   UNL     1     113.012 126.163 137.950  0.00  0.00    +0.000 A 
ATOM     17  C   UNL     1     111.838 126.895 137.591  0.00  0.00    +0.000 A 
ATOM     18  C   UNL     1     112.382 125.931 136.688  0.00  0.00    +0.000 A 
ATOM     19  C   UNL     1     111.809 126.497 136.870  0.00  0.00    +0.000 A 
BRANCH  15  20
ATOM     20  C   UNL     1     113.555 125.198 137.046  0.00  0.00    +0.000 C 
ATOM     21  C   UNL     1     114.077 125.797 136.825  0.00  0.00    +0.000 C 
ATOM     22  C   UNL     1     113.033 124.598 137.267  0.00  0.00    +0.000 C 
BRANCH  20  23
ATOM     23  C   UNL     1     114.128 124.632 136.864  0.00  0.00    +0.000 C 
ATOM     24  C   UNL     1     114.859 124.649 137.244  0.00  0.00    +0.000 C 
ENDBRANCH  20  23
ENDBRANCH  15  20
BRANCH  17  25
ATOM     25  O   UNL     1     111.266 127.461 137.772  0.00  0.00    +0.000 OA
ATOM     26  C   UNL     1     110.695 127.665 137.213  0.00  0.00    +0.000 C 
ENDBRANCH  17  25
ENDBRANCH   4  14
BRANCH  12  27
ATOM     27  O   UNL     1     112.279 128.387 142.473  0.00  0.00    +0.000 OA
ATOM     28  C   UNL     1     111.638 128.844 142.718  0.00  0.00    +0.000 C 
ENDBRANCH  12  27
TORSDOF 5
ENDMDL
