MODEL 1
REMARK VINA RESULT:      -8.2      0.000      0.000
REMARK  Name = 14704513
REMARK  5 active torsions:
REMARK  status: ('A' for Active; 'I' for Inactive)
REMARK    1  A    between atoms: O_2  and  C_13
REMARK    2  A    between atoms: O_3  and  C_17
REMARK    3  A    between atoms: O_4  and  C_19
REMARK    4  A    between atoms: O_6  and  C_22
REMARK    5  A    between atoms: C_9  and  C_10
REMARK                            x       y       z     vdW  Elec       q    Type
REMARK                         _______ _______ _______ _____ _____    ______ ____
ROOT
ATOM      1  O   UNL     1     105.316 124.554 147.551  0.00  0.00    +0.000 OA
ATOM      2  O   UNL     1     107.590 125.949 146.443  0.00  0.00    +0.000 OA
ATOM      3  O   UNL     1     106.329 125.910 145.745  0.00  0.00    +0.000 OA
ATOM      4  C   UNL     1     104.865 124.768 146.893  0.00  0.00    +0.000 A 
ATOM      5  C   UNL     1     106.441 125.244 147.004  0.00  0.00    +0.000 A 
ATOM      6  C   UNL     1     106.103 124.792 147.606  0.00  0.00    +0.000 A 
ATOM      7  C   UNL     1     105.203 125.220 146.292  0.00  0.00    +0.000 A 
ATOM      8  C   UNL     1     105.991 125.458 146.347  0.00  0.00    +0.000 A 
ATOM      9  C   UNL     1     107.262 125.498 147.049  0.00  0.00    +0.000 A 
ATOM     10  C   UNL     1     106.563 124.562 148.296  0.00  0.00    +0.000 A 
ATOM     11  C   UNL     1     107.383 124.807 148.359  0.00  0.00    +0.000 A 
ATOM     12  C   UNL     1     107.736 125.278 147.731  0.00  0.00    +0.000 A 
ENDROOT
BRANCH   4  14
ATOM     13  O   UNL     1     102.118 125.121 147.600  0.00  0.00    +0.000 OA
ATOM     14  C   UNL     1     104.077 124.531 146.838  0.00  0.00    +0.000 A 
ATOM     15  C   UNL     1     103.492 124.945 147.247  0.00  0.00    +0.000 A 
ATOM     16  C   UNL     1     103.874 123.880 146.374  0.00  0.00    +0.000 A 
ATOM     17  C   UNL     1     103.086 123.642 146.319  0.00  0.00    +0.000 A 
ATOM     18  C   UNL     1     102.703 124.707 147.192  0.00  0.00    +0.000 A 
ATOM     19  C   UNL     1     102.501 124.056 146.727  0.00  0.00    +0.000 A 
BRANCH  15  20
ATOM     20  O   UNL     1     103.695 125.596 147.711  0.00  0.00    +0.000 OA
ATOM     21  C   UNL     1     103.120 125.971 148.169  0.00  0.00    +0.000 C 
ENDBRANCH  15  20
BRANCH  17  22
ATOM     22  O   UNL     1     102.883 122.991 145.855  0.00  0.00    +0.000 OA
ATOM     23  C   UNL     1     103.387 122.741 145.252  0.00  0.00    +0.000 C 
ENDBRANCH  17  22
BRANCH  19  24
ATOM     24  O   UNL     1     101.712 123.818 146.672  0.00  0.00    +0.000 OA
ATOM     25  C   UNL     1     101.373 123.374 147.278  0.00  0.00    +0.000 C 
ENDBRANCH  19  24
ENDBRANCH   4  14
BRANCH  11  26
ATOM     26  O   UNL     1     107.832 124.591 149.017  0.00  0.00    +0.000 OA
ATOM     27  C   UNL     1     107.495 124.129 149.612  0.00  0.00    +0.000 C 
ENDBRANCH  11  26
TORSDOF 5
ENDMDL
MODEL 2
REMARK VINA RESULT:      -8.1     12.630     13.900
REMARK  Name = 14704513
REMARK  5 active torsions:
REMARK  status: ('A' for Active; 'I' for Inactive)
REMARK    1  A    between atoms: O_2  and  C_13
REMARK    2  A    between atoms: O_3  and  C_17
REMARK    3  A    between atoms: O_4  and  C_19
REMARK    4  A    between atoms: O_6  and  C_22
REMARK    5  A    between atoms: C_9  and  C_10
REMARK                            x       y       z     vdW  Elec       q    Type
REMARK                         _______ _______ _______ _____ _____    ______ ____
ROOT
ATOM      1  O   UNL     1     113.215 127.321 136.114  0.00  0.00    +0.000 OA
ATOM      2  O   UNL     1     113.366 129.683 137.770  0.00  0.00    +0.000 OA
ATOM      3  O   UNL     1     112.870 128.435 138.297  0.00  0.00    +0.000 OA
ATOM      4  C   UNL     1     112.909 126.894 136.750  0.00  0.00    +0.000 A 
ATOM      5  C   UNL     1     113.290 128.489 136.932  0.00  0.00    +0.000 A 
ATOM      6  C   UNL     1     113.405 128.118 136.204  0.00  0.00    +0.000 A 
ATOM      7  C   UNL     1     112.794 127.265 137.478  0.00  0.00    +0.000 A 
ATOM      8  C   UNL     1     112.985 128.064 137.569  0.00  0.00    +0.000 A 
ATOM      9  C   UNL     1     113.484 129.320 137.039  0.00  0.00    +0.000 A 
ATOM     10  C   UNL     1     113.722 128.552 135.533  0.00  0.00    +0.000 A 
ATOM     11  C   UNL     1     113.922 129.382 135.621  0.00  0.00    +0.000 A 
ATOM     12  C   UNL     1     113.802 129.769 136.380  0.00  0.00    +0.000 A 
ENDROOT
BRANCH   4  14
ATOM     13  O   UNL     1     113.645 124.138 136.932  0.00  0.00    +0.000 OA
ATOM     14  C   UNL     1     112.719 126.097 136.660  0.00  0.00    +0.000 A 
ATOM     15  C   UNL     1     113.277 125.517 136.841  0.00  0.00    +0.000 A 
ATOM     16  C   UNL     1     111.971 125.879 136.388  0.00  0.00    +0.000 A 
ATOM     17  C   UNL     1     111.781 125.082 136.298  0.00  0.00    +0.000 A 
ATOM     18  C   UNL     1     113.087 124.719 136.751  0.00  0.00    +0.000 A 
ATOM     19  C   UNL     1     112.339 124.502 136.479  0.00  0.00    +0.000 A 
BRANCH  15  20
ATOM     20  O   UNL     1     114.025 125.734 137.113  0.00  0.00    +0.000 OA
ATOM     21  C   UNL     1     114.625 125.170 137.164  0.00  0.00    +0.000 C 
ENDBRANCH  15  20
BRANCH  17  22
ATOM     22  O   UNL     1     111.033 124.863 136.026  0.00  0.00    +0.000 OA
ATOM     23  C   UNL     1     110.619 125.361 135.515  0.00  0.00    +0.000 C 
ENDBRANCH  17  22
BRANCH  19  24
ATOM     24  O   UNL     1     112.149 123.703 136.389  0.00  0.00    +0.000 OA
ATOM     25  C   UNL     1     111.914 123.259 137.043  0.00  0.00    +0.000 C 
ENDBRANCH  19  24
ENDBRANCH   4  14
BRANCH  11  26
ATOM     26  O   UNL     1     114.227 129.806 134.983  0.00  0.00    +0.000 OA
ATOM     27  C   UNL     1     115.041 129.829 134.854  0.00  0.00    +0.000 C 
ENDBRANCH  11  26
TORSDOF 5
ENDMDL
MODEL 3
REMARK VINA RESULT:      -7.9     11.178     12.792
REMARK  Name = 14704513
REMARK  5 active torsions:
REMARK  status: ('A' for Active; 'I' for Inactive)
REMARK    1  A    between atoms: O_2  and  C_13
REMARK    2  A    between atoms: O_3  and  C_17
REMARK    3  A    between atoms: O_4  and  C_19
REMARK    4  A    between atoms: O_6  and  C_22
REMARK    5  A    between atoms: C_9  and  C_10
REMARK                            x       y       z     vdW  Elec       q    Type
REMARK                         _______ _______ _______ _____ _____    ______ ____
ROOT
ATOM      1  O   UNL     1     112.059 125.993 136.594  0.00  0.00    +0.000 OA
ATOM      2  O   UNL     1     113.151 123.393 137.221  0.00  0.00    +0.000 OA
ATOM      3  O   UNL     1     111.730 123.635 137.273  0.00  0.00    +0.000 OA
ATOM      4  C   UNL     1     111.298 125.707 136.737  0.00  0.00    +0.000 A 
ATOM      5  C   UNL     1     112.600 124.707 136.904  0.00  0.00    +0.000 A 
ATOM      6  C   UNL     1     112.709 125.493 136.678  0.00  0.00    +0.000 A 
ATOM      7  C   UNL     1     111.188 124.922 136.964  0.00  0.00    +0.000 A 
ATOM      8  C   UNL     1     111.840 124.421 137.047  0.00  0.00    +0.000 A 
ATOM      9  C   UNL     1     113.270 124.176 136.994  0.00  0.00    +0.000 A 
ATOM     10  C   UNL     1     113.497 125.802 136.526  0.00  0.00    +0.000 A 
ATOM     11  C   UNL     1     114.179 125.287 136.611  0.00  0.00    +0.000 A 
ATOM     12  C   UNL     1     114.064 124.468 136.847  0.00  0.00    +0.000 A 
ENDROOT
BRANCH   4  14
ATOM     13  O   UNL     1     109.221 126.816 135.118  0.00  0.00    +0.000 OA
ATOM     14  C   UNL     1     110.647 126.207 136.654  0.00  0.00    +0.000 A 
ATOM     15  C   UNL     1     110.260 126.262 135.928  0.00  0.00    +0.000 A 
ATOM     16  C   UNL     1     110.383 126.652 137.296  0.00  0.00    +0.000 A 
ATOM     17  C   UNL     1     109.733 127.152 137.213  0.00  0.00    +0.000 A 
ATOM     18  C   UNL     1     109.608 126.762 135.844  0.00  0.00    +0.000 A 
ATOM     19  C   UNL     1     109.345 127.206 136.487  0.00  0.00    +0.000 A 
BRANCH  15  20
ATOM     20  O   UNL     1     110.523 125.817 135.285  0.00  0.00    +0.000 OA
ATOM     21  C   UNL     1     110.051 125.744 134.612  0.00  0.00    +0.000 C 
ENDBRANCH  15  20
BRANCH  17  22
ATOM     22  O   UNL     1     109.469 127.597 137.856  0.00  0.00    +0.000 OA
ATOM     23  C   UNL     1     109.772 127.453 138.609  0.00  0.00    +0.000 C 
ENDBRANCH  17  22
BRANCH  19  24
ATOM     24  O   UNL     1     108.694 127.707 136.403  0.00  0.00    +0.000 OA
ATOM     25  C   UNL     1     108.787 128.450 136.058  0.00  0.00    +0.000 C 
ENDBRANCH  19  24
ENDBRANCH   4  14
BRANCH  11  26
ATOM     26  O   UNL     1     114.938 125.575 136.467  0.00  0.00    +0.000 OA
ATOM     27  C   UNL     1     115.299 125.440 135.738  0.00  0.00    +0.000 C 
ENDBRANCH  11  26
TORSDOF 5
ENDMDL
MODEL 4
REMARK VINA RESULT:      -7.8     12.327     13.429
REMARK  Name = 14704513
REMARK  5 active torsions:
REMARK  status: ('A' for Active; 'I' for Inactive)
REMARK    1  A    between atoms: O_2  and  C_13
REMARK    2  A    between atoms: O_3  and  C_17
REMARK    3  A    between atoms: O_4  and  C_19
REMARK    4  A    between atoms: O_6  and  C_22
REMARK    5  A    between atoms: C_9  and  C_10
REMARK                            x       y       z     vdW  Elec       q    Type
REMARK                         _______ _______ _______ _____ _____    ______ ____
ROOT
ATOM      1  O   UNL     1     112.761 127.256 137.427  0.00  0.00    +0.000 OA
ATOM      2  O   UNL     1     113.969 129.641 136.332  0.00  0.00    +0.000 OA
ATOM      3  O   UNL     1     113.963 128.403 135.592  0.00  0.00    +0.000 OA
ATOM      4  C   UNL     1     112.965 126.840 136.744  0.00  0.00    +0.000 A 
ATOM      5  C   UNL     1     113.358 128.436 136.887  0.00  0.00    +0.000 A 
ATOM      6  C   UNL     1     112.958 128.054 137.498  0.00  0.00    +0.000 A 
ATOM      7  C   UNL     1     113.366 127.222 136.133  0.00  0.00    +0.000 A 
ATOM      8  C   UNL     1     113.562 128.021 136.204  0.00  0.00    +0.000 A 
ATOM      9  C   UNL     1     113.569 129.268 136.948  0.00  0.00    +0.000 A 
ATOM     10  C   UNL     1     112.739 128.476 138.214  0.00  0.00    +0.000 A 
ATOM     11  C   UNL     1     112.941 129.307 138.294  0.00  0.00    +0.000 A 
ATOM     12  C   UNL     1     113.359 129.706 137.657  0.00  0.00    +0.000 A 
ENDROOT
BRANCH   4  14
ATOM     13  O   UNL     1     113.643 124.084 137.088  0.00  0.00    +0.000 OA
ATOM     14  C   UNL     1     112.769 126.042 136.673  0.00  0.00    +0.000 A 
ATOM     15  C   UNL     1     113.304 125.463 136.916  0.00  0.00    +0.000 A 
ATOM     16  C   UNL     1     112.039 125.823 136.359  0.00  0.00    +0.000 A 
ATOM     17  C   UNL     1     111.842 125.025 136.288  0.00  0.00    +0.000 A 
ATOM     18  C   UNL     1     113.108 124.664 136.845  0.00  0.00    +0.000 A 
ATOM     19  C   UNL     1     112.377 124.446 136.531  0.00  0.00    +0.000 A 
BRANCH  15  20
ATOM     20  O   UNL     1     114.035 125.681 137.231  0.00  0.00    +0.000 OA
ATOM     21  C   UNL     1     114.577 125.101 137.457  0.00  0.00    +0.000 C 
ENDBRANCH  15  20
BRANCH  17  22
ATOM     22  O   UNL     1     111.112 124.805 135.974  0.00  0.00    +0.000 OA
ATOM     23  C   UNL     1     110.665 125.353 135.549  0.00  0.00    +0.000 C 
ENDBRANCH  17  22
BRANCH  19  24
ATOM     24  O   UNL     1     112.181 123.647 136.460  0.00  0.00    +0.000 OA
ATOM     25  C   UNL     1     111.911 123.229 137.118  0.00  0.00    +0.000 C 
ENDBRANCH  19  24
ENDBRANCH   4  14
BRANCH  11  26
ATOM     26  O   UNL     1     112.736 129.721 138.978  0.00  0.00    +0.000 OA
ATOM     27  C   UNL     1     112.013 130.116 139.020  0.00  0.00    +0.000 C 
ENDBRANCH  11  26
TORSDOF 5
ENDMDL
MODEL 5
REMARK VINA RESULT:      -7.8      0.930      2.317
REMARK  Name = 14704513
REMARK  5 active torsions:
REMARK  status: ('A' for Active; 'I' for Inactive)
REMARK    1  A    between atoms: O_2  and  C_13
REMARK    2  A    between atoms: O_3  and  C_17
REMARK    3  A    between atoms: O_4  and  C_19
REMARK    4  A    between atoms: O_6  and  C_22
REMARK    5  A    between atoms: C_9  and  C_10
REMARK                            x       y       z     vdW  Elec       q    Type
REMARK                         _______ _______ _______ _____ _____    ______ ____
ROOT
ATOM      1  O   UNL     1     104.980 125.367 146.653  0.00  0.00    +0.000 OA
ATOM      2  O   UNL     1     107.478 124.991 148.054  0.00  0.00    +0.000 OA
ATOM      3  O   UNL     1     106.352 124.123 148.295  0.00  0.00    +0.000 OA
ATOM      4  C   UNL     1     104.658 124.722 147.055  0.00  0.00    +0.000 A 
ATOM      5  C   UNL     1     106.216 125.182 147.345  0.00  0.00    +0.000 A 
ATOM      6  C   UNL     1     105.758 125.597 146.798  0.00  0.00    +0.000 A 
ATOM      7  C   UNL     1     105.115 124.308 147.602  0.00  0.00    +0.000 A 
ATOM      8  C   UNL     1     105.895 124.538 147.747  0.00  0.00    +0.000 A 
ATOM      9  C   UNL     1     107.029 125.412 147.505  0.00  0.00    +0.000 A 
ATOM     10  C   UNL     1     106.082 126.270 146.373  0.00  0.00    +0.000 A 
ATOM     11  C   UNL     1     106.892 126.514 146.519  0.00  0.00    +0.000 A 
ATOM     12  C   UNL     1     107.369 126.082 147.090  0.00  0.00    +0.000 A 
ENDROOT
BRANCH   4  14
ATOM     13  O   UNL     1     102.771 123.166 145.576  0.00  0.00    +0.000 OA
ATOM     14  C   UNL     1     103.879 124.492 146.910  0.00  0.00    +0.000 A 
ATOM     15  C   UNL     1     103.715 123.945 146.316  0.00  0.00    +0.000 A 
ATOM     16  C   UNL     1     103.264 124.809 147.360  0.00  0.00    +0.000 A 
ATOM     17  C   UNL     1     102.486 124.580 147.215  0.00  0.00    +0.000 A 
ATOM     18  C   UNL     1     102.936 123.714 146.170  0.00  0.00    +0.000 A 
ATOM     19  C   UNL     1     102.322 124.032 146.620  0.00  0.00    +0.000 A 
BRANCH  15  20
ATOM     20  O   UNL     1     104.329 123.627 145.866  0.00  0.00    +0.000 OA
ATOM     21  C   UNL     1     104.162 123.220 145.167  0.00  0.00    +0.000 C 
ENDBRANCH  15  20
BRANCH  17  22
ATOM     22  O   UNL     1     101.871 124.897 147.664  0.00  0.00    +0.000 OA
ATOM     23  C   UNL     1     102.000 125.571 148.122  0.00  0.00    +0.000 C 
ENDBRANCH  17  22
BRANCH  19  24
ATOM     24  O   UNL     1     101.542 123.801 146.475  0.00  0.00    +0.000 OA
ATOM     25  C   UNL     1     101.250 123.105 146.807  0.00  0.00    +0.000 C 
ENDBRANCH  19  24
ENDBRANCH   4  14
BRANCH  11  26
ATOM     26  O   UNL     1     107.211 127.159 146.116  0.00  0.00    +0.000 OA
ATOM     27  C   UNL     1     107.183 127.912 146.453  0.00  0.00    +0.000 C 
ENDBRANCH  11  26
TORSDOF 5
ENDMDL
MODEL 6
REMARK VINA RESULT:      -7.8     12.538     14.267
REMARK  Name = 14704513
REMARK  5 active torsions:
REMARK  status: ('A' for Active; 'I' for Inactive)
REMARK    1  A    between atoms: O_2  and  C_13
REMARK    2  A    between atoms: O_3  and  C_17
REMARK    3  A    between atoms: O_4  and  C_19
REMARK    4  A    between atoms: O_6  and  C_22
REMARK    5  A    between atoms: C_9  and  C_10
REMARK                            x       y       z     vdW  Elec       q    Type
REMARK                         _______ _______ _______ _____ _____    ______ ____
ROOT
ATOM      1  O   UNL     1     112.212 127.299 136.198  0.00  0.00    +0.000 OA
ATOM      2  O   UNL     1     112.566 124.445 136.476  0.00  0.00    +0.000 OA
ATOM      3  O   UNL     1     113.609 125.365 136.858  0.00  0.00    +0.000 OA
ATOM      4  C   UNL     1     112.970 127.422 136.501  0.00  0.00    +0.000 A 
ATOM      5  C   UNL     1     112.386 125.888 136.335  0.00  0.00    +0.000 A 
ATOM      6  C   UNL     1     111.920 126.532 136.115  0.00  0.00    +0.000 A 
ATOM      7  C   UNL     1     113.435 126.777 136.721  0.00  0.00    +0.000 A 
ATOM      8  C   UNL     1     113.143 126.009 136.638  0.00  0.00    +0.000 A 
ATOM      9  C   UNL     1     112.093 125.083 136.254  0.00  0.00    +0.000 A 
ATOM     10  C   UNL     1     111.129 126.417 135.799  0.00  0.00    +0.000 A 
ATOM     11  C   UNL     1     110.820 125.621 135.710  0.00  0.00    +0.000 A 
ATOM     12  C   UNL     1     111.305 124.949 135.939  0.00  0.00    +0.000 A 
ENDROOT
BRANCH   4  14
ATOM     13  O   UNL     1     113.325 129.778 138.080  0.00  0.00    +0.000 OA
ATOM     14  C   UNL     1     113.262 128.188 136.584  0.00  0.00    +0.000 A 
ATOM     15  C   UNL     1     113.147 128.599 137.290  0.00  0.00    +0.000 A 
ATOM     16  C   UNL     1     113.669 128.545 135.961  0.00  0.00    +0.000 A 
ATOM     17  C   UNL     1     113.961 129.312 136.044  0.00  0.00    +0.000 A 
ATOM     18  C   UNL     1     113.439 129.367 137.373  0.00  0.00    +0.000 A 
ATOM     19  C   UNL     1     113.846 129.723 136.750  0.00  0.00    +0.000 A 
BRANCH  15  20
ATOM     20  O   UNL     1     112.741 128.243 137.913  0.00  0.00    +0.000 OA
ATOM     21  C   UNL     1     112.775 128.571 138.670  0.00  0.00    +0.000 C 
ENDBRANCH  15  20
BRANCH  17  22
ATOM     22  O   UNL     1     114.367 129.669 135.421  0.00  0.00    +0.000 OA
ATOM     23  C   UNL     1     114.702 129.204 134.827  0.00  0.00    +0.000 C 
ENDBRANCH  17  22
BRANCH  19  24
ATOM     24  O   UNL     1     114.138 130.490 136.833  0.00  0.00    +0.000 OA
ATOM     25  C   UNL     1     113.637 131.136 136.722  0.00  0.00    +0.000 C 
ENDBRANCH  19  24
ENDBRANCH   4  14
BRANCH  11  26
ATOM     26  O   UNL     1     110.062 125.501 135.407  0.00  0.00    +0.000 OA
ATOM     27  C   UNL     1     109.860 125.808 134.668  0.00  0.00    +0.000 C 
ENDBRANCH  11  26
TORSDOF 5
ENDMDL
MODEL 7
REMARK VINA RESULT:      -7.7     12.273     14.002
REMARK  Name = 14704513
REMARK  5 active torsions:
REMARK  status: ('A' for Active; 'I' for Inactive)
REMARK    1  A    between atoms: O_2  and  C_13
REMARK    2  A    between atoms: O_3  and  C_17
REMARK    3  A    between atoms: O_4  and  C_19
REMARK    4  A    between atoms: O_6  and  C_22
REMARK    5  A    between atoms: C_9  and  C_10
REMARK                            x       y       z     vdW  Elec       q    Type
REMARK                         _______ _______ _______ _____ _____    ______ ____
ROOT
ATOM      1  O   UNL     1     112.587 126.753 136.458  0.00  0.00    +0.000 OA
ATOM      2  O   UNL     1     110.225 125.587 135.273  0.00  0.00    +0.000 OA
ATOM      3  O   UNL     1     110.418 127.016 135.296  0.00  0.00    +0.000 OA
ATOM      4  C   UNL     1     112.310 127.507 136.269  0.00  0.00    +0.000 A 
ATOM      5  C   UNL     1     111.420 126.176 135.872  0.00  0.00    +0.000 A 
ATOM      6  C   UNL     1     112.143 126.088 136.260  0.00  0.00    +0.000 A 
ATOM      7  C   UNL     1     111.587 127.595 135.882  0.00  0.00    +0.000 A 
ATOM      8  C   UNL     1     111.141 126.929 135.683  0.00  0.00    +0.000 A 
ATOM      9  C   UNL     1     110.946 125.490 135.660  0.00  0.00    +0.000 A 
ATOM     10  C   UNL     1     112.443 125.308 136.462  0.00  0.00    +0.000 A 
ATOM     11  C   UNL     1     111.984 124.611 136.258  0.00  0.00    +0.000 A 
ATOM     12  C   UNL     1     111.230 124.703 135.854  0.00  0.00    +0.000 A 
ENDROOT
BRANCH   4  14
ATOM     13  O   UNL     1     112.981 129.571 138.128  0.00  0.00    +0.000 OA
ATOM     14  C   UNL     1     112.754 128.172 136.467  0.00  0.00    +0.000 A 
ATOM     15  C   UNL     1     112.645 128.538 137.198  0.00  0.00    +0.000 A 
ATOM     16  C   UNL     1     113.309 128.473 135.935  0.00  0.00    +0.000 A 
ATOM     17  C   UNL     1     113.753 129.138 136.133  0.00  0.00    +0.000 A 
ATOM     18  C   UNL     1     113.090 129.205 137.397  0.00  0.00    +0.000 A 
ATOM     19  C   UNL     1     113.644 129.504 136.864  0.00  0.00    +0.000 A 
BRANCH  15  20
ATOM     20  O   UNL     1     112.091 128.239 137.732  0.00  0.00    +0.000 OA
ATOM     21  C   UNL     1     112.139 128.437 138.531  0.00  0.00    +0.000 C 
ENDBRANCH  15  20
BRANCH  17  22
ATOM     22  O   UNL     1     114.308 129.438 135.601  0.00  0.00    +0.000 OA
ATOM     23  C   UNL     1     114.643 128.943 135.032  0.00  0.00    +0.000 C 
ENDBRANCH  17  22
BRANCH  19  24
ATOM     24  O   UNL     1     114.089 130.170 137.063  0.00  0.00    +0.000 OA
ATOM     25  C   UNL     1     113.769 130.924 136.964  0.00  0.00    +0.000 C 
ENDBRANCH  19  24
ENDBRANCH   4  14
BRANCH  11  26
ATOM     26  O   UNL     1     112.264 123.859 136.448  0.00  0.00    +0.000 OA
ATOM     27  C   UNL     1     112.012 123.488 137.141  0.00  0.00    +0.000 C 
ENDBRANCH  11  26
TORSDOF 5
ENDMDL
MODEL 8
REMARK VINA RESULT:      -7.7     11.684     13.440
REMARK  Name = 14704513
REMARK  5 active torsions:
REMARK  status: ('A' for Active; 'I' for Inactive)
REMARK    1  A    between atoms: O_2  and  C_13
REMARK    2  A    between atoms: O_3  and  C_17
REMARK    3  A    between atoms: O_4  and  C_19
REMARK    4  A    between atoms: O_6  and  C_22
REMARK    5  A    between atoms: C_9  and  C_10
REMARK                            x       y       z     vdW  Elec       q    Type
REMARK                         _______ _______ _______ _____ _____    ______ ____
ROOT
ATOM      1  O   UNL     1     112.392 126.572 136.599  0.00  0.00    +0.000 OA
ATOM      2  O   UNL     1     111.653 123.843 136.008  0.00  0.00    +0.000 OA
ATOM      3  O   UNL     1     110.821 124.946 135.593  0.00  0.00    +0.000 OA
ATOM      4  C   UNL     1     111.709 126.839 136.221  0.00  0.00    +0.000 A 
ATOM      5  C   UNL     1     112.028 125.222 136.308  0.00  0.00    +0.000 A 
ATOM      6  C   UNL     1     112.551 125.764 136.643  0.00  0.00    +0.000 A 
ATOM      7  C   UNL     1     111.186 126.297 135.885  0.00  0.00    +0.000 A 
ATOM      8  C   UNL     1     111.345 125.488 135.929  0.00  0.00    +0.000 A 
ATOM      9  C   UNL     1     112.182 124.377 136.346  0.00  0.00    +0.000 A 
ATOM     10  C   UNL     1     113.266 125.499 137.040  0.00  0.00    +0.000 A 
ATOM     11  C   UNL     1     113.437 124.659 137.089  0.00  0.00    +0.000 A 
ATOM     12  C   UNL     1     112.891 124.094 136.739  0.00  0.00    +0.000 A 
ENDROOT
BRANCH   4  14
ATOM     13  O   UNL     1     110.442 129.172 137.278  0.00  0.00    +0.000 OA
ATOM     14  C   UNL     1     111.550 127.647 136.177  0.00  0.00    +0.000 A 
ATOM     15  C   UNL     1     111.076 128.005 136.749  0.00  0.00    +0.000 A 
ATOM     16  C   UNL     1     111.865 128.097 135.561  0.00  0.00    +0.000 A 
ATOM     17  C   UNL     1     111.706 128.905 135.518  0.00  0.00    +0.000 A 
ATOM     18  C   UNL     1     110.916 128.814 136.706  0.00  0.00    +0.000 A 
ATOM     19  C   UNL     1     111.231 129.263 136.090  0.00  0.00    +0.000 A 
BRANCH  15  20
ATOM     20  O   UNL     1     110.761 127.555 137.365  0.00  0.00    +0.000 OA
ATOM     21  C   UNL     1     110.518 127.923 138.062  0.00  0.00    +0.000 C 
ENDBRANCH  15  20
BRANCH  17  22
ATOM     22  O   UNL     1     112.020 129.356 134.902  0.00  0.00    +0.000 OA
ATOM     23  C   UNL     1     112.776 129.190 134.615  0.00  0.00    +0.000 C 
ENDBRANCH  17  22
BRANCH  19  24
ATOM     24  O   UNL     1     111.072 130.072 136.047  0.00  0.00    +0.000 OA
ATOM     25  C   UNL     1     110.364 130.335 135.715  0.00  0.00    +0.000 C 
ENDBRANCH  19  24
ENDBRANCH   4  14
BRANCH  11  26
ATOM     26  O   UNL     1     114.121 124.395 137.468  0.00  0.00    +0.000 OA
ATOM     27  C   UNL     1     114.859 124.677 137.231  0.00  0.00    +0.000 C 
ENDBRANCH  11  26
TORSDOF 5
ENDMDL
MODEL 9
REMARK VINA RESULT:      -7.7      0.806      4.524
REMARK  Name = 14704513
REMARK  5 active torsions:
REMARK  status: ('A' for Active; 'I' for Inactive)
REMARK    1  A    between atoms: O_2  and  C_13
REMARK    2  A    between atoms: O_3  and  C_17
REMARK    3  A    between atoms: O_4  and  C_19
REMARK    4  A    between atoms: O_6  and  C_22
REMARK    5  A    between atoms: C_9  and  C_10
REMARK                            x       y       z     vdW  Elec       q    Type
REMARK                         _______ _______ _______ _____ _____    ______ ____
ROOT
ATOM      1  O   UNL     1     104.191 124.732 147.379  0.00  0.00    +0.000 OA
ATOM      2  O   UNL     1     102.552 123.058 145.688  0.00  0.00    +0.000 OA
ATOM      3  O   UNL     1     103.991 123.035 145.588  0.00  0.00    +0.000 OA
ATOM      4  C   UNL     1     104.870 124.428 147.021  0.00  0.00    +0.000 A 
ATOM      5  C   UNL     1     103.380 123.905 146.544  0.00  0.00    +0.000 A 
ATOM      6  C   UNL     1     103.446 124.470 147.141  0.00  0.00    +0.000 A 
ATOM      7  C   UNL     1     104.803 123.863 146.425  0.00  0.00    +0.000 A 
ATOM      8  C   UNL     1     104.057 123.601 146.185  0.00  0.00    +0.000 A 
ATOM      9  C   UNL     1     102.609 123.624 146.285  0.00  0.00    +0.000 A 
ATOM     10  C   UNL     1     102.747 124.795 147.521  0.00  0.00    +0.000 A 
ATOM     11  C   UNL     1     101.969 124.526 147.277  0.00  0.00    +0.000 A 
ATOM     12  C   UNL     1     101.899 123.937 146.654  0.00  0.00    +0.000 A 
ENDROOT
BRANCH   4  14
ATOM     13  O   UNL     1     107.190 126.034 146.571  0.00  0.00    +0.000 OA
ATOM     14  C   UNL     1     105.614 124.690 147.260  0.00  0.00    +0.000 A 
ATOM     15  C   UNL     1     106.029 125.231 146.796  0.00  0.00    +0.000 A 
ATOM     16  C   UNL     1     105.945 124.410 147.962  0.00  0.00    +0.000 A 
ATOM     17  C   UNL     1     106.689 124.671 148.201  0.00  0.00    +0.000 A 
ATOM     18  C   UNL     1     106.775 125.493 147.035  0.00  0.00    +0.000 A 
ATOM     19  C   UNL     1     107.105 125.213 147.737  0.00  0.00    +0.000 A 
BRANCH  15  20
ATOM     20  O   UNL     1     105.700 125.511 146.094  0.00  0.00    +0.000 OA
ATOM     21  C   UNL     1     105.979 126.210 145.756  0.00  0.00    +0.000 C 
ENDBRANCH  15  20
BRANCH  17  22
ATOM     22  O   UNL     1     107.020 124.392 148.904  0.00  0.00    +0.000 OA
ATOM     23  C   UNL     1     106.542 124.273 149.565  0.00  0.00    +0.000 C 
ENDBRANCH  17  22
BRANCH  19  24
ATOM     24  O   UNL     1     107.850 125.475 147.976  0.00  0.00    +0.000 OA
ATOM     25  C   UNL     1     108.526 125.064 147.741  0.00  0.00    +0.000 C 
ENDBRANCH  19  24
ENDBRANCH   4  14
BRANCH  11  26
ATOM     26  O   UNL     1     101.292 124.832 147.636  0.00  0.00    +0.000 OA
ATOM     27  C   UNL     1     101.065 124.564 148.383  0.00  0.00    +0.000 C 
ENDBRANCH  11  26
TORSDOF 5
ENDMDL
MODEL 10
REMARK VINA RESULT:      -7.6     10.391     12.655
REMARK  Name = 14704513
REMARK  5 active torsions:
REMARK  status: ('A' for Active; 'I' for Inactive)
REMARK    1  A    between atoms: O_2  and  C_13
REMARK    2  A    between atoms: O_3  and  C_17
REMARK    3  A    between atoms: O_4  and  C_19
REMARK    4  A    between atoms: O_6  and  C_22
REMARK    5  A    between atoms: C_9  and  C_10
REMARK                            x       y       z     vdW  Elec       q    Type
REMARK                         _______ _______ _______ _____ _____    ______ ____
ROOT
ATOM      1  O   UNL     1     112.454 126.263 138.092  0.00  0.00    +0.000 OA
ATOM      2  O   UNL     1     114.027 124.200 136.820  0.00  0.00    +0.000 OA
ATOM      3  O   UNL     1     114.599 125.056 137.830  0.00  0.00    +0.000 OA
ATOM      4  C   UNL     1     113.107 126.479 138.548  0.00  0.00    +0.000 A 
ATOM      5  C   UNL     1     113.231 125.243 137.462  0.00  0.00    +0.000 A 
ATOM      6  C   UNL     1     112.516 125.645 137.549  0.00  0.00    +0.000 A 
ATOM      7  C   UNL     1     113.822 126.077 138.460  0.00  0.00    +0.000 A 
ATOM      8  C   UNL     1     113.884 125.458 137.917  0.00  0.00    +0.000 A 
ATOM      9  C   UNL     1     113.309 124.596 136.900  0.00  0.00    +0.000 A 
ATOM     10  C   UNL     1     111.829 125.429 137.080  0.00  0.00    +0.000 A 
ATOM     11  C   UNL     1     111.887 124.786 136.514  0.00  0.00    +0.000 A 
ATOM     12  C   UNL     1     112.633 124.367 136.423  0.00  0.00    +0.000 A 
ENDROOT
BRANCH   4  14
ATOM     13  O   UNL     1     113.294 129.265 139.157  0.00  0.00    +0.000 OA
ATOM     14  C   UNL     1     113.045 127.097 139.090  0.00  0.00    +0.000 A 
ATOM     15  C   UNL     1     113.200 127.872 138.852  0.00  0.00    +0.000 A 
ATOM     16  C   UNL     1     112.828 126.942 139.871  0.00  0.00    +0.000 A 
ATOM     17  C   UNL     1     112.766 127.559 140.413  0.00  0.00    +0.000 A 
ATOM     18  C   UNL     1     113.138 128.491 139.395  0.00  0.00    +0.000 A 
ATOM     19  C   UNL     1     112.921 128.334 140.175  0.00  0.00    +0.000 A 
BRANCH  15  20
ATOM     20  O   UNL     1     113.418 128.028 138.072  0.00  0.00    +0.000 OA
ATOM     21  C   UNL     1     113.289 128.777 137.750  0.00  0.00    +0.000 C 
ENDBRANCH  15  20
BRANCH  17  22
ATOM     22  O   UNL     1     112.549 127.404 141.194  0.00  0.00    +0.000 OA
ATOM     23  C   UNL     1     112.029 126.786 141.361  0.00  0.00    +0.000 C 
ENDBRANCH  17  22
BRANCH  19  24
ATOM     24  O   UNL     1     112.859 128.953 140.718  0.00  0.00    +0.000 OA
ATOM     25  C   UNL     1     113.535 129.239 141.095  0.00  0.00    +0.000 C 
ENDBRANCH  19  24
ENDBRANCH   4  14
BRANCH  11  26
ATOM     26  O   UNL     1     111.233 124.572 136.059  0.00  0.00    +0.000 OA
ATOM     27  C   UNL     1     110.883 125.123 135.555  0.00  0.00    +0.000 C 
ENDBRANCH  11  26
TORSDOF 5
ENDMDL
