MODEL 1
REMARK VINA RESULT:      -8.6      0.000      0.000
REMARK  Name = 131750808
REMARK  4 active torsions:
REMARK  status: ('A' for Active; 'I' for Inactive)
REMARK    1  A    between atoms: S_1  and  O_4
REMARK    2  A    between atoms: O_4  and  C_21
REMARK    3  A    between atoms: O_6  and  C_23
REMARK    4  A    between atoms: C_11  and  C_13
REMARK                            x       y       z     vdW  Elec       q    Type
REMARK                         _______ _______ _______ _____ _____    ______ ____
ROOT
ATOM      1  O   UNL     1     105.567 124.436 147.847  0.00  0.00    +0.000 OA
ATOM      2  O   UNL     1     106.906 125.575 146.105  0.00  0.00    +0.000 OA
ATOM      3  O   UNL     1     108.074 125.559 146.951  0.00  0.00    +0.000 OA
ATOM      4  O   UNL     1     107.883 124.367 149.611  0.00  0.00    +0.000 OA
ATOM      5  C   UNL     1     105.219 124.641 147.126  0.00  0.00    +0.000 C 
ATOM      6  C   UNL     1     105.665 125.021 146.546  0.00  0.00    +0.000 C 
ATOM      7  C   UNL     1     106.459 125.196 146.685  0.00  0.00    +0.000 C 
ATOM      8  C   UNL     1     106.807 124.991 147.404  0.00  0.00    +0.000 A 
ATOM      9  C   UNL     1     106.361 124.612 147.985  0.00  0.00    +0.000 A 
ATOM     10  C   UNL     1     107.635 125.179 147.537  0.00  0.00    +0.000 A 
ATOM     11  C   UNL     1     106.712 124.394 148.739  0.00  0.00    +0.000 A 
ATOM     12  C   UNL     1     107.538 124.574 148.889  0.00  0.00    +0.000 A 
ATOM     13  C   UNL     1     108.003 124.969 148.285  0.00  0.00    +0.000 A 
ENDROOT
BRANCH   5  14
ATOM     14  C   UNL     1     104.425 124.466 146.988  0.00  0.00    +0.000 A 
ATOM     15  C   UNL     1     103.835 124.856 147.413  0.00  0.00    +0.000 A 
ATOM     16  C   UNL     1     104.220 123.899 146.424  0.00  0.00    +0.000 A 
ATOM     17  C   UNL     1     103.041 124.680 147.274  0.00  0.00    +0.000 A 
ATOM     18  C   UNL     1     103.426 123.723 146.286  0.00  0.00    +0.000 A 
ATOM     19  C   UNL     1     102.837 124.114 146.710  0.00  0.00    +0.000 A 
BRANCH  19  20
ATOM     20  O   UNL     1     102.043 123.938 146.571  0.00  0.00    +0.000 OA
ATOM     21  C   UNL     1     101.837 123.394 145.987  0.00  0.00    +0.000 C 
ENDBRANCH  19  20
BRANCH  17  22
ATOM     22  O   UNL     1     102.452 125.071 147.699  0.00  0.00    +0.000 OA
BRANCH  22  23
ATOM     23  S   UNL     1     102.646 125.494 148.381  0.00  0.00    +0.000 S 
ATOM     24  O   UNL     1     102.840 125.916 149.062  0.00  0.00    +0.000 OA
ATOM     25  O   UNL     1     102.574 124.804 148.828  0.00  0.00    +0.000 OA
ATOM     26  O   UNL     1     102.717 126.183 147.932  0.00  0.00    +0.000 OA
ENDBRANCH  22  23
ENDBRANCH  17  22
ENDBRANCH   5  14
TORSDOF 4
ENDMDL
MODEL 2
REMARK VINA RESULT:      -8.4      1.223      1.923
REMARK  Name = 131750808
REMARK  4 active torsions:
REMARK  status: ('A' for Active; 'I' for Inactive)
REMARK    1  A    between atoms: S_1  and  O_4
REMARK    2  A    between atoms: O_4  and  C_21
REMARK    3  A    between atoms: O_6  and  C_23
REMARK    4  A    between atoms: C_11  and  C_13
REMARK                            x       y       z     vdW  Elec       q    Type
REMARK                         _______ _______ _______ _____ _____    ______ ____
ROOT
ATOM      1  O   UNL     1     105.713 124.607 148.047  0.00  0.00    +0.000 OA
ATOM      2  O   UNL     1     106.974 125.946 146.390  0.00  0.00    +0.000 OA
ATOM      3  O   UNL     1     108.195 125.776 147.139  0.00  0.00    +0.000 OA
ATOM      4  O   UNL     1     108.139 124.222 149.612  0.00  0.00    +0.000 OA
ATOM      5  C   UNL     1     105.326 124.922 147.389  0.00  0.00    +0.000 C 
ATOM      6  C   UNL     1     105.746 125.369 146.837  0.00  0.00    +0.000 C 
ATOM      7  C   UNL     1     106.554 125.500 146.943  0.00  0.00    +0.000 C 
ATOM      8  C   UNL     1     106.941 125.185 147.599  0.00  0.00    +0.000 A 
ATOM      9  C   UNL     1     106.521 124.739 148.151  0.00  0.00    +0.000 A 
ATOM     10  C   UNL     1     107.783 125.329 147.697  0.00  0.00    +0.000 A 
ATOM     11  C   UNL     1     106.914 124.405 148.839  0.00  0.00    +0.000 A 
ATOM     12  C   UNL     1     107.754 124.539 148.953  0.00  0.00    +0.000 A 
ATOM     13  C   UNL     1     108.192 125.003 148.379  0.00  0.00    +0.000 A 
ENDROOT
BRANCH   5  14
ATOM     14  C   UNL     1     104.518 124.790 147.285  0.00  0.00    +0.000 A 
ATOM     15  C   UNL     1     104.259 124.188 146.785  0.00  0.00    +0.000 A 
ATOM     16  C   UNL     1     103.969 125.262 147.682  0.00  0.00    +0.000 A 
ATOM     17  C   UNL     1     103.451 124.057 146.682  0.00  0.00    +0.000 A 
ATOM     18  C   UNL     1     103.162 125.131 147.578  0.00  0.00    +0.000 A 
ATOM     19  C   UNL     1     102.902 124.528 147.078  0.00  0.00    +0.000 A 
BRANCH  19  20
ATOM     20  O   UNL     1     102.094 124.397 146.975  0.00  0.00    +0.000 OA
ATOM     21  C   UNL     1     101.552 124.724 147.503  0.00  0.00    +0.000 C 
ENDBRANCH  19  20
BRANCH  17  22
ATOM     22  O   UNL     1     103.192 123.454 146.181  0.00  0.00    +0.000 OA
BRANCH  22  23
ATOM     23  S   UNL     1     103.644 123.239 145.525  0.00  0.00    +0.000 S 
ATOM     24  O   UNL     1     104.097 123.024 144.870  0.00  0.00    +0.000 OA
ATOM     25  O   UNL     1     103.192 123.739 145.050  0.00  0.00    +0.000 OA
ATOM     26  O   UNL     1     104.096 122.739 146.002  0.00  0.00    +0.000 OA
ENDBRANCH  22  23
ENDBRANCH  17  22
ENDBRANCH   5  14
TORSDOF 4
ENDMDL
MODEL 3
REMARK VINA RESULT:      -8.3      1.237      4.646
REMARK  Name = 131750808
REMARK  4 active torsions:
REMARK  status: ('A' for Active; 'I' for Inactive)
REMARK    1  A    between atoms: S_1  and  O_4
REMARK    2  A    between atoms: O_4  and  C_21
REMARK    3  A    between atoms: O_6  and  C_23
REMARK    4  A    between atoms: C_11  and  C_13
REMARK                            x       y       z     vdW  Elec       q    Type
REMARK                         _______ _______ _______ _____ _____    ______ ____
ROOT
ATOM      1  O   UNL     1     104.249 124.034 146.946  0.00  0.00    +0.000 OA
ATOM      2  O   UNL     1     102.511 125.373 148.091  0.00  0.00    +0.000 OA
ATOM      3  O   UNL     1     101.480 124.793 147.266  0.00  0.00    +0.000 OA
ATOM      4  O   UNL     1     102.222 122.821 145.243  0.00  0.00    +0.000 OA
ATOM      5  C   UNL     1     104.460 124.553 147.553  0.00  0.00    +0.000 C 
ATOM      6  C   UNL     1     103.881 124.999 147.935  0.00  0.00    +0.000 C 
ATOM      7  C   UNL     1     103.090 124.927 147.710  0.00  0.00    +0.000 C 
ATOM      8  C   UNL     1     102.879 124.409 147.104  0.00  0.00    +0.000 A 
ATOM      9  C   UNL     1     103.459 123.963 146.722  0.00  0.00    +0.000 A 
ATOM     10  C   UNL     1     102.052 124.343 146.878  0.00  0.00    +0.000 A 
ATOM     11  C   UNL     1     103.251 123.419 146.089  0.00  0.00    +0.000 A 
ATOM     12  C   UNL     1     102.430 123.340 145.851  0.00  0.00    +0.000 A 
ATOM     13  C   UNL     1     101.826 123.805 146.248  0.00  0.00    +0.000 A 
ENDROOT
BRANCH   5  14
ATOM     14  C   UNL     1     105.251 124.624 147.777  0.00  0.00    +0.000 A 
ATOM     15  C   UNL     1     105.796 124.972 147.265  0.00  0.00    +0.000 A 
ATOM     16  C   UNL     1     105.497 124.347 148.515  0.00  0.00    +0.000 A 
ATOM     17  C   UNL     1     106.586 125.043 147.491  0.00  0.00    +0.000 A 
ATOM     18  C   UNL     1     106.287 124.418 148.740  0.00  0.00    +0.000 A 
ATOM     19  C   UNL     1     106.832 124.766 148.227  0.00  0.00    +0.000 A 
BRANCH  19  20
ATOM     20  O   UNL     1     107.623 124.837 148.453  0.00  0.00    +0.000 OA
ATOM     21  C   UNL     1     107.877 124.521 149.170  0.00  0.00    +0.000 C 
ENDBRANCH  19  20
BRANCH  17  22
ATOM     22  O   UNL     1     107.131 125.391 146.978  0.00  0.00    +0.000 OA
BRANCH  22  23
ATOM     23  S   UNL     1     106.893 125.639 146.228  0.00  0.00    +0.000 S 
ATOM     24  O   UNL     1     106.654 125.887 145.479  0.00  0.00    +0.000 OA
ATOM     25  O   UNL     1     107.077 124.895 145.924  0.00  0.00    +0.000 OA
ATOM     26  O   UNL     1     106.708 126.383 146.533  0.00  0.00    +0.000 OA
ENDBRANCH  22  23
ENDBRANCH  17  22
ENDBRANCH   5  14
TORSDOF 4
ENDMDL
MODEL 4
REMARK VINA RESULT:      -8.1      1.580      4.670
REMARK  Name = 131750808
REMARK  4 active torsions:
REMARK  status: ('A' for Active; 'I' for Inactive)
REMARK    1  A    between atoms: S_1  and  O_4
REMARK    2  A    between atoms: O_4  and  C_21
REMARK    3  A    between atoms: O_6  and  C_23
REMARK    4  A    between atoms: C_11  and  C_13
REMARK                            x       y       z     vdW  Elec       q    Type
REMARK                         _______ _______ _______ _____ _____    ______ ____
ROOT
ATOM      1  O   UNL     1     103.820 124.768 147.080  0.00  0.00    +0.000 OA
ATOM      2  O   UNL     1     103.250 122.768 145.738  0.00  0.00    +0.000 OA
ATOM      3  O   UNL     1     101.866 122.862 146.132  0.00  0.00    +0.000 OA
ATOM      4  O   UNL     1     101.042 125.021 147.918  0.00  0.00    +0.000 OA
ATOM      5  C   UNL     1     104.408 124.376 146.653  0.00  0.00    +0.000 C 
ATOM      6  C   UNL     1     104.218 123.709 146.206  0.00  0.00    +0.000 C 
ATOM      7  C   UNL     1     103.440 123.434 146.185  0.00  0.00    +0.000 C 
ATOM      8  C   UNL     1     102.853 123.826 146.612  0.00  0.00    +0.000 A 
ATOM      9  C   UNL     1     103.043 124.492 147.059  0.00  0.00    +0.000 A 
ATOM     10  C   UNL     1     102.046 123.529 146.582  0.00  0.00    +0.000 A 
ATOM     11  C   UNL     1     102.439 124.909 147.508  0.00  0.00    +0.000 A 
ATOM     12  C   UNL     1     101.628 124.627 147.490  0.00  0.00    +0.000 A 
ATOM     13  C   UNL     1     101.430 123.933 147.024  0.00  0.00    +0.000 A 
ENDROOT
BRANCH   5  14
ATOM     14  C   UNL     1     105.185 124.651 146.674  0.00  0.00    +0.000 A 
ATOM     15  C   UNL     1     105.499 125.051 146.025  0.00  0.00    +0.000 A 
ATOM     16  C   UNL     1     105.648 124.526 147.346  0.00  0.00    +0.000 A 
ATOM     17  C   UNL     1     106.277 125.326 146.047  0.00  0.00    +0.000 A 
ATOM     18  C   UNL     1     106.426 124.802 147.367  0.00  0.00    +0.000 A 
ATOM     19  C   UNL     1     106.740 125.202 146.718  0.00  0.00    +0.000 A 
BRANCH  19  20
ATOM     20  O   UNL     1     107.518 125.477 146.740  0.00  0.00    +0.000 OA
ATOM     21  C   UNL     1     107.963 125.399 147.429  0.00  0.00    +0.000 C 
ENDBRANCH  19  20
BRANCH  17  22
ATOM     22  O   UNL     1     106.591 125.726 145.398  0.00  0.00    +0.000 OA
BRANCH  22  23
ATOM     23  S   UNL     1     106.117 125.882 144.740  0.00  0.00    +0.000 S 
ATOM     24  O   UNL     1     105.644 126.038 144.083  0.00  0.00    +0.000 OA
ATOM     25  O   UNL     1     105.857 126.581 145.094  0.00  0.00    +0.000 OA
ATOM     26  O   UNL     1     106.379 125.184 144.387  0.00  0.00    +0.000 OA
ENDBRANCH  22  23
ENDBRANCH  17  22
ENDBRANCH   5  14
TORSDOF 4
ENDMDL
MODEL 5
REMARK VINA RESULT:      -8.0     13.348     14.645
REMARK  Name = 131750808
REMARK  4 active torsions:
REMARK  status: ('A' for Active; 'I' for Inactive)
REMARK    1  A    between atoms: S_1  and  O_4
REMARK    2  A    between atoms: O_4  and  C_21
REMARK    3  A    between atoms: O_6  and  C_23
REMARK    4  A    between atoms: C_11  and  C_13
REMARK                            x       y       z     vdW  Elec       q    Type
REMARK                         _______ _______ _______ _____ _____    ______ ____
ROOT
ATOM      1  O   UNL     1     113.760 128.127 135.832  0.00  0.00    +0.000 OA
ATOM      2  O   UNL     1     113.266 129.602 137.757  0.00  0.00    +0.000 OA
ATOM      3  O   UNL     1     114.056 130.664 137.183  0.00  0.00    +0.000 OA
ATOM      4  O   UNL     1     115.371 130.224 134.612  0.00  0.00    +0.000 OA
ATOM      5  C   UNL     1     113.283 127.855 136.448  0.00  0.00    +0.000 C 
ATOM      6  C   UNL     1     113.118 128.347 137.090  0.00  0.00    +0.000 C 
ATOM      7  C   UNL     1     113.431 129.110 137.115  0.00  0.00    +0.000 C 
ATOM      8  C   UNL     1     113.907 129.382 136.499  0.00  0.00    +0.000 A 
ATOM      9  C   UNL     1     114.072 128.890 135.858  0.00  0.00    +0.000 A 
ATOM     10  C   UNL     1     114.226 130.179 136.537  0.00  0.00    +0.000 A 
ATOM     11  C   UNL     1     114.567 129.161 135.209  0.00  0.00    +0.000 A 
ATOM     12  C   UNL     1     114.895 129.955 135.230  0.00  0.00    +0.000 A 
ATOM     13  C   UNL     1     114.723 130.467 135.898  0.00  0.00    +0.000 A 
ENDROOT
BRANCH   5  14
ATOM     14  C   UNL     1     112.971 127.092 136.422  0.00  0.00    +0.000 A 
ATOM     15  C   UNL     1     113.426 126.451 136.674  0.00  0.00    +0.000 A 
ATOM     16  C   UNL     1     112.203 126.970 136.145  0.00  0.00    +0.000 A 
ATOM     17  C   UNL     1     113.113 125.688 136.647  0.00  0.00    +0.000 A 
ATOM     18  C   UNL     1     111.891 126.206 136.119  0.00  0.00    +0.000 A 
ATOM     19  C   UNL     1     112.346 125.566 136.370  0.00  0.00    +0.000 A 
BRANCH  19  20
ATOM     20  O   UNL     1     112.033 124.803 136.344  0.00  0.00    +0.000 OA
ATOM     21  C   UNL     1     111.262 124.682 136.078  0.00  0.00    +0.000 C 
ENDBRANCH  19  20
BRANCH  17  22
ATOM     22  O   UNL     1     113.568 125.047 136.898  0.00  0.00    +0.000 OA
BRANCH  22  23
ATOM     23  S   UNL     1     114.326 125.172 137.200  0.00  0.00    +0.000 S 
ATOM     24  O   UNL     1     115.083 125.297 137.502  0.00  0.00    +0.000 OA
ATOM     25  O   UNL     1     114.641 125.090 136.442  0.00  0.00    +0.000 OA
ATOM     26  O   UNL     1     114.010 125.254 137.958  0.00  0.00    +0.000 OA
ENDBRANCH  22  23
ENDBRANCH  17  22
ENDBRANCH   5  14
TORSDOF 4
ENDMDL
MODEL 6
REMARK VINA RESULT:      -8.0     11.378     12.784
REMARK  Name = 131750808
REMARK  4 active torsions:
REMARK  status: ('A' for Active; 'I' for Inactive)
REMARK    1  A    between atoms: S_1  and  O_4
REMARK    2  A    between atoms: O_4  and  C_21
REMARK    3  A    between atoms: O_6  and  C_23
REMARK    4  A    between atoms: C_11  and  C_13
REMARK                            x       y       z     vdW  Elec       q    Type
REMARK                         _______ _______ _______ _____ _____    ______ ____
ROOT
ATOM      1  O   UNL     1     110.563 127.426 136.192  0.00  0.00    +0.000 OA
ATOM      2  O   UNL     1     108.090 127.338 136.126  0.00  0.00    +0.000 OA
ATOM      3  O   UNL     1     108.024 128.711 135.689  0.00  0.00    +0.000 OA
ATOM      4  O   UNL     1     110.508 130.202 135.312  0.00  0.00    +0.000 OA
ATOM      5  C   UNL     1     110.169 126.730 136.398  0.00  0.00    +0.000 C 
ATOM      6  C   UNL     1     109.345 126.701 136.375  0.00  0.00    +0.000 C 
ATOM      7  C   UNL     1     108.915 127.368 136.148  0.00  0.00    +0.000 C 
ATOM      8  C   UNL     1     109.308 128.063 135.943  0.00  0.00    +0.000 A 
ATOM      9  C   UNL     1     110.132 128.092 135.965  0.00  0.00    +0.000 A 
ATOM     10  C   UNL     1     108.848 128.750 135.708  0.00  0.00    +0.000 A 
ATOM     11  C   UNL     1     110.553 128.811 135.754  0.00  0.00    +0.000 A 
ATOM     12  C   UNL     1     110.111 129.508 135.517  0.00  0.00    +0.000 A 
ATOM     13  C   UNL     1     109.252 129.477 135.494  0.00  0.00    +0.000 A 
ENDROOT
BRANCH   5  14
ATOM     14  C   UNL     1     110.600 126.065 136.624  0.00  0.00    +0.000 A 
ATOM     15  C   UNL     1     110.818 125.963 137.414  0.00  0.00    +0.000 A 
ATOM     16  C   UNL     1     110.813 125.500 136.061  0.00  0.00    +0.000 A 
ATOM     17  C   UNL     1     111.249 125.297 137.639  0.00  0.00    +0.000 A 
ATOM     18  C   UNL     1     111.244 124.834 136.288  0.00  0.00    +0.000 A 
ATOM     19  C   UNL     1     111.462 124.733 137.077  0.00  0.00    +0.000 A 
BRANCH  19  20
ATOM     20  O   UNL     1     111.893 124.066 137.303  0.00  0.00    +0.000 OA
ATOM     21  C   UNL     1     112.125 123.513 136.737  0.00  0.00    +0.000 C 
ENDBRANCH  19  20
BRANCH  17  22
ATOM     22  O   UNL     1     111.467 125.195 138.429  0.00  0.00    +0.000 OA
BRANCH  22  23
ATOM     23  S   UNL     1     111.303 125.786 138.982  0.00  0.00    +0.000 S 
ATOM     24  O   UNL     1     111.138 126.375 139.534  0.00  0.00    +0.000 OA
ATOM     25  O   UNL     1     112.013 126.159 138.793  0.00  0.00    +0.000 OA
ATOM     26  O   UNL     1     110.592 125.411 139.170  0.00  0.00    +0.000 OA
ENDBRANCH  22  23
ENDBRANCH  17  22
ENDBRANCH   5  14
TORSDOF 4
ENDMDL
MODEL 7
REMARK VINA RESULT:      -7.9     10.146     11.939
REMARK  Name = 131750808
REMARK  4 active torsions:
REMARK  status: ('A' for Active; 'I' for Inactive)
REMARK    1  A    between atoms: S_1  and  O_4
REMARK    2  A    between atoms: O_4  and  C_21
REMARK    3  A    between atoms: O_6  and  C_23
REMARK    4  A    between atoms: C_11  and  C_13
REMARK                            x       y       z     vdW  Elec       q    Type
REMARK                         _______ _______ _______ _____ _____    ______ ____
ROOT
ATOM      1  O   UNL     1     112.243 126.304 138.686  0.00  0.00    +0.000 OA
ATOM      2  O   UNL     1     110.622 126.002 140.533  0.00  0.00    +0.000 OA
ATOM      3  O   UNL     1     111.570 126.521 141.488  0.00  0.00    +0.000 OA
ATOM      4  O   UNL     1     114.208 127.361 140.557  0.00  0.00    +0.000 OA
ATOM      5  C   UNL     1     111.493 125.995 138.531  0.00  0.00    +0.000 C 
ATOM      6  C   UNL     1     110.953 125.894 139.147  0.00  0.00    +0.000 C 
ATOM      7  C   UNL     1     111.162 126.103 139.917  0.00  0.00    +0.000 C 
ATOM      8  C   UNL     1     111.911 126.411 140.072  0.00  0.00    +0.000 A 
ATOM      9  C   UNL     1     112.451 126.512 139.457  0.00  0.00    +0.000 A 
ATOM     10  C   UNL     1     112.117 126.625 140.879  0.00  0.00    +0.000 A 
ATOM     11  C   UNL     1     113.235 126.833 139.606  0.00  0.00    +0.000 A 
ATOM     12  C   UNL     1     113.458 127.052 140.406  0.00  0.00    +0.000 A 
ATOM     13  C   UNL     1     112.895 126.947 141.047  0.00  0.00    +0.000 A 
ENDROOT
BRANCH   5  14
ATOM     14  C   UNL     1     111.285 125.786 137.761  0.00  0.00    +0.000 A 
ATOM     15  C   UNL     1     111.594 125.102 137.420  0.00  0.00    +0.000 A 
ATOM     16  C   UNL     1     110.766 126.264 137.331  0.00  0.00    +0.000 A 
ATOM     17  C   UNL     1     111.385 124.895 136.649  0.00  0.00    +0.000 A 
ATOM     18  C   UNL     1     110.558 126.055 136.561  0.00  0.00    +0.000 A 
ATOM     19  C   UNL     1     110.867 125.371 136.220  0.00  0.00    +0.000 A 
BRANCH  19  20
ATOM     20  O   UNL     1     110.658 125.164 135.449  0.00  0.00    +0.000 OA
ATOM     21  C   UNL     1     110.122 125.627 135.028  0.00  0.00    +0.000 C 
ENDBRANCH  19  20
BRANCH  17  22
ATOM     22  O   UNL     1     111.695 124.210 136.308  0.00  0.00    +0.000 OA
BRANCH  22  23
ATOM     23  S   UNL     1     112.311 123.806 136.680  0.00  0.00    +0.000 S 
ATOM     24  O   UNL     1     112.926 123.402 137.052  0.00  0.00    +0.000 OA
ATOM     25  O   UNL     1     112.859 124.289 136.297  0.00  0.00    +0.000 OA
ATOM     26  O   UNL     1     111.762 123.323 137.063  0.00  0.00    +0.000 OA
ENDBRANCH  22  23
ENDBRANCH  17  22
ENDBRANCH   5  14
TORSDOF 4
ENDMDL
MODEL 8
REMARK VINA RESULT:      -7.9     12.930     13.944
REMARK  Name = 131750808
REMARK  4 active torsions:
REMARK  status: ('A' for Active; 'I' for Inactive)
REMARK    1  A    between atoms: S_1  and  O_4
REMARK    2  A    between atoms: O_4  and  C_21
REMARK    3  A    between atoms: O_6  and  C_23
REMARK    4  A    between atoms: C_11  and  C_13
REMARK                            x       y       z     vdW  Elec       q    Type
REMARK                         _______ _______ _______ _____ _____    ______ ____
ROOT
ATOM      1  O   UNL     1     113.247 127.409 136.060  0.00  0.00    +0.000 OA
ATOM      2  O   UNL     1     112.637 128.793 138.019  0.00  0.00    +0.000 OA
ATOM      3  O   UNL     1     113.375 129.915 137.493  0.00  0.00    +0.000 OA
ATOM      4  O   UNL     1     114.757 129.631 134.936  0.00  0.00    +0.000 OA
ATOM      5  C   UNL     1     112.776 127.092 136.659  0.00  0.00    +0.000 C 
ATOM      6  C   UNL     1     112.573 127.553 137.312  0.00  0.00    +0.000 C 
ATOM      7  C   UNL     1     112.841 128.332 137.366  0.00  0.00    +0.000 C 
ATOM      8  C   UNL     1     113.311 128.649 136.768  0.00  0.00    +0.000 A 
ATOM      9  C   UNL     1     113.515 128.187 136.115  0.00  0.00    +0.000 A 
ATOM     10  C   UNL     1     113.584 129.461 136.836  0.00  0.00    +0.000 A 
ATOM     11  C   UNL     1     114.005 128.507 135.485  0.00  0.00    +0.000 A 
ATOM     12  C   UNL     1     114.286 129.317 135.536  0.00  0.00    +0.000 A 
ATOM     13  C   UNL     1     114.075 129.797 136.216  0.00  0.00    +0.000 A 
ENDROOT
BRANCH   5  14
ATOM     14  C   UNL     1     112.509 126.313 136.604  0.00  0.00    +0.000 A 
ATOM     15  C   UNL     1     111.809 126.144 136.202  0.00  0.00    +0.000 A 
ATOM     16  C   UNL     1     112.943 125.703 136.952  0.00  0.00    +0.000 A 
ATOM     17  C   UNL     1     111.542 125.365 136.147  0.00  0.00    +0.000 A 
ATOM     18  C   UNL     1     112.676 124.925 136.897  0.00  0.00    +0.000 A 
ATOM     19  C   UNL     1     111.975 124.756 136.494  0.00  0.00    +0.000 A 
BRANCH  19  20
ATOM     20  O   UNL     1     111.709 123.977 136.440  0.00  0.00    +0.000 OA
ATOM     21  C   UNL     1     112.099 123.377 136.850  0.00  0.00    +0.000 C 
ENDBRANCH  19  20
BRANCH  17  22
ATOM     22  O   UNL     1     110.842 125.196 135.745  0.00  0.00    +0.000 OA
BRANCH  22  23
ATOM     23  S   UNL     1     110.385 125.811 135.436  0.00  0.00    +0.000 S 
ATOM     24  O   UNL     1     109.928 126.424 135.128  0.00  0.00    +0.000 OA
ATOM     25  O   UNL     1     109.984 125.873 136.155  0.00  0.00    +0.000 OA
ATOM     26  O   UNL     1     110.786 125.747 134.718  0.00  0.00    +0.000 OA
ENDBRANCH  22  23
ENDBRANCH  17  22
ENDBRANCH   5  14
TORSDOF 4
ENDMDL
MODEL 9
REMARK VINA RESULT:      -7.9     13.640     14.552
REMARK  Name = 131750808
REMARK  4 active torsions:
REMARK  status: ('A' for Active; 'I' for Inactive)
REMARK    1  A    between atoms: S_1  and  O_4
REMARK    2  A    between atoms: O_4  and  C_21
REMARK    3  A    between atoms: O_6  and  C_23
REMARK    4  A    between atoms: C_11  and  C_13
REMARK                            x       y       z     vdW  Elec       q    Type
REMARK                         _______ _______ _______ _____ _____    ______ ____
ROOT
ATOM      1  O   UNL     1     113.530 126.864 137.004  0.00  0.00    +0.000 OA
ATOM      2  O   UNL     1     111.669 125.653 135.911  0.00  0.00    +0.000 OA
ATOM      3  O   UNL     1     112.306 124.384 136.166  0.00  0.00    +0.000 OA
ATOM      4  O   UNL     1     114.877 124.341 137.553  0.00  0.00    +0.000 OA
ATOM      5  C   UNL     1     112.893 127.284 136.689  0.00  0.00    +0.000 C 
ATOM      6  C   UNL     1     112.272 126.880 136.325  0.00  0.00    +0.000 C 
ATOM      7  C   UNL     1     112.289 126.056 136.276  0.00  0.00    +0.000 C 
ATOM      8  C   UNL     1     112.926 125.637 136.590  0.00  0.00    +0.000 A 
ATOM      9  C   UNL     1     113.546 126.041 136.954  0.00  0.00    +0.000 A 
ATOM     10  C   UNL     1     112.931 124.779 136.532  0.00  0.00    +0.000 A 
ATOM     11  C   UNL     1     114.215 125.615 137.286  0.00  0.00    +0.000 A 
ATOM     12  C   UNL     1     114.238 124.757 137.237  0.00  0.00    +0.000 A 
ATOM     13  C   UNL     1     113.592 124.337 136.858  0.00  0.00    +0.000 A 
ENDROOT
BRANCH   5  14
ATOM     14  C   UNL     1     112.877 128.107 136.739  0.00  0.00    +0.000 A 
ATOM     15  C   UNL     1     113.296 128.562 136.194  0.00  0.00    +0.000 A 
ATOM     16  C   UNL     1     112.441 128.475 137.335  0.00  0.00    +0.000 A 
ATOM     17  C   UNL     1     113.280 129.385 136.245  0.00  0.00    +0.000 A 
ATOM     18  C   UNL     1     112.425 129.298 137.385  0.00  0.00    +0.000 A 
ATOM     19  C   UNL     1     112.844 129.753 136.840  0.00  0.00    +0.000 A 
BRANCH  19  20
ATOM     20  O   UNL     1     112.828 130.577 136.891  0.00  0.00    +0.000 OA
ATOM     21  C   UNL     1     112.349 130.946 137.451  0.00  0.00    +0.000 C 
ENDBRANCH  19  20
BRANCH  17  22
ATOM     22  O   UNL     1     113.699 129.840 135.699  0.00  0.00    +0.000 OA
BRANCH  22  23
ATOM     23  S   UNL     1     114.202 129.474 135.155  0.00  0.00    +0.000 S 
ATOM     24  O   UNL     1     114.703 129.109 134.612  0.00  0.00    +0.000 OA
ATOM     25  O   UNL     1     114.820 129.516 135.699  0.00  0.00    +0.000 OA
ATOM     26  O   UNL     1     113.582 129.433 134.612  0.00  0.00    +0.000 OA
ENDBRANCH  22  23
ENDBRANCH  17  22
ENDBRANCH   5  14
TORSDOF 4
ENDMDL
MODEL 10
REMARK VINA RESULT:      -7.8      2.569      4.157
REMARK  Name = 131750808
REMARK  4 active torsions:
REMARK  status: ('A' for Active; 'I' for Inactive)
REMARK    1  A    between atoms: S_1  and  O_4
REMARK    2  A    between atoms: O_4  and  C_21
REMARK    3  A    between atoms: O_6  and  C_23
REMARK    4  A    between atoms: C_11  and  C_13
REMARK                            x       y       z     vdW  Elec       q    Type
REMARK                         _______ _______ _______ _____ _____    ______ ____
ROOT
ATOM      1  O   UNL     1     106.240 126.054 147.542  0.00  0.00    +0.000 OA
ATOM      2  O   UNL     1     108.393 124.947 148.060  0.00  0.00    +0.000 OA
ATOM      3  O   UNL     1     107.770 124.155 149.093  0.00  0.00    +0.000 OA
ATOM      4  O   UNL     1     104.915 124.490 149.610  0.00  0.00    +0.000 OA
ATOM      5  C   UNL     1     106.921 126.255 147.120  0.00  0.00    +0.000 C 
ATOM      6  C   UNL     1     107.638 125.887 147.292  0.00  0.00    +0.000 C 
ATOM      7  C   UNL     1     107.675 125.316 147.887  0.00  0.00    +0.000 C 
ATOM      8  C   UNL     1     106.996 125.115 148.309  0.00  0.00    +0.000 A 
ATOM      9  C   UNL     1     106.279 125.484 148.137  0.00  0.00    +0.000 A 
ATOM     10  C   UNL     1     107.048 124.519 148.927  0.00  0.00    +0.000 A 
ATOM     11  C   UNL     1     105.564 125.282 148.569  0.00  0.00    +0.000 A 
ATOM     12  C   UNL     1     105.597 124.689 149.190  0.00  0.00    +0.000 A 
ATOM     13  C   UNL     1     106.344 124.305 149.370  0.00  0.00    +0.000 A 
ENDROOT
BRANCH   5  14
ATOM     14  C   UNL     1     106.882 126.826 146.525  0.00  0.00    +0.000 A 
ATOM     15  C   UNL     1     106.608 126.622 145.774  0.00  0.00    +0.000 A 
ATOM     16  C   UNL     1     107.118 127.601 146.682  0.00  0.00    +0.000 A 
ATOM     17  C   UNL     1     106.570 127.193 145.180  0.00  0.00    +0.000 A 
ATOM     18  C   UNL     1     107.079 128.172 146.087  0.00  0.00    +0.000 A 
ATOM     19  C   UNL     1     106.806 127.968 145.336  0.00  0.00    +0.000 A 
BRANCH  19  20
ATOM     20  O   UNL     1     106.768 128.539 144.742  0.00  0.00    +0.000 OA
ATOM     21  C   UNL     1     107.056 129.299 144.881  0.00  0.00    +0.000 C 
ENDBRANCH  19  20
BRANCH  17  22
ATOM     22  O   UNL     1     106.297 126.989 144.429  0.00  0.00    +0.000 OA
BRANCH  22  23
ATOM     23  S   UNL     1     105.979 126.239 144.295  0.00  0.00    +0.000 S 
ATOM     24  O   UNL     1     105.662 125.490 144.161  0.00  0.00    +0.000 OA
ATOM     25  O   UNL     1     105.233 126.516 144.514  0.00  0.00    +0.000 OA
ATOM     26  O   UNL     1     106.725 125.963 144.076  0.00  0.00    +0.000 OA
ENDBRANCH  22  23
ENDBRANCH  17  22
ENDBRANCH   5  14
TORSDOF 4
ENDMDL
