MODEL 1
REMARK VINA RESULT:      -9.6      0.000      0.000
REMARK  Name = 44258689
REMARK  9 active torsions:
REMARK  status: ('A' for Active; 'I' for Inactive)
REMARK    1  A    between atoms: O_1  and  C_17
REMARK    2  A    between atoms: O_1  and  C_20
REMARK    3  A    between atoms: O_9  and  C_26
REMARK    4  A    between atoms: O_9  and  C_28
REMARK    5  A    between atoms: O_13  and  C_39
REMARK    6  A    between atoms: O_14  and  C_40
REMARK    7  A    between atoms: O_15  and  C_41
REMARK    8  A    between atoms: C_22  and  C_27
REMARK    9  A    between atoms: C_29  and  C_32
REMARK                            x       y       z     vdW  Elec       q    Type
REMARK                         _______ _______ _______ _____ _____    ______ ____
ROOT
ATOM      1  O   UNL     1     112.929 127.520 136.308  0.00  0.00    +0.000 OA
ATOM      2  O   UNL     1     111.231 128.765 135.007  0.00  0.00    +0.000 OA
ATOM      3  C   UNL     1     111.566 127.729 135.932  0.00  0.00    +0.000 A 
ATOM      4  C   UNL     1     112.132 127.314 136.365  0.00  0.00    +0.000 A 
ATOM      5  C   UNL     1     111.797 128.350 135.440  0.00  0.00    +0.000 A 
ATOM      6  C   UNL     1     112.593 128.556 135.382  0.00  0.00    +0.000 A 
ATOM      7  C   UNL     1     113.159 128.141 135.816  0.00  0.00    +0.000 A 
ATOM      8  C   UNL     1     112.821 129.205 134.867  0.00  0.00    +0.000 A 
ATOM      9  C   UNL     1     113.992 128.346 135.764  0.00  0.00    +0.000 A 
ATOM     10  C   UNL     1     113.650 129.424 134.802  0.00  0.00    +0.000 A 
ATOM     11  C   UNL     1     114.240 128.992 135.254  0.00  0.00    +0.000 A 
ENDROOT
BRANCH   4  13
ATOM     12  O   UNL     1     111.210 124.831 138.333  0.00  0.00    +0.000 OA
ATOM     13  C   UNL     1     111.901 126.693 136.858  0.00  0.00    +0.000 A 
ATOM     14  C   UNL     1     111.852 126.810 137.673  0.00  0.00    +0.000 A 
ATOM     15  C   UNL     1     111.720 125.956 136.534  0.00  0.00    +0.000 A 
ATOM     16  C   UNL     1     111.489 125.336 137.026  0.00  0.00    +0.000 A 
ATOM     17  C   UNL     1     111.621 126.188 138.165  0.00  0.00    +0.000 A 
ATOM     18  C   UNL     1     111.440 125.451 137.842  0.00  0.00    +0.000 A 
BRANCH  16  19
ATOM     19  O   UNL     1     111.308 124.599 136.703  0.00  0.00    +0.000 OA
ATOM     20  C   UNL     1     111.831 124.238 136.177  0.00  0.00    +0.000 C 
ENDBRANCH  16  19
BRANCH  17  21
ATOM     21  O   UNL     1     111.572 126.305 138.980  0.00  0.00    +0.000 OA
ATOM     22  C   UNL     1     112.165 126.724 139.372  0.00  0.00    +0.000 C 
ENDBRANCH  17  21
ENDBRANCH   4  13
BRANCH  11  23
ATOM     23  O   UNL     1     115.037 129.195 135.198  0.00  0.00    +0.000 OA
ATOM     24  C   UNL     1     115.254 129.979 135.056  0.00  0.00    +0.000 C 
ENDBRANCH  11  23
BRANCH   3  25
ATOM     25  O   UNL     1     110.769 127.523 135.990  0.00  0.00    +0.000 OA
BRANCH  25  33
ATOM     26  O   UNL     1     110.429 128.683 136.754  0.00  0.00    +0.000 OA
ATOM     27  O   UNL     1     108.117 128.583 135.874  0.00  0.00    +0.000 OA
ATOM     28  O   UNL     1     109.228 127.456 135.404  0.00  0.00    +0.000 OA
ATOM     29  C   UNL     1     109.103 129.212 136.695  0.00  0.00    +0.000 C 
ATOM     30  C   UNL     1     108.888 128.616 136.168  0.00  0.00    +0.000 C 
ATOM     31  C   UNL     1     109.443 128.053 135.933  0.00  0.00    +0.000 C 
ATOM     32  C   UNL     1     109.874 129.246 136.988  0.00  0.00    +0.000 C 
ATOM     33  C   UNL     1     110.214 128.086 136.225  0.00  0.00    +0.000 C 
BRANCH  29  34
ATOM     34  O   UNL     1     108.548 129.775 136.930  0.00  0.00    +0.000 OA
BRANCH  34  39
ATOM     35  O   UNL     1     109.017 130.939 136.246  0.00  0.00    +0.000 OA
ATOM     36  O   UNL     1     108.414 130.648 138.324  0.00  0.00    +0.000 OA
ATOM     37  O   UNL     1     108.816 132.248 138.337  0.00  0.00    +0.000 OA
ATOM     38  O   UNL     1     109.351 132.975 136.957  0.00  0.00    +0.000 OA
ATOM     39  C   UNL     1     108.749 130.575 136.937  0.00  0.00    +0.000 C 
ATOM     40  C   UNL     1     108.682 131.011 137.634  0.00  0.00    +0.000 C 
ATOM     41  C   UNL     1     108.883 131.812 137.640  0.00  0.00    +0.000 C 
ATOM     42  C   UNL     1     109.151 132.175 136.951  0.00  0.00    +0.000 C 
ATOM     43  C   UNL     1     109.217 131.739 136.254  0.00  0.00    +0.000 C 
BRANCH  43  45
ATOM     44  O   UNL     1     109.114 131.942 134.843  0.00  0.00    +0.000 OA
ATOM     45  C   UNL     1     109.485 132.102 135.563  0.00  0.00    +0.000 C 
ENDBRANCH  43  45
ENDBRANCH  34  39
ENDBRANCH  29  34
ENDBRANCH  25  33
ENDBRANCH   3  25
TORSDOF 9
ENDMDL
MODEL 2
REMARK VINA RESULT:      -9.6      1.126      1.892
REMARK  Name = 44258689
REMARK  9 active torsions:
REMARK  status: ('A' for Active; 'I' for Inactive)
REMARK    1  A    between atoms: O_1  and  C_17
REMARK    2  A    between atoms: O_1  and  C_20
REMARK    3  A    between atoms: O_9  and  C_26
REMARK    4  A    between atoms: O_9  and  C_28
REMARK    5  A    between atoms: O_13  and  C_39
REMARK    6  A    between atoms: O_14  and  C_40
REMARK    7  A    between atoms: O_15  and  C_41
REMARK    8  A    between atoms: C_22  and  C_27
REMARK    9  A    between atoms: C_29  and  C_32
REMARK                            x       y       z     vdW  Elec       q    Type
REMARK                         _______ _______ _______ _____ _____    ______ ____
ROOT
ATOM      1  O   UNL     1     113.114 127.830 135.806  0.00  0.00    +0.000 OA
ATOM      2  O   UNL     1     112.169 129.609 137.244  0.00  0.00    +0.000 OA
ATOM      3  C   UNL     1     112.160 128.258 136.779  0.00  0.00    +0.000 A 
ATOM      4  C   UNL     1     112.475 127.665 136.300  0.00  0.00    +0.000 A 
ATOM      5  C   UNL     1     112.484 129.016 136.764  0.00  0.00    +0.000 A 
ATOM      6  C   UNL     1     113.124 129.182 136.270  0.00  0.00    +0.000 A 
ATOM      7  C   UNL     1     113.439 128.589 135.791  0.00  0.00    +0.000 A 
ATOM      8  C   UNL     1     113.452 129.976 136.264  0.00  0.00    +0.000 A 
ATOM      9  C   UNL     1     114.104 128.749 135.272  0.00  0.00    +0.000 A 
ATOM     10  C   UNL     1     114.119 130.154 135.751  0.00  0.00    +0.000 A 
ATOM     11  C   UNL     1     114.447 129.536 135.251  0.00  0.00    +0.000 A 
ENDROOT
BRANCH   4  13
ATOM     12  O   UNL     1     111.177 124.632 136.358  0.00  0.00    +0.000 OA
ATOM     13  C   UNL     1     112.150 126.906 136.315  0.00  0.00    +0.000 A 
ATOM     14  C   UNL     1     111.622 126.673 135.726  0.00  0.00    +0.000 A 
ATOM     15  C   UNL     1     112.354 126.382 136.918  0.00  0.00    +0.000 A 
ATOM     16  C   UNL     1     112.030 125.624 136.932  0.00  0.00    +0.000 A 
ATOM     17  C   UNL     1     111.297 125.914 135.741  0.00  0.00    +0.000 A 
ATOM     18  C   UNL     1     111.501 125.389 136.344  0.00  0.00    +0.000 A 
BRANCH  16  19
ATOM     19  O   UNL     1     112.234 125.100 137.536  0.00  0.00    +0.000 OA
ATOM     20  C   UNL     1     113.028 124.949 137.701  0.00  0.00    +0.000 C 
ENDBRANCH  16  19
BRANCH  17  21
ATOM     21  O   UNL     1     110.769 125.681 135.152  0.00  0.00    +0.000 OA
ATOM     22  C   UNL     1     110.484 126.235 134.612  0.00  0.00    +0.000 C 
ENDBRANCH  17  21
ENDBRANCH   4  13
BRANCH  11  23
ATOM     23  O   UNL     1     115.087 129.699 134.756  0.00  0.00    +0.000 OA
ATOM     24  C   UNL     1     115.378 130.469 134.698  0.00  0.00    +0.000 C 
ENDBRANCH  11  23
BRANCH   3  25
ATOM     25  O   UNL     1     111.520 128.092 137.273  0.00  0.00    +0.000 OA
BRANCH  25  33
ATOM     26  O   UNL     1     110.611 128.883 136.503  0.00  0.00    +0.000 OA
ATOM     27  O   UNL     1     109.213 129.233 138.515  0.00  0.00    +0.000 OA
ATOM     28  O   UNL     1     110.587 128.326 138.615  0.00  0.00    +0.000 OA
ATOM     29  C   UNL     1     109.458 129.453 137.125  0.00  0.00    +0.000 C 
ATOM     30  C   UNL     1     109.679 129.116 137.844  0.00  0.00    +0.000 C 
ATOM     31  C   UNL     1     110.366 128.663 137.894  0.00  0.00    +0.000 C 
ATOM     32  C   UNL     1     109.924 129.336 136.454  0.00  0.00    +0.000 C 
ATOM     33  C   UNL     1     110.833 128.546 137.224  0.00  0.00    +0.000 C 
BRANCH  29  34
ATOM     34  O   UNL     1     108.770 129.906 137.075  0.00  0.00    +0.000 OA
BRANCH  34  39
ATOM     35  O   UNL     1     109.322 131.192 136.783  0.00  0.00    +0.000 OA
ATOM     36  O   UNL     1     107.649 130.116 135.883  0.00  0.00    +0.000 OA
ATOM     37  O   UNL     1     107.639 131.506 134.995  0.00  0.00    +0.000 OA
ATOM     38  O   UNL     1     108.751 132.686 135.298  0.00  0.00    +0.000 OA
ATOM     39  C   UNL     1     108.765 130.601 136.631  0.00  0.00    +0.000 C 
ATOM     40  C   UNL     1     108.204 130.706 136.035  0.00  0.00    +0.000 C 
ATOM     41  C   UNL     1     108.200 131.401 135.591  0.00  0.00    +0.000 C 
ATOM     42  C   UNL     1     108.756 131.991 135.742  0.00  0.00    +0.000 C 
ATOM     43  C   UNL     1     109.316 131.886 136.338  0.00  0.00    +0.000 C 
BRANCH  43  45
ATOM     44  O   UNL     1     110.067 132.668 137.269  0.00  0.00    +0.000 OA
ATOM     45  C   UNL     1     109.873 132.476 136.490  0.00  0.00    +0.000 C 
ENDBRANCH  43  45
ENDBRANCH  34  39
ENDBRANCH  29  34
ENDBRANCH  25  33
ENDBRANCH   3  25
TORSDOF 9
ENDMDL
MODEL 3
REMARK VINA RESULT:      -9.4      1.569      4.820
REMARK  Name = 44258689
REMARK  9 active torsions:
REMARK  status: ('A' for Active; 'I' for Inactive)
REMARK    1  A    between atoms: O_1  and  C_17
REMARK    2  A    between atoms: O_1  and  C_20
REMARK    3  A    between atoms: O_9  and  C_26
REMARK    4  A    between atoms: O_9  and  C_28
REMARK    5  A    between atoms: O_13  and  C_39
REMARK    6  A    between atoms: O_14  and  C_40
REMARK    7  A    between atoms: O_15  and  C_41
REMARK    8  A    between atoms: C_22  and  C_27
REMARK    9  A    between atoms: C_29  and  C_32
REMARK                            x       y       z     vdW  Elec       q    Type
REMARK                         _______ _______ _______ _____ _____    ______ ____
ROOT
ATOM      1  O   UNL     1     112.598 130.994 136.884  0.00  0.00    +0.000 OA
ATOM      2  O   UNL     1     111.675 129.106 135.577  0.00  0.00    +0.000 OA
ATOM      3  C   UNL     1     111.478 130.220 136.448  0.00  0.00    +0.000 A 
ATOM      4  C   UNL     1     111.786 130.850 136.884  0.00  0.00    +0.000 A 
ATOM      5  C   UNL     1     111.983 129.735 136.012  0.00  0.00    +0.000 A 
ATOM      6  C   UNL     1     112.796 129.878 136.012  0.00  0.00    +0.000 A 
ATOM      7  C   UNL     1     113.103 130.508 136.448  0.00  0.00    +0.000 A 
ATOM      8  C   UNL     1     113.310 129.366 135.554  0.00  0.00    +0.000 A 
ATOM      9  C   UNL     1     113.947 130.668 136.456  0.00  0.00    +0.000 A 
ATOM     10  C   UNL     1     114.158 129.510 135.549  0.00  0.00    +0.000 A 
ATOM     11  C   UNL     1     114.479 130.166 136.004  0.00  0.00    +0.000 A 
ENDROOT
BRANCH   4  13
ATOM     12  O   UNL     1     109.768 132.793 138.628  0.00  0.00    +0.000 OA
ATOM     13  C   UNL     1     111.281 131.336 137.320  0.00  0.00    +0.000 A 
ATOM     14  C   UNL     1     110.899 131.968 136.953  0.00  0.00    +0.000 A 
ATOM     15  C   UNL     1     111.159 131.189 138.123  0.00  0.00    +0.000 A 
ATOM     16  C   UNL     1     110.654 131.674 138.558  0.00  0.00    +0.000 A 
ATOM     17  C   UNL     1     110.394 132.454 137.390  0.00  0.00    +0.000 A 
ATOM     18  C   UNL     1     110.272 132.307 138.192  0.00  0.00    +0.000 A 
BRANCH  16  19
ATOM     19  O   UNL     1     110.532 131.527 139.361  0.00  0.00    +0.000 OA
ATOM     20  C   UNL     1     111.077 131.078 139.787  0.00  0.00    +0.000 C 
ENDBRANCH  16  19
BRANCH  17  21
ATOM     21  O   UNL     1     110.013 133.086 137.023  0.00  0.00    +0.000 OA
ATOM     22  C   UNL     1     110.430 133.574 136.505  0.00  0.00    +0.000 C 
ENDBRANCH  17  21
ENDBRANCH   4  13
BRANCH  11  23
ATOM     23  O   UNL     1     115.291 130.312 136.005  0.00  0.00    +0.000 OA
ATOM     24  C   UNL     1     115.639 130.715 135.375  0.00  0.00    +0.000 C 
ENDBRANCH  11  23
BRANCH   3  25
ATOM     25  O   UNL     1     110.666 130.077 136.449  0.00  0.00    +0.000 OA
BRANCH  25  33
ATOM     26  O   UNL     1     110.808 128.892 137.236  0.00  0.00    +0.000 OA
ATOM     27  O   UNL     1     108.646 128.056 136.367  0.00  0.00    +0.000 OA
ATOM     28  O   UNL     1     109.225 129.520 135.870  0.00  0.00    +0.000 OA
ATOM     29  C   UNL     1     109.798 127.882 137.194  0.00  0.00    +0.000 C 
ATOM     30  C   UNL     1     109.367 128.335 136.657  0.00  0.00    +0.000 C 
ATOM     31  C   UNL     1     109.656 129.066 136.408  0.00  0.00    +0.000 C 
ATOM     32  C   UNL     1     110.519 128.160 137.484  0.00  0.00    +0.000 C 
ATOM     33  C   UNL     1     110.377 129.345 136.697  0.00  0.00    +0.000 C 
BRANCH  29  34
ATOM     34  O   UNL     1     109.509 127.151 137.443  0.00  0.00    +0.000 OA
BRANCH  34  39
ATOM     35  O   UNL     1     110.378 126.223 136.790  0.00  0.00    +0.000 OA
ATOM     36  O   UNL     1     109.784 126.394 138.883  0.00  0.00    +0.000 OA
ATOM     37  O   UNL     1     110.791 125.088 138.950  0.00  0.00    +0.000 OA
ATOM     38  O   UNL     1     111.522 124.540 137.578  0.00  0.00    +0.000 OA
ATOM     39  C   UNL     1     110.012 126.498 137.477  0.00  0.00    +0.000 C 
ATOM     40  C   UNL     1     110.150 126.119 138.197  0.00  0.00    +0.000 C 
ATOM     41  C   UNL     1     110.653 125.466 138.230  0.00  0.00    +0.000 C 
ATOM     42  C   UNL     1     111.019 125.192 137.544  0.00  0.00    +0.000 C 
ATOM     43  C   UNL     1     110.881 125.570 136.824  0.00  0.00    +0.000 C 
BRANCH  43  45
ATOM     44  O   UNL     1     110.825 125.271 135.428  0.00  0.00    +0.000 OA
ATOM     45  C   UNL     1     111.247 125.296 136.137  0.00  0.00    +0.000 C 
ENDBRANCH  43  45
ENDBRANCH  34  39
ENDBRANCH  29  34
ENDBRANCH  25  33
ENDBRANCH   3  25
TORSDOF 9
ENDMDL
MODEL 4
REMARK VINA RESULT:      -9.3      1.962      3.485
REMARK  Name = 44258689
REMARK  9 active torsions:
REMARK  status: ('A' for Active; 'I' for Inactive)
REMARK    1  A    between atoms: O_1  and  C_17
REMARK    2  A    between atoms: O_1  and  C_20
REMARK    3  A    between atoms: O_9  and  C_26
REMARK    4  A    between atoms: O_9  and  C_28
REMARK    5  A    between atoms: O_13  and  C_39
REMARK    6  A    between atoms: O_14  and  C_40
REMARK    7  A    between atoms: O_15  and  C_41
REMARK    8  A    between atoms: C_22  and  C_27
REMARK    9  A    between atoms: C_29  and  C_32
REMARK                            x       y       z     vdW  Elec       q    Type
REMARK                         _______ _______ _______ _____ _____    ______ ____
ROOT
ATOM      1  O   UNL     1     112.969 127.710 137.676  0.00  0.00    +0.000 OA
ATOM      2  O   UNL     1     110.556 127.356 138.097  0.00  0.00    +0.000 OA
ATOM      3  C   UNL     1     111.737 128.143 138.257  0.00  0.00    +0.000 A 
ATOM      4  C   UNL     1     112.541 128.261 138.116  0.00  0.00    +0.000 A 
ATOM      5  C   UNL     1     111.360 127.474 137.957  0.00  0.00    +0.000 A 
ATOM      6  C   UNL     1     111.787 126.922 137.516  0.00  0.00    +0.000 A 
ATOM      7  C   UNL     1     112.591 127.040 137.376  0.00  0.00    +0.000 A 
ATOM      8  C   UNL     1     111.383 126.229 137.210  0.00  0.00    +0.000 A 
ATOM      9  C   UNL     1     113.047 126.473 136.919  0.00  0.00    +0.000 A 
ATOM     10  C   UNL     1     111.822 125.650 136.750  0.00  0.00    +0.000 A 
ATOM     11  C   UNL     1     112.661 125.774 136.604  0.00  0.00    +0.000 A 
ENDROOT
BRANCH   4  13
ATOM     12  O   UNL     1     114.050 130.940 139.316  0.00  0.00    +0.000 OA
ATOM     13  C   UNL     1     112.919 128.932 138.416  0.00  0.00    +0.000 A 
ATOM     14  C   UNL     1     113.152 128.953 139.207  0.00  0.00    +0.000 A 
ATOM     15  C   UNL     1     113.063 129.579 137.925  0.00  0.00    +0.000 A 
ATOM     16  C   UNL     1     113.440 130.248 138.225  0.00  0.00    +0.000 A 
ATOM     17  C   UNL     1     113.529 129.623 139.507  0.00  0.00    +0.000 A 
ATOM     18  C   UNL     1     113.673 130.271 139.016  0.00  0.00    +0.000 A 
BRANCH  16  19
ATOM     19  O   UNL     1     113.583 130.895 137.734  0.00  0.00    +0.000 OA
ATOM     20  C   UNL     1     113.679 130.784 136.923  0.00  0.00    +0.000 C 
ENDBRANCH  16  19
BRANCH  17  21
ATOM     21  O   UNL     1     113.763 129.645 140.298  0.00  0.00    +0.000 OA
ATOM     22  C   UNL     1     114.164 129.004 140.627  0.00  0.00    +0.000 C 
ENDBRANCH  17  21
ENDBRANCH   4  13
BRANCH  11  23
ATOM     23  O   UNL     1     113.090 125.224 136.164  0.00  0.00    +0.000 OA
ATOM     24  C   UNL     1     113.313 124.506 136.504  0.00  0.00    +0.000 C 
ENDBRANCH  11  23
BRANCH   3  25
ATOM     25  O   UNL     1     111.310 128.695 138.697  0.00  0.00    +0.000 OA
BRANCH  25  33
ATOM     26  O   UNL     1     110.595 129.167 137.553  0.00  0.00    +0.000 OA
ATOM     27  O   UNL     1     108.755 129.935 139.020  0.00  0.00    +0.000 OA
ATOM     28  O   UNL     1     110.084 129.208 139.675  0.00  0.00    +0.000 OA
ATOM     29  C   UNL     1     109.317 129.786 137.715  0.00  0.00    +0.000 C 
ATOM     30  C   UNL     1     109.368 129.679 138.530  0.00  0.00    +0.000 C 
ATOM     31  C   UNL     1     110.032 129.315 138.858  0.00  0.00    +0.000 C 
ATOM     32  C   UNL     1     109.930 129.530 137.225  0.00  0.00    +0.000 C 
ATOM     33  C   UNL     1     110.646 129.059 138.370  0.00  0.00    +0.000 C 
BRANCH  29  34
ATOM     34  O   UNL     1     108.653 130.150 137.387  0.00  0.00    +0.000 OA
BRANCH  34  39
ATOM     35  O   UNL     1     109.256 131.381 136.984  0.00  0.00    +0.000 OA
ATOM     36  O   UNL     1     107.813 130.097 135.968  0.00  0.00    +0.000 OA
ATOM     37  O   UNL     1     107.996 131.302 134.856  0.00  0.00    +0.000 OA
ATOM     38  O   UNL     1     109.019 132.559 135.163  0.00  0.00    +0.000 OA
ATOM     39  C   UNL     1     108.744 130.752 136.831  0.00  0.00    +0.000 C 
ATOM     40  C   UNL     1     108.324 130.726 136.121  0.00  0.00    +0.000 C 
ATOM     41  C   UNL     1     108.416 131.329 135.565  0.00  0.00    +0.000 C 
ATOM     42  C   UNL     1     108.927 131.957 135.718  0.00  0.00    +0.000 C 
ATOM     43  C   UNL     1     109.347 131.983 136.428  0.00  0.00    +0.000 C 
BRANCH  43  45
ATOM     44  O   UNL     1     109.901 132.932 137.342  0.00  0.00    +0.000 OA
ATOM     45  C   UNL     1     109.859 132.612 136.582  0.00  0.00    +0.000 C 
ENDBRANCH  43  45
ENDBRANCH  34  39
ENDBRANCH  29  34
ENDBRANCH  25  33
ENDBRANCH   3  25
TORSDOF 9
ENDMDL
MODEL 5
REMARK VINA RESULT:      -9.1      2.361      3.138
REMARK  Name = 44258689
REMARK  9 active torsions:
REMARK  status: ('A' for Active; 'I' for Inactive)
REMARK    1  A    between atoms: O_1  and  C_17
REMARK    2  A    between atoms: O_1  and  C_20
REMARK    3  A    between atoms: O_9  and  C_26
REMARK    4  A    between atoms: O_9  and  C_28
REMARK    5  A    between atoms: O_13  and  C_39
REMARK    6  A    between atoms: O_14  and  C_40
REMARK    7  A    between atoms: O_15  and  C_41
REMARK    8  A    between atoms: C_22  and  C_27
REMARK    9  A    between atoms: C_29  and  C_32
REMARK                            x       y       z     vdW  Elec       q    Type
REMARK                         _______ _______ _______ _____ _____    ______ ____
ROOT
ATOM      1  O   UNL     1     113.255 127.442 136.127  0.00  0.00    +0.000 OA
ATOM      2  O   UNL     1     113.188 128.641 138.292  0.00  0.00    +0.000 OA
ATOM      3  C   UNL     1     113.013 127.442 137.536  0.00  0.00    +0.000 A 
ATOM      4  C   UNL     1     113.035 127.042 136.814  0.00  0.00    +0.000 A 
ATOM      5  C   UNL     1     113.210 128.241 137.570  0.00  0.00    +0.000 A 
ATOM      6  C   UNL     1     113.431 128.643 136.884  0.00  0.00    +0.000 A 
ATOM      7  C   UNL     1     113.453 128.243 136.162  0.00  0.00    +0.000 A 
ATOM      8  C   UNL     1     113.634 129.476 136.933  0.00  0.00    +0.000 A 
ATOM      9  C   UNL     1     113.681 128.649 135.440  0.00  0.00    +0.000 A 
ATOM     10  C   UNL     1     113.865 129.899 136.221  0.00  0.00    +0.000 A 
ATOM     11  C   UNL     1     113.888 129.483 135.469  0.00  0.00    +0.000 A 
ENDROOT
BRANCH   4  13
ATOM     12  O   UNL     1     112.243 123.842 136.674  0.00  0.00    +0.000 OA
ATOM     13  C   UNL     1     112.837 126.241 136.779  0.00  0.00    +0.000 A 
ATOM     14  C   UNL     1     112.095 126.013 136.501  0.00  0.00    +0.000 A 
ATOM     15  C   UNL     1     113.381 125.671 137.022  0.00  0.00    +0.000 A 
ATOM     16  C   UNL     1     113.183 124.871 136.987  0.00  0.00    +0.000 A 
ATOM     17  C   UNL     1     111.897 125.212 136.466  0.00  0.00    +0.000 A 
ATOM     18  C   UNL     1     112.441 124.641 136.709  0.00  0.00    +0.000 A 
BRANCH  16  19
ATOM     19  O   UNL     1     113.727 124.301 137.230  0.00  0.00    +0.000 OA
ATOM     20  C   UNL     1     114.535 124.466 137.212  0.00  0.00    +0.000 C 
ENDBRANCH  16  19
BRANCH  17  21
ATOM     21  O   UNL     1     111.155 124.983 136.188  0.00  0.00    +0.000 OA
ATOM     22  C   UNL     1     110.729 125.486 135.692  0.00  0.00    +0.000 C 
ENDBRANCH  17  21
ENDBRANCH   4  13
BRANCH  11  23
ATOM     23  O   UNL     1     114.108 129.881 134.781  0.00  0.00    +0.000 OA
ATOM     24  C   UNL     1     114.891 130.119 134.674  0.00  0.00    +0.000 C 
ENDBRANCH  11  23
BRANCH   3  25
ATOM     25  O   UNL     1     112.792 127.040 138.222  0.00  0.00    +0.000 OA
BRANCH  25  33
ATOM     26  O   UNL     1     111.555 127.748 138.328  0.00  0.00    +0.000 OA
ATOM     27  O   UNL     1     111.517 127.315 140.765  0.00  0.00    +0.000 OA
ATOM     28  O   UNL     1     112.767 126.752 139.847  0.00  0.00    +0.000 OA
ATOM     29  C   UNL     1     110.918 127.885 139.600  0.00  0.00    +0.000 C 
ATOM     30  C   UNL     1     111.529 127.460 139.953  0.00  0.00    +0.000 C 
ATOM     31  C   UNL     1     112.154 127.178 139.493  0.00  0.00    +0.000 C 
ATOM     32  C   UNL     1     110.930 128.030 138.788  0.00  0.00    +0.000 C 
ATOM     33  C   UNL     1     112.167 127.322 138.681  0.00  0.00    +0.000 C 
BRANCH  29  34
ATOM     34  O   UNL     1     110.293 128.167 140.059  0.00  0.00    +0.000 OA
BRANCH  34  39
ATOM     35  O   UNL     1     110.642 129.553 140.041  0.00  0.00    +0.000 OA
ATOM     36  O   UNL     1     108.700 128.567 139.900  0.00  0.00    +0.000 OA
ATOM     37  O   UNL     1     108.253 130.152 139.802  0.00  0.00    +0.000 OA
ATOM     38  O   UNL     1     109.399 131.337 139.863  0.00  0.00    +0.000 OA
ATOM     39  C   UNL     1     110.069 128.959 140.010  0.00  0.00    +0.000 C 
ATOM     40  C   UNL     1     109.272 129.159 139.931  0.00  0.00    +0.000 C 
ATOM     41  C   UNL     1     109.050 129.952 139.882  0.00  0.00    +0.000 C 
ATOM     42  C   UNL     1     109.622 130.545 139.912  0.00  0.00    +0.000 C 
ATOM     43  C   UNL     1     110.418 130.345 139.992  0.00  0.00    +0.000 C 
BRANCH  43  45
ATOM     44  O   UNL     1     111.562 130.928 140.620  0.00  0.00    +0.000 OA
ATOM     45  C   UNL     1     110.992 130.937 140.023  0.00  0.00    +0.000 C 
ENDBRANCH  43  45
ENDBRANCH  34  39
ENDBRANCH  29  34
ENDBRANCH  25  33
ENDBRANCH   3  25
TORSDOF 9
ENDMDL
MODEL 6
REMARK VINA RESULT:      -9.0      2.302      4.403
REMARK  Name = 44258689
REMARK  9 active torsions:
REMARK  status: ('A' for Active; 'I' for Inactive)
REMARK    1  A    between atoms: O_1  and  C_17
REMARK    2  A    between atoms: O_1  and  C_20
REMARK    3  A    between atoms: O_9  and  C_26
REMARK    4  A    between atoms: O_9  and  C_28
REMARK    5  A    between atoms: O_13  and  C_39
REMARK    6  A    between atoms: O_14  and  C_40
REMARK    7  A    between atoms: O_15  and  C_41
REMARK    8  A    between atoms: C_22  and  C_27
REMARK    9  A    between atoms: C_29  and  C_32
REMARK                            x       y       z     vdW  Elec       q    Type
REMARK                         _______ _______ _______ _____ _____    ______ ____
ROOT
ATOM      1  O   UNL     1     112.324 127.341 136.199  0.00  0.00    +0.000 OA
ATOM      2  O   UNL     1     112.364 128.399 138.436  0.00  0.00    +0.000 OA
ATOM      3  C   UNL     1     112.639 127.280 137.592  0.00  0.00    +0.000 A 
ATOM      4  C   UNL     1     112.626 126.928 136.846  0.00  0.00    +0.000 A 
ATOM      5  C   UNL     1     112.351 128.046 137.691  0.00  0.00    +0.000 A 
ATOM      6  C   UNL     1     112.048 128.460 137.045  0.00  0.00    +0.000 A 
ATOM      7  C   UNL     1     112.034 128.108 136.299  0.00  0.00    +0.000 A 
ATOM      8  C   UNL     1     111.750 129.258 137.161  0.00  0.00    +0.000 A 
ATOM      9  C   UNL     1     111.722 128.528 135.618  0.00  0.00    +0.000 A 
ATOM     10  C   UNL     1     111.433 129.694 136.491  0.00  0.00    +0.000 A 
ATOM     11  C   UNL     1     111.419 129.326 135.714  0.00  0.00    +0.000 A 
ENDROOT
BRANCH   4  13
ATOM     12  O   UNL     1     113.783 123.863 136.449  0.00  0.00    +0.000 OA
ATOM     13  C   UNL     1     112.915 126.161 136.747  0.00  0.00    +0.000 A 
ATOM     14  C   UNL     1     113.728 126.031 136.697  0.00  0.00    +0.000 A 
ATOM     15  C   UNL     1     112.391 125.525 136.697  0.00  0.00    +0.000 A 
ATOM     16  C   UNL     1     112.680 124.760 136.598  0.00  0.00    +0.000 A 
ATOM     17  C   UNL     1     114.017 125.264 136.598  0.00  0.00    +0.000 A 
ATOM     18  C   UNL     1     113.494 124.628 136.548  0.00  0.00    +0.000 A 
BRANCH  16  19
ATOM     19  O   UNL     1     112.157 124.124 136.548  0.00  0.00    +0.000 OA
ATOM     20  C   UNL     1     111.419 124.224 136.192  0.00  0.00    +0.000 C 
ENDBRANCH  16  19
BRANCH  17  21
ATOM     21  O   UNL     1     114.830 125.133 136.548  0.00  0.00    +0.000 OA
ATOM     22  C   UNL     1     115.277 125.532 135.981  0.00  0.00    +0.000 C 
ENDBRANCH  17  21
ENDBRANCH   4  13
BRANCH  11  23
ATOM     23  O   UNL     1     111.117 129.738 135.065  0.00  0.00    +0.000 OA
ATOM     24  C   UNL     1     110.303 129.841 134.985  0.00  0.00    +0.000 C 
ENDBRANCH  11  23
BRANCH   3  25
ATOM     25  O   UNL     1     112.942 126.866 138.238  0.00  0.00    +0.000 OA
BRANCH  25  33
ATOM     26  O   UNL     1     111.648 126.634 138.800  0.00  0.00    +0.000 OA
ATOM     27  O   UNL     1     112.660 126.452 141.052  0.00  0.00    +0.000 OA
ATOM     28  O   UNL     1     113.616 126.744 139.739  0.00  0.00    +0.000 OA
ATOM     29  C   UNL     1     111.508 126.427 140.207  0.00  0.00    +0.000 C 
ATOM     30  C   UNL     1     112.322 126.513 140.301  0.00  0.00    +0.000 C 
ATOM     31  C   UNL     1     112.800 126.659 139.645  0.00  0.00    +0.000 C 
ATOM     32  C   UNL     1     111.170 126.488 139.456  0.00  0.00    +0.000 C 
ATOM     33  C   UNL     1     112.464 126.720 138.894  0.00  0.00    +0.000 C 
BRANCH  29  34
ATOM     34  O   UNL     1     111.029 126.281 140.863  0.00  0.00    +0.000 OA
BRANCH  34  39
ATOM     35  O   UNL     1     110.266 127.489 140.882  0.00  0.00    +0.000 OA
ATOM     36  O   UNL     1     109.655 125.408 141.130  0.00  0.00    +0.000 OA
ATOM     37  O   UNL     1     108.204 126.180 141.283  0.00  0.00    +0.000 OA
ATOM     38  O   UNL     1     108.129 127.824 141.169  0.00  0.00    +0.000 OA
ATOM     39  C   UNL     1     110.304 126.666 140.939  0.00  0.00    +0.000 C 
ATOM     40  C   UNL     1     109.617 126.230 141.073  0.00  0.00    +0.000 C 
ATOM     41  C   UNL     1     108.892 126.617 141.149  0.00  0.00    +0.000 C 
ATOM     42  C   UNL     1     108.854 127.438 141.092  0.00  0.00    +0.000 C 
ATOM     43  C   UNL     1     109.541 127.874 140.959  0.00  0.00    +0.000 C 
BRANCH  43  45
ATOM     44  O   UNL     1     110.087 129.161 141.257  0.00  0.00    +0.000 OA
ATOM     45  C   UNL     1     109.504 128.696 140.902  0.00  0.00    +0.000 C 
ENDBRANCH  43  45
ENDBRANCH  34  39
ENDBRANCH  29  34
ENDBRANCH  25  33
ENDBRANCH   3  25
TORSDOF 9
ENDMDL
MODEL 7
REMARK VINA RESULT:      -9.0      1.747      3.116
REMARK  Name = 44258689
REMARK  9 active torsions:
REMARK  status: ('A' for Active; 'I' for Inactive)
REMARK    1  A    between atoms: O_1  and  C_17
REMARK    2  A    between atoms: O_1  and  C_20
REMARK    3  A    between atoms: O_9  and  C_26
REMARK    4  A    between atoms: O_9  and  C_28
REMARK    5  A    between atoms: O_13  and  C_39
REMARK    6  A    between atoms: O_14  and  C_40
REMARK    7  A    between atoms: O_15  and  C_41
REMARK    8  A    between atoms: C_22  and  C_27
REMARK    9  A    between atoms: C_29  and  C_32
REMARK                            x       y       z     vdW  Elec       q    Type
REMARK                         _______ _______ _______ _____ _____    ______ ____
ROOT
ATOM      1  O   UNL     1     113.042 127.225 139.057  0.00  0.00    +0.000 OA
ATOM      2  O   UNL     1     112.965 129.237 137.619  0.00  0.00    +0.000 OA
ATOM      3  C   UNL     1     112.951 127.816 137.759  0.00  0.00    +0.000 A 
ATOM      4  C   UNL     1     112.977 127.145 138.239  0.00  0.00    +0.000 A 
ATOM      5  C   UNL     1     112.991 128.566 138.098  0.00  0.00    +0.000 A 
ATOM      6  C   UNL     1     113.057 128.647 138.917  0.00  0.00    +0.000 A 
ATOM      7  C   UNL     1     113.083 127.976 139.396  0.00  0.00    +0.000 A 
ATOM      8  C   UNL     1     113.098 129.435 139.258  0.00  0.00    +0.000 A 
ATOM      9  C   UNL     1     113.151 128.046 140.250  0.00  0.00    +0.000 A 
ATOM     10  C   UNL     1     113.167 129.525 140.110  0.00  0.00    +0.000 A 
ATOM     11  C   UNL     1     113.194 128.826 140.610  0.00  0.00    +0.000 A 
ENDROOT
BRANCH   4  13
ATOM     12  O   UNL     1     112.815 124.140 136.884  0.00  0.00    +0.000 OA
ATOM     13  C   UNL     1     112.936 126.393 137.900  0.00  0.00    +0.000 A 
ATOM     14  C   UNL     1     112.229 125.970 137.920  0.00  0.00    +0.000 A 
ATOM     15  C   UNL     1     113.603 126.066 137.541  0.00  0.00    +0.000 A 
ATOM     16  C   UNL     1     113.563 125.316 137.202  0.00  0.00    +0.000 A 
ATOM     17  C   UNL     1     112.188 125.218 137.581  0.00  0.00    +0.000 A 
ATOM     18  C   UNL     1     112.855 124.891 137.222  0.00  0.00    +0.000 A 
BRANCH  16  19
ATOM     19  O   UNL     1     114.229 124.989 136.843  0.00  0.00    +0.000 OA
ATOM     20  C   UNL     1     114.938 124.932 137.261  0.00  0.00    +0.000 C 
ENDBRANCH  16  19
BRANCH  17  21
ATOM     21  O   UNL     1     111.481 124.794 137.602  0.00  0.00    +0.000 OA
ATOM     22  C   UNL     1     110.912 124.972 138.172  0.00  0.00    +0.000 C 
ENDBRANCH  17  21
ENDBRANCH   4  13
BRANCH  11  23
ATOM     23  O   UNL     1     113.260 128.903 141.428  0.00  0.00    +0.000 OA
ATOM     24  C   UNL     1     112.665 129.283 141.856  0.00  0.00    +0.000 C 
ENDBRANCH  11  23
BRANCH   3  25
ATOM     25  O   UNL     1     112.885 127.735 136.941  0.00  0.00    +0.000 OA
BRANCH  25  33
ATOM     26  O   UNL     1     111.513 128.135 136.911  0.00  0.00    +0.000 OA
ATOM     27  O   UNL     1     111.815 129.000 134.612  0.00  0.00    +0.000 OA
ATOM     28  O   UNL     1     113.086 128.312 135.408  0.00  0.00    +0.000 OA
ATOM     29  C   UNL     1     110.978 128.767 135.747  0.00  0.00    +0.000 C 
ATOM     30  C   UNL     1     111.714 128.711 135.379  0.00  0.00    +0.000 C 
ATOM     31  C   UNL     1     112.349 128.368 135.777  0.00  0.00    +0.000 C 
ATOM     32  C   UNL     1     110.877 128.479 136.513  0.00  0.00    +0.000 C 
ATOM     33  C   UNL     1     112.249 128.079 136.543  0.00  0.00    +0.000 C 
BRANCH  29  34
ATOM     34  O   UNL     1     110.343 129.111 135.349  0.00  0.00    +0.000 OA
BRANCH  34  39
ATOM     35  O   UNL     1     110.137 130.266 136.165  0.00  0.00    +0.000 OA
ATOM     36  O   UNL     1     108.715 128.844 135.316  0.00  0.00    +0.000 OA
ATOM     37  O   UNL     1     107.695 129.865 136.116  0.00  0.00    +0.000 OA
ATOM     38  O   UNL     1     108.303 131.152 136.948  0.00  0.00    +0.000 OA
ATOM     39  C   UNL     1     109.832 129.621 135.749  0.00  0.00    +0.000 C 
ATOM     40  C   UNL     1     109.018 129.487 135.732  0.00  0.00    +0.000 C 
ATOM     41  C   UNL     1     108.509 129.998 136.132  0.00  0.00    +0.000 C 
ATOM     42  C   UNL     1     108.812 130.642 136.548  0.00  0.00    +0.000 C 
ATOM     43  C   UNL     1     109.626 130.776 136.565  0.00  0.00    +0.000 C 
BRANCH  43  45
ATOM     44  O   UNL     1     110.602 131.810 136.702  0.00  0.00    +0.000 OA
ATOM     45  C   UNL     1     109.931 131.419 136.981  0.00  0.00    +0.000 C 
ENDBRANCH  43  45
ENDBRANCH  34  39
ENDBRANCH  29  34
ENDBRANCH  25  33
ENDBRANCH   3  25
TORSDOF 9
ENDMDL
MODEL 8
REMARK VINA RESULT:      -8.9      2.359      5.337
REMARK  Name = 44258689
REMARK  9 active torsions:
REMARK  status: ('A' for Active; 'I' for Inactive)
REMARK    1  A    between atoms: O_1  and  C_17
REMARK    2  A    between atoms: O_1  and  C_20
REMARK    3  A    between atoms: O_9  and  C_26
REMARK    4  A    between atoms: O_9  and  C_28
REMARK    5  A    between atoms: O_13  and  C_39
REMARK    6  A    between atoms: O_14  and  C_40
REMARK    7  A    between atoms: O_15  and  C_41
REMARK    8  A    between atoms: C_22  and  C_27
REMARK    9  A    between atoms: C_29  and  C_32
REMARK                            x       y       z     vdW  Elec       q    Type
REMARK                         _______ _______ _______ _____ _____    ______ ____
ROOT
ATOM      1  O   UNL     1     112.677 130.393 138.468  0.00  0.00    +0.000 OA
ATOM      2  O   UNL     1     111.689 128.761 140.045  0.00  0.00    +0.000 OA
ATOM      3  C   UNL     1     111.596 129.540 138.852  0.00  0.00    +0.000 A 
ATOM      4  C   UNL     1     111.926 130.084 138.326  0.00  0.00    +0.000 A 
ATOM      5  C   UNL     1     112.019 129.305 139.520  0.00  0.00    +0.000 A 
ATOM      6  C   UNL     1     112.771 129.613 139.663  0.00  0.00    +0.000 A 
ATOM      7  C   UNL     1     113.100 130.157 139.137  0.00  0.00    +0.000 A 
ATOM      8  C   UNL     1     113.200 129.360 140.362  0.00  0.00    +0.000 A 
ATOM      9  C   UNL     1     113.882 130.485 139.274  0.00  0.00    +0.000 A 
ATOM     10  C   UNL     1     113.984 129.677 140.516  0.00  0.00    +0.000 A 
ATOM     11  C   UNL     1     114.328 130.244 139.968  0.00  0.00    +0.000 A 
ENDROOT
BRANCH   4  13
ATOM     12  O   UNL     1     110.236 131.027 135.653  0.00  0.00    +0.000 OA
ATOM     13  C   UNL     1     111.503 130.320 137.657  0.00  0.00    +0.000 A 
ATOM     14  C   UNL     1     111.664 129.975 136.926  0.00  0.00    +0.000 A 
ATOM     15  C   UNL     1     110.920 130.900 137.721  0.00  0.00    +0.000 A 
ATOM     16  C   UNL     1     110.498 131.136 137.053  0.00  0.00    +0.000 A 
ATOM     17  C   UNL     1     111.241 130.211 136.257  0.00  0.00    +0.000 A 
ATOM     18  C   UNL     1     110.658 130.791 136.321  0.00  0.00    +0.000 A 
BRANCH  16  19
ATOM     19  O   UNL     1     109.915 131.716 137.117  0.00  0.00    +0.000 OA
ATOM     20  C   UNL     1     110.093 132.444 137.462  0.00  0.00    +0.000 C 
ENDBRANCH  16  19
BRANCH  17  21
ATOM     21  O   UNL     1     111.402 129.866 135.525  0.00  0.00    +0.000 OA
ATOM     22  C   UNL     1     112.129 129.499 135.395  0.00  0.00    +0.000 C 
ENDBRANCH  17  21
ENDBRANCH   4  13
BRANCH  11  23
ATOM     23  O   UNL     1     115.079 130.554 140.109  0.00  0.00    +0.000 OA
ATOM     24  C   UNL     1     115.218 131.013 140.780  0.00  0.00    +0.000 C 
ENDBRANCH  11  23
BRANCH   3  25
ATOM     25  O   UNL     1     110.844 129.232 138.709  0.00  0.00    +0.000 OA
BRANCH  25  33
ATOM     26  O   UNL     1     111.374 127.948 138.373  0.00  0.00    +0.000 OA
ATOM     27  O   UNL     1     109.174 126.917 138.847  0.00  0.00    +0.000 OA
ATOM     28  O   UNL     1     109.378 128.545 139.025  0.00  0.00    +0.000 OA
ATOM     29  C   UNL     1     110.539 126.791 138.442  0.00  0.00    +0.000 C 
ATOM     30  C   UNL     1     109.908 127.260 138.689  0.00  0.00    +0.000 C 
ATOM     31  C   UNL     1     110.010 128.074 138.778  0.00  0.00    +0.000 C 
ATOM     32  C   UNL     1     111.272 127.134 138.284  0.00  0.00    +0.000 C 
ATOM     33  C   UNL     1     110.742 128.418 138.620  0.00  0.00    +0.000 C 
BRANCH  29  34
ATOM     34  O   UNL     1     110.437 125.977 138.353  0.00  0.00    +0.000 OA
BRANCH  34  39
ATOM     35  O   UNL     1     110.487 125.872 136.929  0.00  0.00    +0.000 OA
ATOM     36  O   UNL     1     111.437 124.671 138.485  0.00  0.00    +0.000 OA
ATOM     37  O   UNL     1     111.988 123.914 137.126  0.00  0.00    +0.000 OA
ATOM     38  O   UNL     1     111.538 124.462 135.637  0.00  0.00    +0.000 OA
ATOM     39  C   UNL     1     110.713 125.598 137.675  0.00  0.00    +0.000 C 
ATOM     40  C   UNL     1     111.213 124.945 137.740  0.00  0.00    +0.000 C 
ATOM     41  C   UNL     1     111.488 124.567 137.060  0.00  0.00    +0.000 C 
ATOM     42  C   UNL     1     111.263 124.841 136.316  0.00  0.00    +0.000 C 
ATOM     43  C   UNL     1     110.763 125.493 136.250  0.00  0.00    +0.000 C 
BRANCH  43  45
ATOM     44  O   UNL     1     109.745 125.943 135.353  0.00  0.00    +0.000 OA
ATOM     45  C   UNL     1     110.538 125.768 135.506  0.00  0.00    +0.000 C 
ENDBRANCH  43  45
ENDBRANCH  34  39
ENDBRANCH  29  34
ENDBRANCH  25  33
ENDBRANCH   3  25
TORSDOF 9
ENDMDL
MODEL 9
REMARK VINA RESULT:      -8.9      1.835      3.604
REMARK  Name = 44258689
REMARK  9 active torsions:
REMARK  status: ('A' for Active; 'I' for Inactive)
REMARK    1  A    between atoms: O_1  and  C_17
REMARK    2  A    between atoms: O_1  and  C_20
REMARK    3  A    between atoms: O_9  and  C_26
REMARK    4  A    between atoms: O_9  and  C_28
REMARK    5  A    between atoms: O_13  and  C_39
REMARK    6  A    between atoms: O_14  and  C_40
REMARK    7  A    between atoms: O_15  and  C_41
REMARK    8  A    between atoms: C_22  and  C_27
REMARK    9  A    between atoms: C_29  and  C_32
REMARK                            x       y       z     vdW  Elec       q    Type
REMARK                         _______ _______ _______ _____ _____    ______ ____
ROOT
ATOM      1  O   UNL     1     112.195 126.080 138.672  0.00  0.00    +0.000 OA
ATOM      2  O   UNL     1     112.430 127.751 136.862  0.00  0.00    +0.000 OA
ATOM      3  C   UNL     1     112.467 127.418 138.250  0.00  0.00    +0.000 A 
ATOM      4  C   UNL     1     112.389 126.861 138.854  0.00  0.00    +0.000 A 
ATOM      5  C   UNL     1     112.352 127.194 137.465  0.00  0.00    +0.000 A 
ATOM      6  C   UNL     1     112.157 126.413 137.282  0.00  0.00    +0.000 A 
ATOM      7  C   UNL     1     112.079 125.856 137.886  0.00  0.00    +0.000 A 
ATOM      8  C   UNL     1     112.039 126.193 136.461  0.00  0.00    +0.000 A 
ATOM      9  C   UNL     1     111.877 125.040 137.709  0.00  0.00    +0.000 A 
ATOM     10  C   UNL     1     111.837 125.381 136.264  0.00  0.00    +0.000 A 
ATOM     11  C   UNL     1     111.755 124.800 136.893  0.00  0.00    +0.000 A 
ENDROOT
BRANCH   4  13
ATOM     12  O   UNL     1     112.853 127.755 141.996  0.00  0.00    +0.000 OA
ATOM     13  C   UNL     1     112.505 127.084 139.640  0.00  0.00    +0.000 A 
ATOM     14  C   UNL     1     113.270 127.194 139.928  0.00  0.00    +0.000 A 
ATOM     15  C   UNL     1     111.856 127.198 140.137  0.00  0.00    +0.000 A 
ATOM     16  C   UNL     1     111.972 127.421 140.922  0.00  0.00    +0.000 A 
ATOM     17  C   UNL     1     113.386 127.418 140.715  0.00  0.00    +0.000 A 
ATOM     18  C   UNL     1     112.737 127.531 141.211  0.00  0.00    +0.000 A 
BRANCH  16  19
ATOM     19  O   UNL     1     111.323 127.535 141.418  0.00  0.00    +0.000 OA
ATOM     20  C   UNL     1     110.683 127.016 141.387  0.00  0.00    +0.000 C 
ENDBRANCH  16  19
BRANCH  17  21
ATOM     21  O   UNL     1     114.151 127.527 141.003  0.00  0.00    +0.000 OA
ATOM     22  C   UNL     1     114.737 126.971 140.837  0.00  0.00    +0.000 C 
ENDBRANCH  17  21
ENDBRANCH   4  13
BRANCH  11  23
ATOM     23  O   UNL     1     111.561 124.019 136.714  0.00  0.00    +0.000 OA
ATOM     24  C   UNL     1     112.154 123.448 136.660  0.00  0.00    +0.000 C 
ENDBRANCH  11  23
BRANCH   3  25
ATOM     25  O   UNL     1     112.662 128.199 138.433  0.00  0.00    +0.000 OA
BRANCH  25  33
ATOM     26  O   UNL     1     111.345 128.680 138.155  0.00  0.00    +0.000 OA
ATOM     27  O   UNL     1     112.271 130.917 137.643  0.00  0.00    +0.000 OA
ATOM     28  O   UNL     1     113.279 129.691 138.092  0.00  0.00    +0.000 OA
ATOM     29  C   UNL     1     111.150 130.039 137.760  0.00  0.00    +0.000 C 
ATOM     30  C   UNL     1     111.962 130.171 137.813  0.00  0.00    +0.000 C 
ATOM     31  C   UNL     1     112.466 129.558 138.038  0.00  0.00    +0.000 C 
ATOM     32  C   UNL     1     110.841 129.293 137.930  0.00  0.00    +0.000 C 
ATOM     33  C   UNL     1     112.158 128.812 138.209  0.00  0.00    +0.000 C 
BRANCH  29  34
ATOM     34  O   UNL     1     110.646 130.652 137.535  0.00  0.00    +0.000 OA
BRANCH  34  39
ATOM     35  O   UNL     1     110.228 130.140 136.268  0.00  0.00    +0.000 OA
ATOM     36  O   UNL     1     109.098 131.126 137.853  0.00  0.00    +0.000 OA
ATOM     37  O   UNL     1     107.907 130.852 136.745  0.00  0.00    +0.000 OA
ATOM     38  O   UNL     1     108.264 130.104 135.319  0.00  0.00    +0.000 OA
ATOM     39  C   UNL     1     110.050 130.515 136.982  0.00  0.00    +0.000 C 
ATOM     40  C   UNL     1     109.276 130.752 137.141  0.00  0.00    +0.000 C 
ATOM     41  C   UNL     1     108.680 130.615 136.586  0.00  0.00    +0.000 C 
ATOM     42  C   UNL     1     108.859 130.241 135.873  0.00  0.00    +0.000 C 
ATOM     43  C   UNL     1     109.633 130.004 135.714  0.00  0.00    +0.000 C 
BRANCH  43  45
ATOM     44  O   UNL     1     110.520 129.800 134.613  0.00  0.00    +0.000 OA
ATOM     45  C   UNL     1     109.812 129.629 135.001  0.00  0.00    +0.000 C 
ENDBRANCH  43  45
ENDBRANCH  34  39
ENDBRANCH  29  34
ENDBRANCH  25  33
ENDBRANCH   3  25
TORSDOF 9
ENDMDL
MODEL 10
REMARK VINA RESULT:      -8.9      2.330      3.496
REMARK  Name = 44258689
REMARK  9 active torsions:
REMARK  status: ('A' for Active; 'I' for Inactive)
REMARK    1  A    between atoms: O_1  and  C_17
REMARK    2  A    between atoms: O_1  and  C_20
REMARK    3  A    between atoms: O_9  and  C_26
REMARK    4  A    between atoms: O_9  and  C_28
REMARK    5  A    between atoms: O_13  and  C_39
REMARK    6  A    between atoms: O_14  and  C_40
REMARK    7  A    between atoms: O_15  and  C_41
REMARK    8  A    between atoms: C_22  and  C_27
REMARK    9  A    between atoms: C_29  and  C_32
REMARK                            x       y       z     vdW  Elec       q    Type
REMARK                         _______ _______ _______ _____ _____    ______ ____
ROOT
ATOM      1  O   UNL     1     112.884 127.607 136.036  0.00  0.00    +0.000 OA
ATOM      2  O   UNL     1     111.498 129.184 137.345  0.00  0.00    +0.000 OA
ATOM      3  C   UNL     1     111.722 127.873 136.825  0.00  0.00    +0.000 A 
ATOM      4  C   UNL     1     112.184 127.347 136.388  0.00  0.00    +0.000 A 
ATOM      5  C   UNL     1     111.960 128.658 136.909  0.00  0.00    +0.000 A 
ATOM      6  C   UNL     1     112.659 128.919 136.556  0.00  0.00    +0.000 A 
ATOM      7  C   UNL     1     113.121 128.393 136.120  0.00  0.00    +0.000 A 
ATOM      8  C   UNL     1     112.895 129.739 136.651  0.00  0.00    +0.000 A 
ATOM      9  C   UNL     1     113.851 128.651 135.748  0.00  0.00    +0.000 A 
ATOM     10  C   UNL     1     113.622 130.016 136.286  0.00  0.00    +0.000 A 
ATOM     11  C   UNL     1     114.104 129.468 135.831  0.00  0.00    +0.000 A 
ENDROOT
BRANCH   4  13
ATOM     12  O   UNL     1     111.237 124.204 136.052  0.00  0.00    +0.000 OA
ATOM     13  C   UNL     1     111.947 126.561 136.304  0.00  0.00    +0.000 A 
ATOM     14  C   UNL     1     112.319 125.970 136.743  0.00  0.00    +0.000 A 
ATOM     15  C   UNL     1     111.339 126.367 135.781  0.00  0.00    +0.000 A 
ATOM     16  C   UNL     1     111.103 125.582 135.697  0.00  0.00    +0.000 A 
ATOM     17  C   UNL     1     112.081 125.183 136.659  0.00  0.00    +0.000 A 
ATOM     18  C   UNL     1     111.473 124.989 136.136  0.00  0.00    +0.000 A 
BRANCH  16  19
ATOM     19  O   UNL     1     110.495 125.388 135.174  0.00  0.00    +0.000 OA
ATOM     20  C   UNL     1     110.243 125.937 134.612  0.00  0.00    +0.000 C 
ENDBRANCH  16  19
BRANCH  17  21
ATOM     21  O   UNL     1     112.453 124.592 137.098  0.00  0.00    +0.000 OA
ATOM     22  C   UNL     1     113.267 124.623 137.224  0.00  0.00    +0.000 C 
ENDBRANCH  17  21
ENDBRANCH   4  13
BRANCH  11  23
ATOM     23  O   UNL     1     114.803 129.725 135.478  0.00  0.00    +0.000 OA
ATOM     24  C   UNL     1     115.048 130.508 135.568  0.00  0.00    +0.000 C 
ENDBRANCH  11  23
BRANCH   3  25
ATOM     25  O   UNL     1     111.023 127.613 137.177  0.00  0.00    +0.000 OA
BRANCH  25  33
ATOM     26  O   UNL     1     111.570 127.650 138.498  0.00  0.00    +0.000 OA
ATOM     27  O   UNL     1     109.303 128.009 139.424  0.00  0.00    +0.000 OA
ATOM     28  O   UNL     1     109.512 127.853 137.795  0.00  0.00    +0.000 OA
ATOM     29  C   UNL     1     110.709 127.848 139.621  0.00  0.00    +0.000 C 
ATOM     30  C   UNL     1     110.058 127.890 139.116  0.00  0.00    +0.000 C 
ATOM     31  C   UNL     1     110.163 127.811 138.301  0.00  0.00    +0.000 C 
ATOM     32  C   UNL     1     111.465 127.728 139.313  0.00  0.00    +0.000 C 
ATOM     33  C   UNL     1     110.918 127.691 137.992  0.00  0.00    +0.000 C 
BRANCH  29  34
ATOM     34  O   UNL     1     110.604 127.927 140.435  0.00  0.00    +0.000 OA
BRANCH  34  39
ATOM     35  O   UNL     1     111.265 129.182 140.605  0.00  0.00    +0.000 OA
ATOM     36  O   UNL     1     111.282 127.380 141.837  0.00  0.00    +0.000 OA
ATOM     37  O   UNL     1     112.282 128.363 142.707  0.00  0.00    +0.000 OA
ATOM     38  O   UNL     1     112.604 129.891 142.176  0.00  0.00    +0.000 OA
ATOM     39  C   UNL     1     111.104 128.417 140.871  0.00  0.00    +0.000 C 
ATOM     40  C   UNL     1     111.443 128.144 141.572  0.00  0.00    +0.000 C 
ATOM     41  C   UNL     1     111.943 128.636 142.006  0.00  0.00    +0.000 C 
ATOM     42  C   UNL     1     112.104 129.400 141.741  0.00  0.00    +0.000 C 
ATOM     43  C   UNL     1     111.765 129.673 141.040  0.00  0.00    +0.000 C 
BRANCH  43  45
ATOM     44  O   UNL     1     111.308 130.924 140.522  0.00  0.00    +0.000 OA
ATOM     45  C   UNL     1     111.926 130.437 140.774  0.00  0.00    +0.000 C 
ENDBRANCH  43  45
ENDBRANCH  34  39
ENDBRANCH  29  34
ENDBRANCH  25  33
ENDBRANCH   3  25
TORSDOF 9
ENDMDL
