MODEL 1
REMARK VINA RESULT:     -10.5      0.000      0.000
REMARK  Name = 13887800
REMARK  6 active torsions:
REMARK  status: ('A' for Active; 'I' for Inactive)
REMARK    1  A    between atoms: O_2  and  C_22
REMARK    2  A    between atoms: O_2  and  C_23
REMARK    3  A    between atoms: O_6  and  C_21
REMARK    4  A    between atoms: O_6  and  C_28
REMARK    5  A    between atoms: C_17  and  C_22
REMARK    6  A    between atoms: C_29  and  C_33
REMARK                            x       y       z     vdW  Elec       q    Type
REMARK                         _______ _______ _______ _____ _____    ______ ____
ROOT
ATOM      1  O   UNL     1     112.069 127.530 136.041  0.00  0.00    +0.000 OA
ENDROOT
BRANCH   1   6
ATOM      2  O   UNL     1     111.052 125.617 136.311  0.00  0.00    +0.000 OA
ATOM      3  O   UNL     1     113.343 126.551 136.416  0.00  0.00    +0.000 OA
ATOM      4  O   UNL     1     113.885 125.259 136.760  0.00  0.00    +0.000 OA
ATOM      5  O   UNL     1     112.075 122.979 137.003  0.00  0.00    +0.000 OA
ATOM      6  C   UNL     1     111.943 126.729 136.193  0.00  0.00    +0.000 A 
ATOM      7  C   UNL     1     111.179 126.418 136.158  0.00  0.00    +0.000 A 
ATOM      8  C   UNL     1     112.579 126.239 136.381  0.00  0.00    +0.000 A 
ATOM      9  C   UNL     1     112.453 125.438 136.533  0.00  0.00    +0.000 A 
ATOM     10  C   UNL     1     111.690 125.128 136.498  0.00  0.00    +0.000 A 
ATOM     11  C   UNL     1     113.124 124.939 136.727  0.00  0.00    +0.000 A 
ATOM     12  C   UNL     1     111.545 124.295 136.655  0.00  0.00    +0.000 A 
ATOM     13  C   UNL     1     113.000 124.104 136.887  0.00  0.00    +0.000 A 
ATOM     14  C   UNL     1     112.204 123.780 136.851  0.00  0.00    +0.000 A 
BRANCH   7  17
ATOM     15  O   UNL     1     108.824 127.831 136.950  0.00  0.00    +0.000 OA
ATOM     16  O   UNL     1     108.633 128.379 135.406  0.00  0.00    +0.000 OA
ATOM     17  C   UNL     1     110.542 126.908 135.971  0.00  0.00    +0.000 A 
ATOM     18  C   UNL     1     110.001 127.124 136.555  0.00  0.00    +0.000 A 
ATOM     19  C   UNL     1     110.447 127.182 135.198  0.00  0.00    +0.000 A 
ATOM     20  C   UNL     1     109.365 127.615 136.366  0.00  0.00    +0.000 A 
ATOM     21  C   UNL     1     109.811 127.672 135.010  0.00  0.00    +0.000 A 
ATOM     22  C   UNL     1     109.270 127.889 135.594  0.00  0.00    +0.000 A 
ENDBRANCH   7  17
ENDBRANCH   1   6
BRANCH   1  31
ATOM     23  O   UNL     1     112.180 127.936 137.406  0.00  0.00    +0.000 OA
ATOM     24  O   UNL     1     113.434 129.454 138.349  0.00  0.00    +0.000 OA
ATOM     25  O   UNL     1     113.895 129.604 136.771  0.00  0.00    +0.000 OA
ATOM     26  O   UNL     1     113.212 128.642 135.617  0.00  0.00    +0.000 OA
ATOM     27  C   UNL     1     112.521 128.417 137.983  0.00  0.00    +0.000 C 
ATOM     28  C   UNL     1     113.092 128.972 137.771  0.00  0.00    +0.000 C 
ATOM     29  C   UNL     1     113.323 129.048 136.983  0.00  0.00    +0.000 C 
ATOM     30  C   UNL     1     112.981 128.567 136.406  0.00  0.00    +0.000 C 
ATOM     31  C   UNL     1     112.410 128.011 136.617  0.00  0.00    +0.000 C 
BRANCH  27  32
ATOM     32  C   UNL     1     112.291 128.342 138.772  0.00  0.00    +0.000 C 
BRANCH  32  33
ATOM     33  O   UNL     1     112.156 127.595 139.094  0.00  0.00    +0.000 OA
BRANCH  33  38
ATOM     34  O   UNL     1     111.432 128.172 140.183  0.00  0.00    +0.000 OA
ATOM     35  O   UNL     1     112.196 126.149 139.887  0.00  0.00    +0.000 OA
ATOM     36  O   UNL     1     111.494 126.003 141.373  0.00  0.00    +0.000 OA
ATOM     37  O   UNL     1     110.750 127.303 142.065  0.00  0.00    +0.000 OA
ATOM     38  C   UNL     1     111.804 127.523 139.837  0.00  0.00    +0.000 C 
ATOM     39  C   UNL     1     111.824 126.800 140.234  0.00  0.00    +0.000 C 
ATOM     40  C   UNL     1     111.473 126.726 140.976  0.00  0.00    +0.000 C 
ATOM     41  C   UNL     1     111.102 127.376 141.322  0.00  0.00    +0.000 C 
ATOM     42  C   UNL     1     111.081 128.099 140.925  0.00  0.00    +0.000 C 
ENDBRANCH  33  38
ENDBRANCH  32  33
ENDBRANCH  27  32
ENDBRANCH   1  31
TORSDOF 6
ENDMDL
MODEL 2
REMARK VINA RESULT:     -10.4      1.051      2.803
REMARK  Name = 13887800
REMARK  6 active torsions:
REMARK  status: ('A' for Active; 'I' for Inactive)
REMARK    1  A    between atoms: O_2  and  C_22
REMARK    2  A    between atoms: O_2  and  C_23
REMARK    3  A    between atoms: O_6  and  C_21
REMARK    4  A    between atoms: O_6  and  C_28
REMARK    5  A    between atoms: C_17  and  C_22
REMARK    6  A    between atoms: C_29  and  C_33
REMARK                            x       y       z     vdW  Elec       q    Type
REMARK                         _______ _______ _______ _____ _____    ______ ____
ROOT
ATOM      1  O   UNL     1     111.691 127.235 135.902  0.00  0.00    +0.000 OA
ENDROOT
BRANCH   1   6
ATOM      2  O   UNL     1     113.631 126.830 136.818  0.00  0.00    +0.000 OA
ATOM      3  O   UNL     1     111.655 125.587 135.993  0.00  0.00    +0.000 OA
ATOM      4  O   UNL     1     112.261 124.329 136.354  0.00  0.00    +0.000 OA
ATOM      5  O   UNL     1     114.916 124.328 137.572  0.00  0.00    +0.000 OA
ATOM      6  C   UNL     1     112.331 126.825 136.223  0.00  0.00    +0.000 A 
ATOM      7  C   UNL     1     112.990 127.240 136.498  0.00  0.00    +0.000 A 
ATOM      8  C   UNL     1     112.314 126.002 136.269  0.00  0.00    +0.000 A 
ATOM      9  C   UNL     1     112.955 125.593 136.589  0.00  0.00    +0.000 A 
ATOM     10  C   UNL     1     113.612 126.007 136.864  0.00  0.00    +0.000 A 
ATOM     11  C   UNL     1     112.924 124.735 136.631  0.00  0.00    +0.000 A 
ATOM     12  C   UNL     1     114.285 125.592 137.200  0.00  0.00    +0.000 A 
ATOM     13  C   UNL     1     113.587 124.303 136.964  0.00  0.00    +0.000 A 
ATOM     14  C   UNL     1     114.274 124.735 137.251  0.00  0.00    +0.000 A 
BRANCH   7  17
ATOM     15  O   UNL     1     112.854 129.794 137.772  0.00  0.00    +0.000 OA
ATOM     16  O   UNL     1     113.059 130.534 136.311  0.00  0.00    +0.000 OA
ATOM     17  C   UNL     1     113.007 128.063 136.452  0.00  0.00    +0.000 A 
ATOM     18  C   UNL     1     112.922 128.517 137.135  0.00  0.00    +0.000 A 
ATOM     19  C   UNL     1     113.110 128.433 135.721  0.00  0.00    +0.000 A 
ATOM     20  C   UNL     1     112.939 129.341 137.088  0.00  0.00    +0.000 A 
ATOM     21  C   UNL     1     113.128 129.256 135.675  0.00  0.00    +0.000 A 
ATOM     22  C   UNL     1     113.042 129.710 136.358  0.00  0.00    +0.000 A 
ENDBRANCH   7  17
ENDBRANCH   1   6
BRANCH   1  31
ATOM     23  O   UNL     1     110.838 127.155 137.046  0.00  0.00    +0.000 OA
ATOM     24  O   UNL     1     108.680 126.866 137.202  0.00  0.00    +0.000 OA
ATOM     25  O   UNL     1     108.880 126.840 135.564  0.00  0.00    +0.000 OA
ATOM     26  O   UNL     1     110.386 127.025 134.914  0.00  0.00    +0.000 OA
ATOM     27  C   UNL     1     110.086 127.063 137.371  0.00  0.00    +0.000 C 
ATOM     28  C   UNL     1     109.433 126.958 136.877  0.00  0.00    +0.000 C 
ATOM     29  C   UNL     1     109.533 126.945 136.058  0.00  0.00    +0.000 C 
ATOM     30  C   UNL     1     110.286 127.038 135.733  0.00  0.00    +0.000 C 
ATOM     31  C   UNL     1     110.939 127.143 136.227  0.00  0.00    +0.000 C 
BRANCH  27  32
ATOM     32  C   UNL     1     109.985 127.076 138.189  0.00  0.00    +0.000 C 
BRANCH  32  33
ATOM     33  O   UNL     1     110.572 126.773 138.683  0.00  0.00    +0.000 OA
BRANCH  33  38
ATOM     34  O   UNL     1     110.013 127.452 139.810  0.00  0.00    +0.000 OA
ATOM     35  O   UNL     1     111.493 125.851 139.694  0.00  0.00    +0.000 OA
ATOM     36  O   UNL     1     111.395 126.068 141.327  0.00  0.00    +0.000 OA
ATOM     37  O   UNL     1     110.376 127.207 141.948  0.00  0.00    +0.000 OA
ATOM     38  C   UNL     1     110.522 126.882 139.499  0.00  0.00    +0.000 C 
ATOM     39  C   UNL     1     110.983 126.421 140.005  0.00  0.00    +0.000 C 
ATOM     40  C   UNL     1     110.935 126.529 140.821  0.00  0.00    +0.000 C 
ATOM     41  C   UNL     1     110.425 127.099 141.131  0.00  0.00    +0.000 C 
ATOM     42  C   UNL     1     109.965 127.560 140.626  0.00  0.00    +0.000 C 
ENDBRANCH  33  38
ENDBRANCH  32  33
ENDBRANCH  27  32
ENDBRANCH   1  31
TORSDOF 6
ENDMDL
MODEL 3
REMARK VINA RESULT:     -10.2      1.144      3.002
REMARK  Name = 13887800
REMARK  6 active torsions:
REMARK  status: ('A' for Active; 'I' for Inactive)
REMARK    1  A    between atoms: O_2  and  C_22
REMARK    2  A    between atoms: O_2  and  C_23
REMARK    3  A    between atoms: O_6  and  C_21
REMARK    4  A    between atoms: O_6  and  C_28
REMARK    5  A    between atoms: C_17  and  C_22
REMARK    6  A    between atoms: C_29  and  C_33
REMARK                            x       y       z     vdW  Elec       q    Type
REMARK                         _______ _______ _______ _____ _____    ______ ____
ROOT
ATOM      1  O   UNL     1     113.022 127.358 136.523  0.00  0.00    +0.000 OA
ENDROOT
BRANCH   1   6
ATOM      2  O   UNL     1     111.799 125.646 135.938  0.00  0.00    +0.000 OA
ATOM      3  O   UNL     1     111.725 128.119 135.842  0.00  0.00    +0.000 OA
ATOM      4  O   UNL     1     110.441 128.083 135.186  0.00  0.00    +0.000 OA
ATOM      5  O   UNL     1     109.209 125.497 134.616  0.00  0.00    +0.000 OA
ATOM      6  C   UNL     1     112.398 126.914 136.215  0.00  0.00    +0.000 A 
ATOM      7  C   UNL     1     112.423 126.090 136.247  0.00  0.00    +0.000 A 
ATOM      8  C   UNL     1     111.750 127.294 135.874  0.00  0.00    +0.000 A 
ATOM      9  C   UNL     1     111.127 126.850 135.566  0.00  0.00    +0.000 A 
ATOM     10  C   UNL     1     111.151 126.027 135.598  0.00  0.00    +0.000 A 
ATOM     11  C   UNL     1     110.457 127.259 135.214  0.00  0.00    +0.000 A 
ATOM     12  C   UNL     1     110.508 125.554 135.280  0.00  0.00    +0.000 A 
ATOM     13  C   UNL     1     109.805 126.803 134.891  0.00  0.00    +0.000 A 
ATOM     14  C   UNL     1     109.831 125.943 134.924  0.00  0.00    +0.000 A 
BRANCH   7  17
ATOM     15  O   UNL     1     115.158 125.270 136.124  0.00  0.00    +0.000 OA
ATOM     16  O   UNL     1     115.015 124.570 137.611  0.00  0.00    +0.000 OA
ATOM     17  C   UNL     1     113.071 125.710 136.587  0.00  0.00    +0.000 A 
ATOM     18  C   UNL     1     113.790 125.680 136.185  0.00  0.00    +0.000 A 
ATOM     19  C   UNL     1     112.999 125.360 137.332  0.00  0.00    +0.000 A 
ATOM     20  C   UNL     1     114.438 125.300 136.526  0.00  0.00    +0.000 A 
ATOM     21  C   UNL     1     113.648 124.980 137.672  0.00  0.00    +0.000 A 
ATOM     22  C   UNL     1     114.367 124.950 137.270  0.00  0.00    +0.000 A 
ENDBRANCH   7  17
ENDBRANCH   1   6
BRANCH   1  31
ATOM     23  O   UNL     1     112.315 127.766 137.697  0.00  0.00    +0.000 OA
ATOM     24  O   UNL     1     112.447 129.595 138.880  0.00  0.00    +0.000 OA
ATOM     25  O   UNL     1     113.571 129.898 137.712  0.00  0.00    +0.000 OA
ATOM     26  O   UNL     1     113.859 128.780 136.533  0.00  0.00    +0.000 OA
ATOM     27  C   UNL     1     112.172 128.325 138.286  0.00  0.00    +0.000 C 
ATOM     28  C   UNL     1     112.590 129.035 138.291  0.00  0.00    +0.000 C 
ATOM     29  C   UNL     1     113.153 129.188 137.707  0.00  0.00    +0.000 C 
ATOM     30  C   UNL     1     113.296 128.628 137.117  0.00  0.00    +0.000 C 
ATOM     31  C   UNL     1     112.878 127.917 137.112  0.00  0.00    +0.000 C 
BRANCH  27  32
ATOM     32  C   UNL     1     111.609 128.174 138.870  0.00  0.00    +0.000 C 
BRANCH  32  33
ATOM     33  O   UNL     1     111.667 127.494 139.333  0.00  0.00    +0.000 OA
BRANCH  33  38
ATOM     34  O   UNL     1     110.328 127.669 139.800  0.00  0.00    +0.000 OA
ATOM     35  O   UNL     1     111.930 126.367 140.510  0.00  0.00    +0.000 OA
ATOM     36  O   UNL     1     110.722 125.979 141.564  0.00  0.00    +0.000 OA
ATOM     37  O   UNL     1     109.251 126.717 141.442  0.00  0.00    +0.000 OA
ATOM     38  C   UNL     1     111.063 127.300 139.860  0.00  0.00    +0.000 C 
ATOM     39  C   UNL     1     111.194 126.737 140.449  0.00  0.00    +0.000 C 
ATOM     40  C   UNL     1     110.590 126.542 140.976  0.00  0.00    +0.000 C 
ATOM     41  C   UNL     1     109.855 126.911 140.914  0.00  0.00    +0.000 C 
ATOM     42  C   UNL     1     109.724 127.475 140.326  0.00  0.00    +0.000 C 
ENDBRANCH  33  38
ENDBRANCH  32  33
ENDBRANCH  27  32
ENDBRANCH   1  31
TORSDOF 6
ENDMDL
MODEL 4
REMARK VINA RESULT:     -10.2      1.489      4.556
REMARK  Name = 13887800
REMARK  6 active torsions:
REMARK  status: ('A' for Active; 'I' for Inactive)
REMARK    1  A    between atoms: O_2  and  C_22
REMARK    2  A    between atoms: O_2  and  C_23
REMARK    3  A    between atoms: O_6  and  C_21
REMARK    4  A    between atoms: O_6  and  C_28
REMARK    5  A    between atoms: C_17  and  C_22
REMARK    6  A    between atoms: C_29  and  C_33
REMARK                            x       y       z     vdW  Elec       q    Type
REMARK                         _______ _______ _______ _____ _____    ______ ____
ROOT
ATOM      1  O   UNL     1     111.887 125.354 136.857  0.00  0.00    +0.000 OA
ENDROOT
BRANCH   1   6
ATOM      2  O   UNL     1     112.973 126.019 138.631  0.00  0.00    +0.000 OA
ATOM      3  O   UNL     1     110.636 125.728 137.867  0.00  0.00    +0.000 OA
ATOM      4  O   UNL     1     110.133 126.200 139.134  0.00  0.00    +0.000 OA
ATOM      5  O   UNL     1     112.030 126.981 141.213  0.00  0.00    +0.000 OA
ATOM      6  C   UNL     1     112.040 125.638 137.617  0.00  0.00    +0.000 A 
ATOM      7  C   UNL     1     112.819 125.735 137.872  0.00  0.00    +0.000 A 
ATOM      8  C   UNL     1     111.415 125.825 138.122  0.00  0.00    +0.000 A 
ATOM      9  C   UNL     1     111.569 126.109 138.881  0.00  0.00    +0.000 A 
ATOM     10  C   UNL     1     112.347 126.206 139.135  0.00  0.00    +0.000 A 
ATOM     11  C   UNL     1     110.909 126.300 139.397  0.00  0.00    +0.000 A 
ATOM     12  C   UNL     1     112.519 126.500 139.924  0.00  0.00    +0.000 A 
ATOM     13  C   UNL     1     111.061 126.596 140.189  0.00  0.00    +0.000 A 
ATOM     14  C   UNL     1     111.873 126.697 140.454  0.00  0.00    +0.000 A 
BRANCH   7  17
ATOM     15  O   UNL     1     114.914 126.561 136.112  0.00  0.00    +0.000 OA
ATOM     16  O   UNL     1     115.319 124.983 135.852  0.00  0.00    +0.000 OA
ATOM     17  C   UNL     1     113.444 125.547 137.367  0.00  0.00    +0.000 A 
ATOM     18  C   UNL     1     113.867 126.149 136.992  0.00  0.00    +0.000 A 
ATOM     19  C   UNL     1     113.646 124.758 137.237  0.00  0.00    +0.000 A 
ATOM     20  C   UNL     1     114.492 125.960 136.487  0.00  0.00    +0.000 A 
ATOM     21  C   UNL     1     114.271 124.570 136.732  0.00  0.00    +0.000 A 
ATOM     22  C   UNL     1     114.694 125.172 136.357  0.00  0.00    +0.000 A 
ENDBRANCH   7  17
ENDBRANCH   1   6
BRANCH   1  31
ATOM     23  O   UNL     1     111.480 126.631 136.361  0.00  0.00    +0.000 OA
ATOM     24  O   UNL     1     110.115 127.168 134.745  0.00  0.00    +0.000 OA
ATOM     25  O   UNL     1     110.042 125.520 134.681  0.00  0.00    +0.000 OA
ATOM     26  O   UNL     1     110.928 124.614 135.737  0.00  0.00    +0.000 OA
ATOM     27  C   UNL     1     111.038 127.084 135.834  0.00  0.00    +0.000 C 
ATOM     28  C   UNL     1     110.558 126.714 135.274  0.00  0.00    +0.000 C 
ATOM     29  C   UNL     1     110.521 125.891 135.241  0.00  0.00    +0.000 C 
ATOM     30  C   UNL     1     110.965 125.437 135.770  0.00  0.00    +0.000 C 
ATOM     31  C   UNL     1     111.444 125.807 136.330  0.00  0.00    +0.000 C 
BRANCH  27  32
ATOM     32  C   UNL     1     111.074 127.908 135.865  0.00  0.00    +0.000 C 
BRANCH  32  33
ATOM     33  O   UNL     1     111.803 128.291 135.830  0.00  0.00    +0.000 OA
BRANCH  33  38
ATOM     34  O   UNL     1     111.302 129.358 136.639  0.00  0.00    +0.000 OA
ATOM     35  O   UNL     1     113.144 129.186 135.480  0.00  0.00    +0.000 OA
ATOM     36  O   UNL     1     113.315 130.700 136.114  0.00  0.00    +0.000 OA
ATOM     37  O   UNL     1     112.144 131.319 137.098  0.00  0.00    +0.000 OA
ATOM     38  C   UNL     1     111.887 129.048 136.148  0.00  0.00    +0.000 C 
ATOM     39  C   UNL     1     112.558 129.496 135.973  0.00  0.00    +0.000 C 
ATOM     40  C   UNL     1     112.644 130.252 136.289  0.00  0.00    +0.000 C 
ATOM     41  C   UNL     1     112.058 130.561 136.781  0.00  0.00    +0.000 C 
ATOM     42  C   UNL     1     111.387 130.114 136.956  0.00  0.00    +0.000 C 
ENDBRANCH  33  38
ENDBRANCH  32  33
ENDBRANCH  27  32
ENDBRANCH   1  31
TORSDOF 6
ENDMDL
MODEL 5
REMARK VINA RESULT:     -10.1      1.140      4.321
REMARK  Name = 13887800
REMARK  6 active torsions:
REMARK  status: ('A' for Active; 'I' for Inactive)
REMARK    1  A    between atoms: O_2  and  C_22
REMARK    2  A    between atoms: O_2  and  C_23
REMARK    3  A    between atoms: O_6  and  C_21
REMARK    4  A    between atoms: O_6  and  C_28
REMARK    5  A    between atoms: C_17  and  C_22
REMARK    6  A    between atoms: C_29  and  C_33
REMARK                            x       y       z     vdW  Elec       q    Type
REMARK                         _______ _______ _______ _____ _____    ______ ____
ROOT
ATOM      1  O   UNL     1     112.586 126.562 138.215  0.00  0.00    +0.000 OA
ENDROOT
BRANCH   1   6
ATOM      2  O   UNL     1     113.187 127.125 136.193  0.00  0.00    +0.000 OA
ATOM      3  O   UNL     1     113.047 128.128 138.453  0.00  0.00    +0.000 OA
ATOM      4  O   UNL     1     113.558 129.384 137.958  0.00  0.00    +0.000 OA
ATOM      5  O   UNL     1     114.223 129.629 135.125  0.00  0.00    +0.000 OA
ATOM      6  C   UNL     1     112.864 127.011 137.581  0.00  0.00    +0.000 A 
ATOM      7  C   UNL     1     112.910 126.676 136.828  0.00  0.00    +0.000 A 
ATOM      8  C   UNL     1     113.094 127.794 137.699  0.00  0.00    +0.000 A 
ATOM      9  C   UNL     1     113.371 128.243 137.065  0.00  0.00    +0.000 A 
ATOM     10  C   UNL     1     113.418 127.909 136.313  0.00  0.00    +0.000 A 
ATOM     11  C   UNL     1     113.608 129.058 137.202  0.00  0.00    +0.000 A 
ATOM     12  C   UNL     1     113.704 128.366 135.645  0.00  0.00    +0.000 A 
ATOM     13  C   UNL     1     113.897 129.531 136.546  0.00  0.00    +0.000 A 
ATOM     14  C   UNL     1     113.946 129.182 135.761  0.00  0.00    +0.000 A 
BRANCH   7  17
ATOM     15  O   UNL     1     111.020 124.773 135.841  0.00  0.00    +0.000 OA
ATOM     16  O   UNL     1     111.990 123.542 136.357  0.00  0.00    +0.000 OA
ATOM     17  C   UNL     1     112.680 125.893 136.710  0.00  0.00    +0.000 A 
ATOM     18  C   UNL     1     111.965 125.725 136.334  0.00  0.00    +0.000 A 
ATOM     19  C   UNL     1     113.165 125.277 136.968  0.00  0.00    +0.000 A 
ATOM     20  C   UNL     1     111.735 124.941 136.217  0.00  0.00    +0.000 A 
ATOM     21  C   UNL     1     112.935 124.494 136.850  0.00  0.00    +0.000 A 
ATOM     22  C   UNL     1     112.220 124.326 136.474  0.00  0.00    +0.000 A 
ENDBRANCH   7  17
ENDBRANCH   1   6
BRANCH   1  31
ATOM     23  O   UNL     1     111.342 127.262 138.265  0.00  0.00    +0.000 OA
ATOM     24  O   UNL     1     109.931 127.554 139.904  0.00  0.00    +0.000 OA
ATOM     25  O   UNL     1     111.092 126.649 140.650  0.00  0.00    +0.000 OA
ATOM     26  O   UNL     1     112.420 126.153 139.805  0.00  0.00    +0.000 OA
ATOM     27  C   UNL     1     110.679 127.510 138.687  0.00  0.00    +0.000 C 
ATOM     28  C   UNL     1     110.595 127.306 139.482  0.00  0.00    +0.000 C 
ATOM     29  C   UNL     1     111.175 126.853 139.855  0.00  0.00    +0.000 C 
ATOM     30  C   UNL     1     111.840 126.605 139.432  0.00  0.00    +0.000 C 
ATOM     31  C   UNL     1     111.923 126.810 138.637  0.00  0.00    +0.000 C 
BRANCH  27  32
ATOM     32  C   UNL     1     110.098 127.963 138.315  0.00  0.00    +0.000 C 
BRANCH  32  33
ATOM     33  O   UNL     1     109.829 127.754 137.564  0.00  0.00    +0.000 OA
BRANCH  33  38
ATOM     34  O   UNL     1     109.680 129.119 137.166  0.00  0.00    +0.000 OA
ATOM     35  O   UNL     1     108.752 127.298 136.400  0.00  0.00    +0.000 OA
ATOM     36  O   UNL     1     108.064 128.434 135.421  0.00  0.00    +0.000 OA
ATOM     37  O   UNL     1     108.453 130.027 135.606  0.00  0.00    +0.000 OA
ATOM     38  C   UNL     1     109.486 128.323 137.074  0.00  0.00    +0.000 C 
ATOM     39  C   UNL     1     108.947 128.095 136.493  0.00  0.00    +0.000 C 
ATOM     40  C   UNL     1     108.603 128.662 136.003  0.00  0.00    +0.000 C 
ATOM     41  C   UNL     1     108.798 129.458 136.096  0.00  0.00    +0.000 C 
ATOM     42  C   UNL     1     109.336 129.686 136.677  0.00  0.00    +0.000 C 
ENDBRANCH  33  38
ENDBRANCH  32  33
ENDBRANCH  27  32
ENDBRANCH   1  31
TORSDOF 6
ENDMDL
MODEL 6
REMARK VINA RESULT:     -10.0      1.220      3.943
REMARK  Name = 13887800
REMARK  6 active torsions:
REMARK  status: ('A' for Active; 'I' for Inactive)
REMARK    1  A    between atoms: O_2  and  C_22
REMARK    2  A    between atoms: O_2  and  C_23
REMARK    3  A    between atoms: O_6  and  C_21
REMARK    4  A    between atoms: O_6  and  C_28
REMARK    5  A    between atoms: C_17  and  C_22
REMARK    6  A    between atoms: C_29  and  C_33
REMARK                            x       y       z     vdW  Elec       q    Type
REMARK                         _______ _______ _______ _____ _____    ______ ____
ROOT
ATOM      1  O   UNL     1     113.220 126.721 137.209  0.00  0.00    +0.000 OA
ENDROOT
BRANCH   1   6
ATOM      2  O   UNL     1     111.979 126.014 138.860  0.00  0.00    +0.000 OA
ATOM      3  O   UNL     1     113.521 127.881 138.344  0.00  0.00    +0.000 OA
ATOM      4  O   UNL     1     113.323 128.444 139.658  0.00  0.00    +0.000 OA
ATOM      5  O   UNL     1     111.531 127.093 141.527  0.00  0.00    +0.000 OA
ATOM      6  C   UNL     1     112.857 126.679 137.948  0.00  0.00    +0.000 A 
ATOM      7  C   UNL     1     112.342 126.056 138.120  0.00  0.00    +0.000 A 
ATOM      8  C   UNL     1     113.006 127.258 138.516  0.00  0.00    +0.000 A 
ATOM      9  C   UNL     1     112.643 127.215 139.256  0.00  0.00    +0.000 A 
ATOM     10  C   UNL     1     112.129 126.594 139.427  0.00  0.00    +0.000 A 
ATOM     11  C   UNL     1     112.808 127.825 139.838  0.00  0.00    +0.000 A 
ATOM     12  C   UNL     1     111.745 126.539 140.193  0.00  0.00    +0.000 A 
ATOM     13  C   UNL     1     112.432 127.787 140.610  0.00  0.00    +0.000 A 
ATOM     14  C   UNL     1     111.896 127.138 140.789  0.00  0.00    +0.000 A 
BRANCH   7  17
ATOM     15  O   UNL     1     110.634 124.926 136.127  0.00  0.00    +0.000 OA
ATOM     16  O   UNL     1     111.746 123.738 135.849  0.00  0.00    +0.000 OA
ATOM     17  C   UNL     1     112.193 125.477 137.552  0.00  0.00    +0.000 A 
ATOM     18  C   UNL     1     111.488 125.491 137.124  0.00  0.00    +0.000 A 
ATOM     19  C   UNL     1     112.749 124.883 137.413  0.00  0.00    +0.000 A 
ATOM     20  C   UNL     1     111.339 124.911 136.556  0.00  0.00    +0.000 A 
ATOM     21  C   UNL     1     112.599 124.304 136.845  0.00  0.00    +0.000 A 
ATOM     22  C   UNL     1     111.894 124.318 136.417  0.00  0.00    +0.000 A 
ENDBRANCH   7  17
ENDBRANCH   1   6
BRANCH   1  31
ATOM     23  O   UNL     1     112.414 127.809 136.751  0.00  0.00    +0.000 OA
ATOM     24  O   UNL     1     112.851 129.417 135.341  0.00  0.00    +0.000 OA
ATOM     25  O   UNL     1     114.279 128.590 135.323  0.00  0.00    +0.000 OA
ATOM     26  O   UNL     1     114.463 127.242 136.257  0.00  0.00    +0.000 OA
ATOM     27  C   UNL     1     112.322 128.482 136.285  0.00  0.00    +0.000 C 
ATOM     28  C   UNL     1     112.943 128.742 135.809  0.00  0.00    +0.000 C 
ATOM     29  C   UNL     1     113.657 128.329 135.799  0.00  0.00    +0.000 C 
ATOM     30  C   UNL     1     113.749 127.655 136.267  0.00  0.00    +0.000 C 
ATOM     31  C   UNL     1     113.128 127.395 136.743  0.00  0.00    +0.000 C 
BRANCH  27  32
ATOM     32  C   UNL     1     111.608 128.896 136.293  0.00  0.00    +0.000 C 
BRANCH  32  33
ATOM     33  O   UNL     1     110.900 128.502 136.141  0.00  0.00    +0.000 OA
BRANCH  33  38
ATOM     34  O   UNL     1     110.147 129.586 136.689  0.00  0.00    +0.000 OA
ATOM     35  O   UNL     1     109.524 127.884 135.472  0.00  0.00    +0.000 OA
ATOM     36  O   UNL     1     108.083 128.659 135.686  0.00  0.00    +0.000 OA
ATOM     37  O   UNL     1     108.018 130.052 136.568  0.00  0.00    +0.000 OA
ATOM     38  C   UNL     1     110.180 128.890 136.248  0.00  0.00    +0.000 C 
ATOM     39  C   UNL     1     109.492 128.581 135.914  0.00  0.00    +0.000 C 
ATOM     40  C   UNL     1     108.771 128.968 136.020  0.00  0.00    +0.000 C 
ATOM     41  C   UNL     1     108.739 129.664 136.461  0.00  0.00    +0.000 C 
ATOM     42  C   UNL     1     109.427 129.973 136.795  0.00  0.00    +0.000 C 
ENDBRANCH  33  38
ENDBRANCH  32  33
ENDBRANCH  27  32
ENDBRANCH   1  31
TORSDOF 6
ENDMDL
MODEL 7
REMARK VINA RESULT:     -10.0      1.979      4.571
REMARK  Name = 13887800
REMARK  6 active torsions:
REMARK  status: ('A' for Active; 'I' for Inactive)
REMARK    1  A    between atoms: O_2  and  C_22
REMARK    2  A    between atoms: O_2  and  C_23
REMARK    3  A    between atoms: O_6  and  C_21
REMARK    4  A    between atoms: O_6  and  C_28
REMARK    5  A    between atoms: C_17  and  C_22
REMARK    6  A    between atoms: C_29  and  C_33
REMARK                            x       y       z     vdW  Elec       q    Type
REMARK                         _______ _______ _______ _____ _____    ______ ____
ROOT
ATOM      1  O   UNL     1     111.261 127.345 137.223  0.00  0.00    +0.000 OA
ENDROOT
BRANCH   1   6
ATOM      2  O   UNL     1     112.292 128.003 135.414  0.00  0.00    +0.000 OA
ATOM      3  O   UNL     1     112.345 128.416 137.854  0.00  0.00    +0.000 OA
ATOM      4  O   UNL     1     113.422 129.364 137.699  0.00  0.00    +0.000 OA
ATOM      5  O   UNL     1     114.464 129.903 135.024  0.00  0.00    +0.000 OA
ATOM      6  C   UNL     1     111.785 127.743 136.725  0.00  0.00    +0.000 A 
ATOM      7  C   UNL     1     111.768 127.605 135.911  0.00  0.00    +0.000 A 
ATOM      8  C   UNL     1     112.327 128.279 137.040  0.00  0.00    +0.000 A 
ATOM      9  C   UNL     1     112.852 128.677 136.543  0.00  0.00    +0.000 A 
ATOM     10  C   UNL     1     112.834 128.539 135.730  0.00  0.00    +0.000 A 
ATOM     11  C   UNL     1     113.411 129.232 136.884  0.00  0.00    +0.000 A 
ATOM     12  C   UNL     1     113.374 128.947 135.202  0.00  0.00    +0.000 A 
ATOM     13  C   UNL     1     113.960 129.650 136.372  0.00  0.00    +0.000 A 
ATOM     14  C   UNL     1     113.941 129.506 135.524  0.00  0.00    +0.000 A 
BRANCH   7  17
ATOM     15  O   UNL     1     110.876 124.916 135.537  0.00  0.00    +0.000 OA
ATOM     16  O   UNL     1     109.597 125.463 134.649  0.00  0.00    +0.000 OA
ATOM     17  C   UNL     1     111.226 127.069 135.596  0.00  0.00    +0.000 A 
ATOM     18  C   UNL     1     111.322 126.260 135.725  0.00  0.00    +0.000 A 
ATOM     19  C   UNL     1     110.586 127.343 135.152  0.00  0.00    +0.000 A 
ATOM     20  C   UNL     1     110.779 125.725 135.409  0.00  0.00    +0.000 A 
ATOM     21  C   UNL     1     110.044 126.807 134.837  0.00  0.00    +0.000 A 
ATOM     22  C   UNL     1     110.140 125.998 134.965  0.00  0.00    +0.000 A 
ENDBRANCH   7  17
ENDBRANCH   1   6
BRANCH   1  31
ATOM     23  O   UNL     1     110.415 128.477 137.429  0.00  0.00    +0.000 OA
ATOM     24  O   UNL     1     109.189 129.051 139.142  0.00  0.00    +0.000 OA
ATOM     25  O   UNL     1     109.846 127.640 139.688  0.00  0.00    +0.000 OA
ATOM     26  O   UNL     1     110.883 126.787 138.729  0.00  0.00    +0.000 OA
ATOM     27  C   UNL     1     109.897 128.903 137.909  0.00  0.00    +0.000 C 
ATOM     28  C   UNL     1     109.708 128.625 138.662  0.00  0.00    +0.000 C 
ATOM     29  C   UNL     1     110.036 127.919 138.935  0.00  0.00    +0.000 C 
ATOM     30  C   UNL     1     110.554 127.492 138.455  0.00  0.00    +0.000 C 
ATOM     31  C   UNL     1     110.744 127.771 137.702  0.00  0.00    +0.000 C 
BRANCH  27  32
ATOM     32  C   UNL     1     109.568 129.609 137.636  0.00  0.00    +0.000 C 
BRANCH  32  33
ATOM     33  O   UNL     1     109.160 129.625 136.920  0.00  0.00    +0.000 OA
BRANCH  33  38
ATOM     34  O   UNL     1     109.556 130.962 136.606  0.00  0.00    +0.000 OA
ATOM     35  O   UNL     1     107.778 129.829 136.042  0.00  0.00    +0.000 OA
ATOM     36  O   UNL     1     107.483 131.268 135.289  0.00  0.00    +0.000 OA
ATOM     37  O   UNL     1     108.570 132.503 135.415  0.00  0.00    +0.000 OA
ATOM     38  C   UNL     1     109.013 130.345 136.544  0.00  0.00    +0.000 C 
ATOM     39  C   UNL     1     108.322 130.447 136.105  0.00  0.00    +0.000 C 
ATOM     40  C   UNL     1     108.174 131.166 135.728  0.00  0.00    +0.000 C 
ATOM     41  C   UNL     1     108.718 131.783 135.792  0.00  0.00    +0.000 C 
ATOM     42  C   UNL     1     109.409 131.681 136.231  0.00  0.00    +0.000 C 
ENDBRANCH  33  38
ENDBRANCH  32  33
ENDBRANCH  27  32
ENDBRANCH   1  31
TORSDOF 6
ENDMDL
MODEL 8
REMARK VINA RESULT:     -10.0      1.785      4.559
REMARK  Name = 13887800
REMARK  6 active torsions:
REMARK  status: ('A' for Active; 'I' for Inactive)
REMARK    1  A    between atoms: O_2  and  C_22
REMARK    2  A    between atoms: O_2  and  C_23
REMARK    3  A    between atoms: O_6  and  C_21
REMARK    4  A    between atoms: O_6  and  C_28
REMARK    5  A    between atoms: C_17  and  C_22
REMARK    6  A    between atoms: C_29  and  C_33
REMARK                            x       y       z     vdW  Elec       q    Type
REMARK                         _______ _______ _______ _____ _____    ______ ____
ROOT
ATOM      1  O   UNL     1     111.963 126.132 139.293  0.00  0.00    +0.000 OA
ENDROOT
BRANCH   1   6
ATOM      2  O   UNL     1     113.868 126.337 138.246  0.00  0.00    +0.000 OA
ATOM      3  O   UNL     1     111.808 124.968 138.133  0.00  0.00    +0.000 OA
ATOM      4  O   UNL     1     112.321 124.238 136.999  0.00  0.00    +0.000 OA
ATOM      5  O   UNL     1     114.968 124.905 135.960  0.00  0.00    +0.000 OA
ATOM      6  C   UNL     1     112.572 126.006 138.751  0.00  0.00    +0.000 A 
ATOM      7  C   UNL     1     113.259 126.462 138.788  0.00  0.00    +0.000 A 
ATOM      8  C   UNL     1     112.495 125.424 138.171  0.00  0.00    +0.000 A 
ATOM      9  C   UNL     1     113.104 125.299 137.629  0.00  0.00    +0.000 A 
ATOM     10  C   UNL     1     113.790 125.754 137.666  0.00  0.00    +0.000 A 
ATOM     11  C   UNL     1     113.011 124.689 137.029  0.00  0.00    +0.000 A 
ATOM     12  C   UNL     1     114.431 125.633 137.107  0.00  0.00    +0.000 A 
ATOM     13  C   UNL     1     113.642 124.553 136.462  0.00  0.00    +0.000 A 
ATOM     14  C   UNL     1     114.357 125.029 136.501  0.00  0.00    +0.000 A 
BRANCH   7  17
ATOM     15  O   UNL     1     113.263 129.218 139.546  0.00  0.00    +0.000 OA
ATOM     16  O   UNL     1     113.567 128.787 141.110  0.00  0.00    +0.000 OA
ATOM     17  C   UNL     1     113.336 127.044 139.368  0.00  0.00    +0.000 A 
ATOM     18  C   UNL     1     113.261 127.840 139.167  0.00  0.00    +0.000 A 
ATOM     19  C   UNL     1     113.488 126.828 140.150  0.00  0.00    +0.000 A 
ATOM     20  C   UNL     1     113.338 128.421 139.748  0.00  0.00    +0.000 A 
ATOM     21  C   UNL     1     113.564 127.410 140.730  0.00  0.00    +0.000 A 
ATOM     22  C   UNL     1     113.490 128.206 140.529  0.00  0.00    +0.000 A 
ENDBRANCH   7  17
ENDBRANCH   1   6
BRANCH   1  31
ATOM     23  O   UNL     1     111.104 126.781 138.353  0.00  0.00    +0.000 OA
ATOM     24  O   UNL     1     108.927 126.860 138.224  0.00  0.00    +0.000 OA
ATOM     25  O   UNL     1     109.126 125.925 139.569  0.00  0.00    +0.000 OA
ATOM     26  O   UNL     1     110.644 125.561 140.103  0.00  0.00    +0.000 OA
ATOM     27  C   UNL     1     110.346 126.963 138.086  0.00  0.00    +0.000 C 
ATOM     28  C   UNL     1     109.687 126.678 138.491  0.00  0.00    +0.000 C 
ATOM     29  C   UNL     1     109.785 126.211 139.163  0.00  0.00    +0.000 C 
ATOM     30  C   UNL     1     110.545 126.029 139.431  0.00  0.00    +0.000 C 
ATOM     31  C   UNL     1     111.205 126.314 139.025  0.00  0.00    +0.000 C 
BRANCH  27  32
ATOM     32  C   UNL     1     110.246 127.431 137.413  0.00  0.00    +0.000 C 
BRANCH  32  33
ATOM     33  O   UNL     1     110.586 128.181 137.377  0.00  0.00    +0.000 OA
BRANCH  33  38
ATOM     34  O   UNL     1     110.373 128.257 135.966  0.00  0.00    +0.000 OA
ATOM     35  O   UNL     1     110.785 129.818 137.436  0.00  0.00    +0.000 OA
ATOM     36  O   UNL     1     110.671 130.713 136.054  0.00  0.00    +0.000 OA
ATOM     37  O   UNL     1     110.359 129.970 134.614  0.00  0.00    +0.000 OA
ATOM     38  C   UNL     1     110.529 128.628 136.686  0.00  0.00    +0.000 C 
ATOM     39  C   UNL     1     110.629 129.446 136.715  0.00  0.00    +0.000 C 
ATOM     40  C   UNL     1     110.572 129.894 136.025  0.00  0.00    +0.000 C 
ATOM     41  C   UNL     1     110.416 129.523 135.305  0.00  0.00    +0.000 C 
ATOM     42  C   UNL     1     110.317 128.704 135.276  0.00  0.00    +0.000 C 
ENDBRANCH  33  38
ENDBRANCH  32  33
ENDBRANCH  27  32
ENDBRANCH   1  31
TORSDOF 6
ENDMDL
MODEL 9
REMARK VINA RESULT:     -10.0      1.055      4.749
REMARK  Name = 13887800
REMARK  6 active torsions:
REMARK  status: ('A' for Active; 'I' for Inactive)
REMARK    1  A    between atoms: O_2  and  C_22
REMARK    2  A    between atoms: O_2  and  C_23
REMARK    3  A    between atoms: O_6  and  C_21
REMARK    4  A    between atoms: O_6  and  C_28
REMARK    5  A    between atoms: C_17  and  C_22
REMARK    6  A    between atoms: C_29  and  C_33
REMARK                            x       y       z     vdW  Elec       q    Type
REMARK                         _______ _______ _______ _____ _____    ______ ____
ROOT
ATOM      1  O   UNL     1     112.737 126.485 137.427  0.00  0.00    +0.000 OA
ENDROOT
BRANCH   1   6
ATOM      2  O   UNL     1     112.987 128.541 138.119  0.00  0.00    +0.000 OA
ATOM      3  O   UNL     1     113.429 127.179 136.099  0.00  0.00    +0.000 OA
ATOM      4  O   UNL     1     113.984 128.321 135.415  0.00  0.00    +0.000 OA
ATOM      5  O   UNL     1     114.094 130.890 136.801  0.00  0.00    +0.000 OA
ATOM      6  C   UNL     1     112.936 127.286 137.436  0.00  0.00    +0.000 A 
ATOM      7  C   UNL     1     112.789 127.740 138.110  0.00  0.00    +0.000 A 
ATOM      8  C   UNL     1     113.282 127.633 136.773  0.00  0.00    +0.000 A 
ATOM      9  C   UNL     1     113.481 128.434 136.782  0.00  0.00    +0.000 A 
ATOM     10  C   UNL     1     113.334 128.887 137.454  0.00  0.00    +0.000 A 
ATOM     11  C   UNL     1     113.841 128.783 136.084  0.00  0.00    +0.000 A 
ATOM     12  C   UNL     1     113.536 129.722 137.476  0.00  0.00    +0.000 A 
ATOM     13  C   UNL     1     114.050 129.616 136.087  0.00  0.00    +0.000 A 
ATOM     14  C   UNL     1     113.897 130.089 136.789  0.00  0.00    +0.000 A 
BRANCH   7  17
ATOM     15  O   UNL     1     110.512 127.336 139.790  0.00  0.00    +0.000 OA
ATOM     16  O   UNL     1     111.407 126.349 140.764  0.00  0.00    +0.000 OA
ATOM     17  C   UNL     1     112.443 127.393 138.773  0.00  0.00    +0.000 A 
ATOM     18  C   UNL     1     111.650 127.539 138.949  0.00  0.00    +0.000 A 
ATOM     19  C   UNL     1     112.890 126.899 139.260  0.00  0.00    +0.000 A 
ATOM     20  C   UNL     1     111.305 127.190 139.613  0.00  0.00    +0.000 A 
ATOM     21  C   UNL     1     112.544 126.552 139.924  0.00  0.00    +0.000 A 
ATOM     22  C   UNL     1     111.752 126.697 140.100  0.00  0.00    +0.000 A 
ENDBRANCH   7  17
ENDBRANCH   1   6
BRANCH   1  31
ATOM     23  O   UNL     1     111.648 126.712 136.530  0.00  0.00    +0.000 OA
ATOM     24  O   UNL     1     110.582 125.346 135.203  0.00  0.00    +0.000 OA
ATOM     25  O   UNL     1     111.683 124.323 135.883  0.00  0.00    +0.000 OA
ATOM     26  O   UNL     1     112.761 124.893 136.995  0.00  0.00    +0.000 OA
ATOM     27  C   UNL     1     111.109 126.427 135.975  0.00  0.00    +0.000 C 
ATOM     28  C   UNL     1     111.121 125.631 135.759  0.00  0.00    +0.000 C 
ATOM     29  C   UNL     1     111.671 125.119 136.099  0.00  0.00    +0.000 C 
ATOM     30  C   UNL     1     112.210 125.405 136.655  0.00  0.00    +0.000 C 
ATOM     31  C   UNL     1     112.199 126.201 136.871  0.00  0.00    +0.000 C 
BRANCH  27  32
ATOM     32  C   UNL     1     110.558 126.938 135.634  0.00  0.00    +0.000 C 
BRANCH  32  33
ATOM     33  O   UNL     1     110.057 127.385 136.113  0.00  0.00    +0.000 OA
BRANCH  33  38
ATOM     34  O   UNL     1     110.165 128.547 135.288  0.00  0.00    +0.000 OA
ATOM     35  O   UNL     1     108.585 127.901 136.649  0.00  0.00    +0.000 OA
ATOM     36  O   UNL     1     107.955 129.321 136.091  0.00  0.00    +0.000 OA
ATOM     37  O   UNL     1     108.799 130.225 134.999  0.00  0.00    +0.000 OA
ATOM     38  C   UNL     1     109.743 128.095 135.834  0.00  0.00    +0.000 C 
ATOM     39  C   UNL     1     109.007 128.353 136.102  0.00  0.00    +0.000 C 
ATOM     40  C   UNL     1     108.692 129.063 135.824  0.00  0.00    +0.000 C 
ATOM     41  C   UNL     1     109.114 129.514 135.277  0.00  0.00    +0.000 C 
ATOM     42  C   UNL     1     109.850 129.256 135.010  0.00  0.00    +0.000 C 
ENDBRANCH  33  38
ENDBRANCH  32  33
ENDBRANCH  27  32
ENDBRANCH   1  31
TORSDOF 6
ENDMDL
MODEL 10
REMARK VINA RESULT:     -10.0      1.613      4.473
REMARK  Name = 13887800
REMARK  6 active torsions:
REMARK  status: ('A' for Active; 'I' for Inactive)
REMARK    1  A    between atoms: O_2  and  C_22
REMARK    2  A    between atoms: O_2  and  C_23
REMARK    3  A    between atoms: O_6  and  C_21
REMARK    4  A    between atoms: O_6  and  C_28
REMARK    5  A    between atoms: C_17  and  C_22
REMARK    6  A    between atoms: C_29  and  C_33
REMARK                            x       y       z     vdW  Elec       q    Type
REMARK                         _______ _______ _______ _____ _____    ______ ____
ROOT
ATOM      1  O   UNL     1     111.581 126.943 138.769  0.00  0.00    +0.000 OA
ENDROOT
BRANCH   1   6
ATOM      2  O   UNL     1     113.615 126.157 138.874  0.00  0.00    +0.000 OA
ATOM      3  O   UNL     1     111.688 126.161 137.320  0.00  0.00    +0.000 OA
ATOM      4  O   UNL     1     112.422 125.370 136.362  0.00  0.00    +0.000 OA
ATOM      5  O   UNL     1     115.158 124.561 136.988  0.00  0.00    +0.000 OA
ATOM      6  C   UNL     1     112.276 126.550 138.562  0.00  0.00    +0.000 A 
ATOM      7  C   UNL     1     112.919 126.549 139.080  0.00  0.00    +0.000 A 
ATOM      8  C   UNL     1     112.331 126.159 137.838  0.00  0.00    +0.000 A 
ATOM      9  C   UNL     1     113.026 125.767 137.631  0.00  0.00    +0.000 A 
ATOM     10  C   UNL     1     113.668 125.766 138.149  0.00  0.00    +0.000 A 
ATOM     11  C   UNL     1     113.070 125.364 136.874  0.00  0.00    +0.000 A 
ATOM     12  C   UNL     1     114.398 125.361 137.945  0.00  0.00    +0.000 A 
ATOM     13  C   UNL     1     113.791 124.954 136.652  0.00  0.00    +0.000 A 
ATOM     14  C   UNL     1     114.461 124.952 137.192  0.00  0.00    +0.000 A 
BRANCH   7  17
ATOM     15  O   UNL     1     113.634 128.739 140.772  0.00  0.00    +0.000 OA
ATOM     16  O   UNL     1     112.701 128.112 141.979  0.00  0.00    +0.000 OA
ATOM     17  C   UNL     1     112.865 126.940 139.805  0.00  0.00    +0.000 A 
ATOM     18  C   UNL     1     113.277 127.645 139.926  0.00  0.00    +0.000 A 
ATOM     19  C   UNL     1     112.398 126.626 140.409  0.00  0.00    +0.000 A 
ATOM     20  C   UNL     1     113.222 128.035 140.651  0.00  0.00    +0.000 A 
ATOM     21  C   UNL     1     112.344 127.017 141.133  0.00  0.00    +0.000 A 
ATOM     22  C   UNL     1     112.756 127.721 141.254  0.00  0.00    +0.000 A 
ENDBRANCH   7  17
ENDBRANCH   1   6
BRANCH   1  31
ATOM     23  O   UNL     1     111.834 128.085 137.948  0.00  0.00    +0.000 OA
ATOM     24  O   UNL     1     110.464 129.420 136.896  0.00  0.00    +0.000 OA
ATOM     25  O   UNL     1     109.400 128.375 137.602  0.00  0.00    +0.000 OA
ATOM     26  O   UNL     1     109.958 127.136 138.538  0.00  0.00    +0.000 OA
ATOM     27  C   UNL     1     111.555 128.704 137.480  0.00  0.00    +0.000 C 
ATOM     28  C   UNL     1     110.744 128.800 137.365  0.00  0.00    +0.000 C 
ATOM     29  C   UNL     1     110.211 128.278 137.717  0.00  0.00    +0.000 C 
ATOM     30  C   UNL     1     110.491 127.658 138.186  0.00  0.00    +0.000 C 
ATOM     31  C   UNL     1     111.302 127.562 138.301  0.00  0.00    +0.000 C 
BRANCH  27  32
ATOM     32  C   UNL     1     112.087 129.227 137.127  0.00  0.00    +0.000 C 
BRANCH  32  33
ATOM     33  O   UNL     1     112.715 128.937 136.680  0.00  0.00    +0.000 OA
BRANCH  33  38
ATOM     34  O   UNL     1     113.415 130.176 136.814  0.00  0.00    +0.000 OA
ATOM     35  O   UNL     1     113.763 128.475 135.491  0.00  0.00    +0.000 OA
ATOM     36  O   UNL     1     114.985 129.483 135.031  0.00  0.00    +0.000 OA
ATOM     37  O   UNL     1     115.161 130.953 135.761  0.00  0.00    +0.000 OA
ATOM     38  C   UNL     1     113.327 129.442 136.450  0.00  0.00    +0.000 C 
ATOM     39  C   UNL     1     113.850 129.211 135.856  0.00  0.00    +0.000 C 
ATOM     40  C   UNL     1     114.462 129.714 135.626  0.00  0.00    +0.000 C 
ATOM     41  C   UNL     1     114.549 130.449 135.991  0.00  0.00    +0.000 C 
ATOM     42  C   UNL     1     114.025 130.680 136.585  0.00  0.00    +0.000 C 
ENDBRANCH  33  38
ENDBRANCH  32  33
ENDBRANCH  27  32
ENDBRANCH   1  31
TORSDOF 6
ENDMDL
