MODEL 1
REMARK VINA RESULT:      -9.7      0.000      0.000
REMARK  Name = 14887606
REMARK  5 active torsions:
REMARK  status: ('A' for Active; 'I' for Inactive)
REMARK    1  A    between atoms: O_2  and  C_17
REMARK    2  A    between atoms: O_2  and  C_20
REMARK    3  A    between atoms: O_12  and  C_34
REMARK    4  A    between atoms: C_18  and  C_19
REMARK    5  A    between atoms: C_27  and  C_29
REMARK                            x       y       z     vdW  Elec       q    Type
REMARK                         _______ _______ _______ _____ _____    ______ ____
ROOT
ATOM      1  O   UNL     1     112.752 126.513 136.462  0.00  0.00    +0.000 OA
ATOM      2  O   UNL     1     111.260 124.048 136.457  0.00  0.00    +0.000 OA
ATOM      3  O   UNL     1     114.042 124.005 137.115  0.00  0.00    +0.000 OA
ATOM      4  O   UNL     1     114.823 125.219 137.128  0.00  0.00    +0.000 OA
ATOM      5  C   UNL     1     112.011 125.263 136.463  0.00  0.00    +0.000 A 
ATOM      6  C   UNL     1     112.726 125.662 136.575  0.00  0.00    +0.000 A 
ATOM      7  C   UNL     1     111.975 124.446 136.569  0.00  0.00    +0.000 A 
ATOM      8  C   UNL     1     113.402 125.243 136.792  0.00  0.00    +0.000 A 
ATOM      9  C   UNL     1     113.365 124.425 136.898  0.00  0.00    +0.000 A 
ATOM     10  C   UNL     1     112.651 124.027 136.786  0.00  0.00    +0.000 A 
ATOM     11  C   UNL     1     114.152 125.646 136.911  0.00  0.00    +0.000 A 
ATOM     12  C   UNL     1     113.492 126.934 136.577  0.00  0.00    +0.000 A 
ATOM     13  C   UNL     1     114.197 126.497 136.803  0.00  0.00    +0.000 A 
ENDROOT
BRANCH  12  15
ATOM     14  O   UNL     1     113.968 129.192 134.891  0.00  0.00    +0.000 OA
ATOM     15  C   UNL     1     113.527 127.751 136.471  0.00  0.00    +0.000 A 
ATOM     16  C   UNL     1     113.730 128.063 135.735  0.00  0.00    +0.000 A 
ATOM     17  C   UNL     1     113.358 128.257 137.100  0.00  0.00    +0.000 A 
ATOM     18  C   UNL     1     113.765 128.880 135.627  0.00  0.00    +0.000 A 
ATOM     19  C   UNL     1     113.392 129.074 136.994  0.00  0.00    +0.000 A 
ATOM     20  C   UNL     1     113.596 129.386 136.258  0.00  0.00    +0.000 A 
BRANCH  20  21
ATOM     21  O   UNL     1     113.630 130.203 136.151  0.00  0.00    +0.000 OA
ATOM     22  C   UNL     1     113.507 130.708 136.792  0.00  0.00    +0.000 C 
ENDBRANCH  20  21
ENDBRANCH  12  15
BRANCH   5  23
ATOM     23  O   UNL     1     111.335 125.682 136.247  0.00  0.00    +0.000 OA
BRANCH  23  31
ATOM     24  O   UNL     1     110.967 125.811 137.621  0.00  0.00    +0.000 OA
ATOM     25  O   UNL     1     108.798 126.797 136.947  0.00  0.00    +0.000 OA
ATOM     26  O   UNL     1     109.890 126.339 135.797  0.00  0.00    +0.000 OA
ATOM     27  O   UNL     1     109.153 126.596 138.545  0.00  0.00    +0.000 OA
ATOM     28  C   UNL     1     109.521 126.468 137.172  0.00  0.00    +0.000 C 
ATOM     29  C   UNL     1     110.067 126.239 136.596  0.00  0.00    +0.000 C 
ATOM     30  C   UNL     1     109.698 126.368 137.971  0.00  0.00    +0.000 C 
ATOM     31  C   UNL     1     110.789 125.911 136.821  0.00  0.00    +0.000 C 
ATOM     32  C   UNL     1     110.421 126.039 138.195  0.00  0.00    +0.000 C 
BRANCH  32  35
ATOM     33  O   UNL     1     111.027 126.518 139.397  0.00  0.00    +0.000 OA
ATOM     34  O   UNL     1     110.347 125.262 139.391  0.00  0.00    +0.000 OA
ATOM     35  C   UNL     1     110.598 125.939 138.995  0.00  0.00    +0.000 C 
ENDBRANCH  32  35
ENDBRANCH  23  31
ENDBRANCH   5  23
TORSDOF 5
ENDMDL
MODEL 2
REMARK VINA RESULT:      -9.3      1.855      5.017
REMARK  Name = 14887606
REMARK  5 active torsions:
REMARK  status: ('A' for Active; 'I' for Inactive)
REMARK    1  A    between atoms: O_2  and  C_17
REMARK    2  A    between atoms: O_2  and  C_20
REMARK    3  A    between atoms: O_12  and  C_34
REMARK    4  A    between atoms: C_18  and  C_19
REMARK    5  A    between atoms: C_27  and  C_29
REMARK                            x       y       z     vdW  Elec       q    Type
REMARK                         _______ _______ _______ _____ _____    ______ ____
ROOT
ATOM      1  O   UNL     1     110.630 127.286 136.011  0.00  0.00    +0.000 OA
ATOM      2  O   UNL     1     110.552 129.951 134.920  0.00  0.00    +0.000 OA
ATOM      3  O   UNL     1     108.113 128.681 135.701  0.00  0.00    +0.000 OA
ATOM      4  O   UNL     1     108.110 127.347 136.252  0.00  0.00    +0.000 OA
ATOM      5  C   UNL     1     110.577 128.630 135.462  0.00  0.00    +0.000 A 
ATOM      6  C   UNL     1     110.178 127.977 135.774  0.00  0.00    +0.000 A 
ATOM      7  C   UNL     1     110.153 129.299 135.231  0.00  0.00    +0.000 A 
ATOM      8  C   UNL     1     109.357 127.994 135.853  0.00  0.00    +0.000 A 
ATOM      9  C   UNL     1     108.935 128.664 135.622  0.00  0.00    +0.000 A 
ATOM     10  C   UNL     1     109.332 129.316 135.311  0.00  0.00    +0.000 A 
ATOM     11  C   UNL     1     108.931 127.322 136.176  0.00  0.00    +0.000 A 
ATOM     12  C   UNL     1     110.221 126.603 136.336  0.00  0.00    +0.000 A 
ATOM     13  C   UNL     1     109.366 126.621 136.419  0.00  0.00    +0.000 A 
ENDROOT
BRANCH  12  15
ATOM     14  O   UNL     1     111.410 125.015 138.394  0.00  0.00    +0.000 OA
ATOM     15  C   UNL     1     110.646 125.935 136.567  0.00  0.00    +0.000 A 
ATOM     16  C   UNL     1     110.816 125.809 137.364  0.00  0.00    +0.000 A 
ATOM     17  C   UNL     1     110.903 125.393 136.001  0.00  0.00    +0.000 A 
ATOM     18  C   UNL     1     111.241 125.141 137.596  0.00  0.00    +0.000 A 
ATOM     19  C   UNL     1     111.328 124.725 136.232  0.00  0.00    +0.000 A 
ATOM     20  C   UNL     1     111.497 124.599 137.029  0.00  0.00    +0.000 A 
BRANCH  20  21
ATOM     21  O   UNL     1     111.922 123.931 137.260  0.00  0.00    +0.000 OA
ATOM     22  C   UNL     1     112.263 123.442 136.690  0.00  0.00    +0.000 C 
ENDBRANCH  20  21
ENDBRANCH  12  15
BRANCH   5  23
ATOM     23  O   UNL     1     111.397 128.612 135.383  0.00  0.00    +0.000 OA
BRANCH  23  31
ATOM     24  O   UNL     1     111.546 129.231 136.662  0.00  0.00    +0.000 OA
ATOM     25  O   UNL     1     113.961 129.555 136.224  0.00  0.00    +0.000 OA
ATOM     26  O   UNL     1     113.006 128.828 135.091  0.00  0.00    +0.000 OA
ATOM     27  O   UNL     1     113.305 130.065 137.649  0.00  0.00    +0.000 OA
ATOM     28  C   UNL     1     113.155 129.447 136.370  0.00  0.00    +0.000 C 
ATOM     29  C   UNL     1     112.679 129.083 135.803  0.00  0.00    +0.000 C 
ATOM     30  C   UNL     1     112.828 129.702 137.082  0.00  0.00    +0.000 C 
ATOM     31  C   UNL     1     111.874 128.976 135.949  0.00  0.00    +0.000 C 
ATOM     32  C   UNL     1     112.023 129.594 137.229  0.00  0.00    +0.000 C 
BRANCH  32  35
ATOM     33  O   UNL     1     111.601 129.317 138.565  0.00  0.00    +0.000 OA
ATOM     34  O   UNL     1     111.461 130.634 138.030  0.00  0.00    +0.000 OA
ATOM     35  C   UNL     1     111.695 129.849 137.941  0.00  0.00    +0.000 C 
ENDBRANCH  32  35
ENDBRANCH  23  31
ENDBRANCH   5  23
TORSDOF 5
ENDMDL
MODEL 3
REMARK VINA RESULT:      -9.3      1.824      2.830
REMARK  Name = 14887606
REMARK  5 active torsions:
REMARK  status: ('A' for Active; 'I' for Inactive)
REMARK    1  A    between atoms: O_2  and  C_17
REMARK    2  A    between atoms: O_2  and  C_20
REMARK    3  A    between atoms: O_12  and  C_34
REMARK    4  A    between atoms: C_18  and  C_19
REMARK    5  A    between atoms: C_27  and  C_29
REMARK                            x       y       z     vdW  Elec       q    Type
REMARK                         _______ _______ _______ _____ _____    ______ ____
ROOT
ATOM      1  O   UNL     1     112.640 125.955 138.374  0.00  0.00    +0.000 OA
ATOM      2  O   UNL     1     111.267 124.182 136.565  0.00  0.00    +0.000 OA
ATOM      3  O   UNL     1     114.125 124.206 136.609  0.00  0.00    +0.000 OA
ATOM      4  O   UNL     1     114.850 125.080 137.501  0.00  0.00    +0.000 OA
ATOM      5  C   UNL     1     111.960 125.057 137.458  0.00  0.00    +0.000 A 
ATOM      6  C   UNL     1     112.668 125.352 137.763  0.00  0.00    +0.000 A 
ATOM      7  C   UNL     1     111.975 124.478 136.870  0.00  0.00    +0.000 A 
ATOM      8  C   UNL     1     113.390 125.069 137.480  0.00  0.00    +0.000 A 
ATOM      9  C   UNL     1     113.403 124.490 136.892  0.00  0.00    +0.000 A 
ATOM     10  C   UNL     1     112.696 124.195 136.587  0.00  0.00    +0.000 A 
ATOM     11  C   UNL     1     114.133 125.369 137.789  0.00  0.00    +0.000 A 
ATOM     12  C   UNL     1     113.374 126.267 138.696  0.00  0.00    +0.000 A 
ATOM     13  C   UNL     1     114.125 125.972 138.402  0.00  0.00    +0.000 A 
ENDROOT
BRANCH  12  15
ATOM     14  O   UNL     1     113.285 126.984 141.462  0.00  0.00    +0.000 OA
ATOM     15  C   UNL     1     113.357 126.846 139.284  0.00  0.00    +0.000 A 
ATOM     16  C   UNL     1     113.330 126.626 140.079  0.00  0.00    +0.000 A 
ATOM     17  C   UNL     1     113.367 127.644 139.078  0.00  0.00    +0.000 A 
ATOM     18  C   UNL     1     113.313 127.203 140.667  0.00  0.00    +0.000 A 
ATOM     19  C   UNL     1     113.351 128.223 139.665  0.00  0.00    +0.000 A 
ATOM     20  C   UNL     1     113.323 128.003 140.460  0.00  0.00    +0.000 A 
BRANCH  20  21
ATOM     21  O   UNL     1     113.306 128.581 141.047  0.00  0.00    +0.000 OA
ATOM     22  C   UNL     1     113.391 129.376 140.846  0.00  0.00    +0.000 C 
ENDBRANCH  20  21
ENDBRANCH  12  15
BRANCH   5  23
ATOM     23  O   UNL     1     111.240 125.340 137.740  0.00  0.00    +0.000 OA
BRANCH  23  31
ATOM     24  O   UNL     1     111.169 126.254 136.644  0.00  0.00    +0.000 OA
ATOM     25  O   UNL     1     108.976 127.063 137.461  0.00  0.00    +0.000 OA
ATOM     26  O   UNL     1     109.778 125.879 138.284  0.00  0.00    +0.000 OA
ATOM     27  O   UNL     1     109.637 127.706 136.093  0.00  0.00    +0.000 OA
ATOM     28  C   UNL     1     109.707 126.793 137.188  0.00  0.00    +0.000 C 
ATOM     29  C   UNL     1     110.108 126.201 137.601  0.00  0.00    +0.000 C 
ATOM     30  C   UNL     1     110.037 127.115 136.505  0.00  0.00    +0.000 C 
ATOM     31  C   UNL     1     110.839 125.931 137.329  0.00  0.00    +0.000 C 
ATOM     32  C   UNL     1     110.768 126.845 136.233  0.00  0.00    +0.000 C 
BRANCH  32  35
ATOM     33  O   UNL     1     111.648 127.780 135.606  0.00  0.00    +0.000 OA
ATOM     34  O   UNL     1     110.879 126.878 134.809  0.00  0.00    +0.000 OA
ATOM     35  C   UNL     1     111.098 127.167 135.549  0.00  0.00    +0.000 C 
ENDBRANCH  32  35
ENDBRANCH  23  31
ENDBRANCH   5  23
TORSDOF 5
ENDMDL
MODEL 4
REMARK VINA RESULT:      -9.2      9.841     12.934
REMARK  Name = 14887606
REMARK  5 active torsions:
REMARK  status: ('A' for Active; 'I' for Inactive)
REMARK    1  A    between atoms: O_2  and  C_17
REMARK    2  A    between atoms: O_2  and  C_20
REMARK    3  A    between atoms: O_12  and  C_34
REMARK    4  A    between atoms: C_18  and  C_19
REMARK    5  A    between atoms: C_27  and  C_29
REMARK                            x       y       z     vdW  Elec       q    Type
REMARK                         _______ _______ _______ _____ _____    ______ ____
ROOT
ATOM      1  O   UNL     1     104.779 124.522 147.029  0.00  0.00    +0.000 OA
ATOM      2  O   UNL     1     107.562 125.174 146.666  0.00  0.00    +0.000 OA
ATOM      3  O   UNL     1     106.395 125.393 149.267  0.00  0.00    +0.000 OA
ATOM      4  O   UNL     1     105.005 125.075 149.489  0.00  0.00    +0.000 OA
ATOM      5  C   UNL     1     106.183 124.854 146.860  0.00  0.00    +0.000 A 
ATOM      6  C   UNL     1     105.528 124.783 147.358  0.00  0.00    +0.000 A 
ATOM      7  C   UNL     1     106.907 125.104 147.165  0.00  0.00    +0.000 A 
ATOM      8  C   UNL     1     105.599 124.963 148.160  0.00  0.00    +0.000 A 
ATOM      9  C   UNL     1     106.324 125.213 148.464  0.00  0.00    +0.000 A 
ATOM     10  C   UNL     1     106.978 125.283 147.967  0.00  0.00    +0.000 A 
ATOM     11  C   UNL     1     104.926 124.894 148.689  0.00  0.00    +0.000 A 
ATOM     12  C   UNL     1     104.094 124.447 147.542  0.00  0.00    +0.000 A 
ATOM     13  C   UNL     1     104.167 124.634 148.378  0.00  0.00    +0.000 A 
ENDROOT
BRANCH  12  15
ATOM     14  O   UNL     1     101.331 124.942 147.001  0.00  0.00    +0.000 OA
ATOM     15  C   UNL     1     103.370 124.196 147.235  0.00  0.00    +0.000 A 
ATOM     16  C   UNL     1     102.713 124.694 147.271  0.00  0.00    +0.000 A 
ATOM     17  C   UNL     1     103.303 123.449 146.893  0.00  0.00    +0.000 A 
ATOM     18  C   UNL     1     101.989 124.445 146.965  0.00  0.00    +0.000 A 
ATOM     19  C   UNL     1     102.579 123.199 146.586  0.00  0.00    +0.000 A 
ATOM     20  C   UNL     1     101.922 123.697 146.621  0.00  0.00    +0.000 A 
BRANCH  20  21
ATOM     21  O   UNL     1     101.199 123.447 146.315  0.00  0.00    +0.000 OA
ATOM     22  C   UNL     1     101.152 122.739 145.893  0.00  0.00    +0.000 C 
ENDBRANCH  20  21
ENDBRANCH  12  15
BRANCH   5  23
ATOM     23  O   UNL     1     106.112 124.674 146.059  0.00  0.00    +0.000 OA
BRANCH  23  31
ATOM     24  O   UNL     1     105.890 126.056 145.769  0.00  0.00    +0.000 OA
ATOM     25  O   UNL     1     105.704 125.520 143.359  0.00  0.00    +0.000 OA
ATOM     26  O   UNL     1     105.988 124.317 144.453  0.00  0.00    +0.000 OA
ATOM     27  O   UNL     1     105.544 127.079 143.873  0.00  0.00    +0.000 OA
ATOM     28  C   UNL     1     105.766 125.699 144.163  0.00  0.00    +0.000 C 
ATOM     29  C   UNL     1     105.908 125.097 144.709  0.00  0.00    +0.000 C 
ATOM     30  C   UNL     1     105.686 126.478 144.419  0.00  0.00    +0.000 C 
ATOM     31  C   UNL     1     105.970 125.275 145.512  0.00  0.00    +0.000 C 
ATOM     32  C   UNL     1     105.748 126.657 145.222  0.00  0.00    +0.000 C 
BRANCH  32  35
ATOM     33  O   UNL     1     104.939 127.705 145.758  0.00  0.00    +0.000 OA
ATOM     34  O   UNL     1     106.315 127.946 145.457  0.00  0.00    +0.000 OA
ATOM     35  C   UNL     1     105.668 127.436 145.479  0.00  0.00    +0.000 C 
ENDBRANCH  32  35
ENDBRANCH  23  31
ENDBRANCH   5  23
TORSDOF 5
ENDMDL
MODEL 5
REMARK VINA RESULT:      -9.2     10.312     13.185
REMARK  Name = 14887606
REMARK  5 active torsions:
REMARK  status: ('A' for Active; 'I' for Inactive)
REMARK    1  A    between atoms: O_2  and  C_17
REMARK    2  A    between atoms: O_2  and  C_20
REMARK    3  A    between atoms: O_12  and  C_34
REMARK    4  A    between atoms: C_18  and  C_19
REMARK    5  A    between atoms: C_27  and  C_29
REMARK                            x       y       z     vdW  Elec       q    Type
REMARK                         _______ _______ _______ _____ _____    ______ ____
ROOT
ATOM      1  O   UNL     1     105.359 125.649 148.143  0.00  0.00    +0.000 OA
ATOM      2  O   UNL     1     107.822 126.373 146.835  0.00  0.00    +0.000 OA
ATOM      3  O   UNL     1     107.847 124.357 148.863  0.00  0.00    +0.000 OA
ATOM      4  O   UNL     1     106.634 123.967 149.541  0.00  0.00    +0.000 OA
ATOM      5  C   UNL     1     106.608 126.005 147.492  0.00  0.00    +0.000 A 
ATOM      6  C   UNL     1     106.206 125.546 148.048  0.00  0.00    +0.000 A 
ATOM      7  C   UNL     1     107.421 125.914 147.392  0.00  0.00    +0.000 A 
ATOM      8  C   UNL     1     106.619 124.997 148.505  0.00  0.00    +0.000 A 
ATOM      9  C   UNL     1     107.434 124.907 148.405  0.00  0.00    +0.000 A 
ATOM     10  C   UNL     1     107.834 125.365 147.849  0.00  0.00    +0.000 A 
ATOM     11  C   UNL     1     106.214 124.514 149.088  0.00  0.00    +0.000 A 
ATOM     12  C   UNL     1     104.935 125.175 148.721  0.00  0.00    +0.000 A 
ATOM     13  C   UNL     1     105.365 124.603 149.197  0.00  0.00    +0.000 A 
ENDROOT
BRANCH  12  15
ATOM     14  O   UNL     1     102.711 126.733 149.611  0.00  0.00    +0.000 OA
ATOM     15  C   UNL     1     104.121 125.267 148.818  0.00  0.00    +0.000 A 
ATOM     16  C   UNL     1     103.823 125.953 149.166  0.00  0.00    +0.000 A 
ATOM     17  C   UNL     1     103.606 124.674 148.569  0.00  0.00    +0.000 A 
ATOM     18  C   UNL     1     103.010 126.047 149.264  0.00  0.00    +0.000 A 
ATOM     19  C   UNL     1     102.792 124.766 148.667  0.00  0.00    +0.000 A 
ATOM     20  C   UNL     1     102.493 125.453 149.014  0.00  0.00    +0.000 A 
BRANCH  20  21
ATOM     21  O   UNL     1     101.680 125.545 149.112  0.00  0.00    +0.000 OA
ATOM     22  C   UNL     1     101.165 124.951 148.863  0.00  0.00    +0.000 C 
ENDBRANCH  20  21
ENDBRANCH  12  15
BRANCH   5  23
ATOM     23  O   UNL     1     106.195 126.553 147.035  0.00  0.00    +0.000 OA
BRANCH  23  31
ATOM     24  O   UNL     1     105.970 125.586 146.008  0.00  0.00    +0.000 OA
ATOM     25  O   UNL     1     105.433 127.404 144.415  0.00  0.00    +0.000 OA
ATOM     26  O   UNL     1     105.837 127.765 145.974  0.00  0.00    +0.000 OA
ATOM     27  O   UNL     1     105.386 125.832 143.919  0.00  0.00    +0.000 OA
ATOM     28  C   UNL     1     105.612 126.798 144.946  0.00  0.00    +0.000 C 
ATOM     29  C   UNL     1     105.814 126.979 145.725  0.00  0.00    +0.000 C 
ATOM     30  C   UNL     1     105.588 126.012 144.698  0.00  0.00    +0.000 C 
ATOM     31  C   UNL     1     105.993 126.373 146.256  0.00  0.00    +0.000 C 
ATOM     32  C   UNL     1     105.767 125.406 145.228  0.00  0.00    +0.000 C 
BRANCH  32  35
ATOM     33  O   UNL     1     106.408 124.280 144.625  0.00  0.00    +0.000 OA
ATOM     34  O   UNL     1     105.060 124.174 145.087  0.00  0.00    +0.000 OA
ATOM     35  C   UNL     1     105.744 124.620 144.980  0.00  0.00    +0.000 C 
ENDBRANCH  32  35
ENDBRANCH  23  31
ENDBRANCH   5  23
TORSDOF 5
ENDMDL
MODEL 6
REMARK VINA RESULT:      -9.2      1.289      2.671
REMARK  Name = 14887606
REMARK  5 active torsions:
REMARK  status: ('A' for Active; 'I' for Inactive)
REMARK    1  A    between atoms: O_2  and  C_17
REMARK    2  A    between atoms: O_2  and  C_20
REMARK    3  A    between atoms: O_12  and  C_34
REMARK    4  A    between atoms: C_18  and  C_19
REMARK    5  A    between atoms: C_27  and  C_29
REMARK                            x       y       z     vdW  Elec       q    Type
REMARK                         _______ _______ _______ _____ _____    ______ ____
ROOT
ATOM      1  O   UNL     1     112.234 127.145 135.972  0.00  0.00    +0.000 OA
ATOM      2  O   UNL     1     111.769 124.354 136.512  0.00  0.00    +0.000 OA
ATOM      3  O   UNL     1     109.901 125.805 134.907  0.00  0.00    +0.000 OA
ATOM      4  O   UNL     1     110.098 127.204 134.614  0.00  0.00    +0.000 OA
ATOM      5  C   UNL     1     111.988 125.739 136.237  0.00  0.00    +0.000 A 
ATOM      6  C   UNL     1     111.750 126.443 135.877  0.00  0.00    +0.000 A 
ATOM      7  C   UNL     1     111.530 125.058 136.152  0.00  0.00    +0.000 A 
ATOM      8  C   UNL     1     111.054 126.465 135.434  0.00  0.00    +0.000 A 
ATOM      9  C   UNL     1     110.597 125.783 135.350  0.00  0.00    +0.000 A 
ATOM     10  C   UNL     1     110.835 125.080 135.709  0.00  0.00    +0.000 A 
ATOM     11  C   UNL     1     110.795 127.191 135.055  0.00  0.00    +0.000 A 
ATOM     12  C   UNL     1     111.992 127.881 135.601  0.00  0.00    +0.000 A 
ATOM     13  C   UNL     1     111.267 127.904 135.139  0.00  0.00    +0.000 A 
ENDROOT
BRANCH  12  15
ATOM     14  O   UNL     1     114.168 129.522 134.740  0.00  0.00    +0.000 OA
ATOM     15  C   UNL     1     112.451 128.561 135.686  0.00  0.00    +0.000 A 
ATOM     16  C   UNL     1     113.080 128.702 135.171  0.00  0.00    +0.000 A 
ATOM     17  C   UNL     1     112.282 129.101 136.287  0.00  0.00    +0.000 A 
ATOM     18  C   UNL     1     113.539 129.381 135.256  0.00  0.00    +0.000 A 
ATOM     19  C   UNL     1     112.741 129.781 136.372  0.00  0.00    +0.000 A 
ATOM     20  C   UNL     1     113.370 129.922 135.857  0.00  0.00    +0.000 A 
BRANCH  20  21
ATOM     21  O   UNL     1     113.829 130.601 135.942  0.00  0.00    +0.000 OA
ATOM     22  C   UNL     1     113.806 131.028 136.648  0.00  0.00    +0.000 C 
ENDBRANCH  20  21
ENDBRANCH  12  15
BRANCH   5  23
ATOM     23  O   UNL     1     112.683 125.717 136.679  0.00  0.00    +0.000 OA
BRANCH  23  31
ATOM     24  O   UNL     1     111.932 125.934 137.876  0.00  0.00    +0.000 OA
ATOM     25  O   UNL     1     114.039 126.116 139.164  0.00  0.00    +0.000 OA
ATOM     26  O   UNL     1     114.087 125.838 137.538  0.00  0.00    +0.000 OA
ATOM     27  O   UNL     1     112.586 126.272 139.930  0.00  0.00    +0.000 OA
ATOM     28  C   UNL     1     113.336 126.055 138.734  0.00  0.00    +0.000 C 
ATOM     29  C   UNL     1     113.361 125.916 137.921  0.00  0.00    +0.000 C 
ATOM     30  C   UNL     1     112.611 126.133 139.118  0.00  0.00    +0.000 C 
ATOM     31  C   UNL     1     112.659 125.855 137.492  0.00  0.00    +0.000 C 
ATOM     32  C   UNL     1     111.909 126.073 138.689  0.00  0.00    +0.000 C 
BRANCH  32  35
ATOM     33  O   UNL     1     110.809 126.887 139.101  0.00  0.00    +0.000 OA
ATOM     34  O   UNL     1     110.829 125.495 139.424  0.00  0.00    +0.000 OA
ATOM     35  C   UNL     1     111.182 126.151 139.072  0.00  0.00    +0.000 C 
ENDBRANCH  32  35
ENDBRANCH  23  31
ENDBRANCH   5  23
TORSDOF 5
ENDMDL
MODEL 7
REMARK VINA RESULT:      -9.1      1.762      2.312
REMARK  Name = 14887606
REMARK  5 active torsions:
REMARK  status: ('A' for Active; 'I' for Inactive)
REMARK    1  A    between atoms: O_2  and  C_17
REMARK    2  A    between atoms: O_2  and  C_20
REMARK    3  A    between atoms: O_12  and  C_34
REMARK    4  A    between atoms: C_18  and  C_19
REMARK    5  A    between atoms: C_27  and  C_29
REMARK                            x       y       z     vdW  Elec       q    Type
REMARK                         _______ _______ _______ _____ _____    ______ ____
ROOT
ATOM      1  O   UNL     1     112.412 127.930 135.871  0.00  0.00    +0.000 OA
ATOM      2  O   UNL     1     110.022 126.347 135.582  0.00  0.00    +0.000 OA
ATOM      3  O   UNL     1     112.345 125.181 136.774  0.00  0.00    +0.000 OA
ATOM      4  O   UNL     1     113.561 125.941 136.936  0.00  0.00    +0.000 OA
ATOM      5  C   UNL     1     111.214 127.121 135.731  0.00  0.00    +0.000 A 
ATOM      6  C   UNL     1     111.999 127.185 135.980  0.00  0.00    +0.000 A 
ATOM      7  C   UNL     1     110.807 126.410 135.831  0.00  0.00    +0.000 A 
ATOM      8  C   UNL     1     112.376 126.538 136.327  0.00  0.00    +0.000 A 
ATOM      9  C   UNL     1     111.968 125.828 136.426  0.00  0.00    +0.000 A 
ATOM     10  C   UNL     1     111.184 125.764 136.178  0.00  0.00    +0.000 A 
ATOM     11  C   UNL     1     113.192 126.592 136.589  0.00  0.00    +0.000 A 
ATOM     12  C   UNL     1     113.229 128.003 136.127  0.00  0.00    +0.000 A 
ATOM     13  C   UNL     1     113.622 127.330 136.489  0.00  0.00    +0.000 A 
ENDROOT
BRANCH  12  15
ATOM     14  O   UNL     1     113.920 130.612 137.069  0.00  0.00    +0.000 OA
ATOM     15  C   UNL     1     113.634 128.715 136.027  0.00  0.00    +0.000 A 
ATOM     16  C   UNL     1     113.575 129.307 136.597  0.00  0.00    +0.000 A 
ATOM     17  C   UNL     1     114.099 128.835 135.356  0.00  0.00    +0.000 A 
ATOM     18  C   UNL     1     113.980 130.019 136.498  0.00  0.00    +0.000 A 
ATOM     19  C   UNL     1     114.504 129.546 135.255  0.00  0.00    +0.000 A 
ATOM     20  C   UNL     1     114.444 130.139 135.826  0.00  0.00    +0.000 A 
BRANCH  20  21
ATOM     21  O   UNL     1     114.849 130.850 135.726  0.00  0.00    +0.000 OA
ATOM     22  C   UNL     1     115.335 130.958 135.069  0.00  0.00    +0.000 C 
ENDBRANCH  20  21
ENDBRANCH  12  15
BRANCH   5  23
ATOM     23  O   UNL     1     110.838 127.767 135.384  0.00  0.00    +0.000 OA
BRANCH  23  31
ATOM     24  O   UNL     1     110.333 128.205 136.647  0.00  0.00    +0.000 OA
ATOM     25  O   UNL     1     108.642 129.594 135.488  0.00  0.00    +0.000 OA
ATOM     26  O   UNL     1     109.711 128.692 134.612  0.00  0.00    +0.000 OA
ATOM     27  O   UNL     1     108.701 129.569 137.137  0.00  0.00    +0.000 OA
ATOM     28  C   UNL     1     109.206 129.131 135.875  0.00  0.00    +0.000 C 
ATOM     29  C   UNL     1     109.740 128.680 135.436  0.00  0.00    +0.000 C 
ATOM     30  C   UNL     1     109.235 129.119 136.699  0.00  0.00    +0.000 C 
ATOM     31  C   UNL     1     110.303 128.218 135.822  0.00  0.00    +0.000 C 
ATOM     32  C   UNL     1     109.798 128.656 137.085  0.00  0.00    +0.000 C 
BRANCH  32  35
ATOM     33  O   UNL     1     110.352 129.141 138.310  0.00  0.00    +0.000 OA
ATOM     34  O   UNL     1     109.336 128.136 138.332  0.00  0.00    +0.000 OA
ATOM     35  C   UNL     1     109.828 128.644 137.909  0.00  0.00    +0.000 C 
ENDBRANCH  32  35
ENDBRANCH  23  31
ENDBRANCH   5  23
TORSDOF 5
ENDMDL
MODEL 8
REMARK VINA RESULT:      -8.9      2.136      3.616
REMARK  Name = 14887606
REMARK  5 active torsions:
REMARK  status: ('A' for Active; 'I' for Inactive)
REMARK    1  A    between atoms: O_2  and  C_17
REMARK    2  A    between atoms: O_2  and  C_20
REMARK    3  A    between atoms: O_12  and  C_34
REMARK    4  A    between atoms: C_18  and  C_19
REMARK    5  A    between atoms: C_27  and  C_29
REMARK                            x       y       z     vdW  Elec       q    Type
REMARK                         _______ _______ _______ _____ _____    ______ ____
ROOT
ATOM      1  O   UNL     1     112.167 126.762 137.400  0.00  0.00    +0.000 OA
ATOM      2  O   UNL     1     111.205 127.465 134.777  0.00  0.00    +0.000 OA
ATOM      3  O   UNL     1     110.837 124.798 135.740  0.00  0.00    +0.000 OA
ATOM      4  O   UNL     1     111.305 124.407 137.049  0.00  0.00    +0.000 OA
ATOM      5  C   UNL     1     111.677 127.103 136.076  0.00  0.00    +0.000 A 
ATOM      6  C   UNL     1     111.774 126.538 136.670  0.00  0.00    +0.000 A 
ATOM      7  C   UNL     1     111.301 126.899 135.371  0.00  0.00    +0.000 A 
ATOM      8  C   UNL     1     111.494 125.770 136.558  0.00  0.00    +0.000 A 
ATOM      9  C   UNL     1     111.118 125.567 135.852  0.00  0.00    +0.000 A 
ATOM     10  C   UNL     1     111.021 126.131 135.259  0.00  0.00    +0.000 A 
ATOM     11  C   UNL     1     111.588 125.173 137.169  0.00  0.00    +0.000 A 
ATOM     12  C   UNL     1     112.270 126.178 138.023  0.00  0.00    +0.000 A 
ATOM     13  C   UNL     1     111.979 125.379 137.906  0.00  0.00    +0.000 A 
ENDROOT
BRANCH  12  15
ATOM     14  O   UNL     1     112.126 126.986 140.761  0.00  0.00    +0.000 OA
ATOM     15  C   UNL     1     112.647 126.384 138.727  0.00  0.00    +0.000 A 
ATOM     16  C   UNL     1     112.199 126.582 139.392  0.00  0.00    +0.000 A 
ATOM     17  C   UNL     1     113.470 126.393 138.769  0.00  0.00    +0.000 A 
ATOM     18  C   UNL     1     112.574 126.788 140.097  0.00  0.00    +0.000 A 
ATOM     19  C   UNL     1     113.846 126.599 139.473  0.00  0.00    +0.000 A 
ATOM     20  C   UNL     1     113.399 126.797 140.137  0.00  0.00    +0.000 A 
BRANCH  20  21
ATOM     21  O   UNL     1     113.774 127.003 140.841  0.00  0.00    +0.000 OA
ATOM     22  C   UNL     1     114.591 127.119 140.854  0.00  0.00    +0.000 C 
ENDBRANCH  20  21
ENDBRANCH  12  15
BRANCH   5  23
ATOM     23  O   UNL     1     111.957 127.870 136.188  0.00  0.00    +0.000 OA
BRANCH  23  31
ATOM     24  O   UNL     1     110.679 128.287 136.674  0.00  0.00    +0.000 OA
ATOM     25  O   UNL     1     111.379 130.654 136.484  0.00  0.00    +0.000 OA
ATOM     26  O   UNL     1     112.423 129.448 136.061  0.00  0.00    +0.000 OA
ATOM     27  O   UNL     1     109.869 130.280 137.034  0.00  0.00    +0.000 OA
ATOM     28  C   UNL     1     111.145 129.864 136.548  0.00  0.00    +0.000 C 
ATOM     29  C   UNL     1     111.668 129.262 136.336  0.00  0.00    +0.000 C 
ATOM     30  C   UNL     1     110.391 129.678 136.822  0.00  0.00    +0.000 C 
ATOM     31  C   UNL     1     111.435 128.473 136.399  0.00  0.00    +0.000 C 
ATOM     32  C   UNL     1     110.158 128.890 136.886  0.00  0.00    +0.000 C 
BRANCH  32  35
ATOM     33  O   UNL     1     109.286 128.531 137.960  0.00  0.00    +0.000 OA
ATOM     34  O   UNL     1     108.766 128.688 136.639  0.00  0.00    +0.000 OA
ATOM     35  C   UNL     1     109.403 128.703 137.161  0.00  0.00    +0.000 C 
ENDBRANCH  32  35
ENDBRANCH  23  31
ENDBRANCH   5  23
TORSDOF 5
ENDMDL
MODEL 9
REMARK VINA RESULT:      -8.9      2.377      4.540
REMARK  Name = 14887606
REMARK  5 active torsions:
REMARK  status: ('A' for Active; 'I' for Inactive)
REMARK    1  A    between atoms: O_2  and  C_17
REMARK    2  A    between atoms: O_2  and  C_20
REMARK    3  A    between atoms: O_12  and  C_34
REMARK    4  A    between atoms: C_18  and  C_19
REMARK    5  A    between atoms: C_27  and  C_29
REMARK                            x       y       z     vdW  Elec       q    Type
REMARK                         _______ _______ _______ _____ _____    ______ ____
ROOT
ATOM      1  O   UNL     1     110.729 128.180 136.069  0.00  0.00    +0.000 OA
ATOM      2  O   UNL     1     112.788 126.657 137.388  0.00  0.00    +0.000 OA
ATOM      3  O   UNL     1     111.264 125.442 135.297  0.00  0.00    +0.000 OA
ATOM      4  O   UNL     1     110.224 126.172 134.612  0.00  0.00    +0.000 OA
ATOM      5  C   UNL     1     111.764 127.402 136.726  0.00  0.00    +0.000 A 
ATOM      6  C   UNL     1     111.168 127.447 136.156  0.00  0.00    +0.000 A 
ATOM      7  C   UNL     1     112.192 126.703 136.818  0.00  0.00    +0.000 A 
ATOM      8  C   UNL     1     111.002 126.794 135.680  0.00  0.00    +0.000 A 
ATOM      9  C   UNL     1     111.431 126.096 135.774  0.00  0.00    +0.000 A 
ATOM     10  C   UNL     1     112.026 126.050 136.342  0.00  0.00    +0.000 A 
ATOM     11  C   UNL     1     110.384 126.829 135.084  0.00  0.00    +0.000 A 
ATOM     12  C   UNL     1     110.107 128.234 135.477  0.00  0.00    +0.000 A 
ATOM     13  C   UNL     1     109.934 127.555 134.982  0.00  0.00    +0.000 A 
ENDROOT
BRANCH  12  15
ATOM     14  O   UNL     1     107.871 129.876 136.166  0.00  0.00    +0.000 OA
ATOM     15  C   UNL     1     109.680 128.934 135.386  0.00  0.00    +0.000 A 
ATOM     16  C   UNL     1     108.990 129.056 135.821  0.00  0.00    +0.000 A 
ATOM     17  C   UNL     1     109.942 129.513 134.861  0.00  0.00    +0.000 A 
ATOM     18  C   UNL     1     108.562 129.755 135.731  0.00  0.00    +0.000 A 
ATOM     19  C   UNL     1     109.515 130.213 134.770  0.00  0.00    +0.000 A 
ATOM     20  C   UNL     1     108.825 130.334 135.205  0.00  0.00    +0.000 A 
BRANCH  20  21
ATOM     21  O   UNL     1     108.398 131.033 135.114  0.00  0.00    +0.000 OA
ATOM     22  C   UNL     1     108.701 131.644 134.650  0.00  0.00    +0.000 C 
ENDBRANCH  20  21
ENDBRANCH  12  15
BRANCH   5  23
ATOM     23  O   UNL     1     111.931 128.054 137.201  0.00  0.00    +0.000 OA
BRANCH  23  31
ATOM     24  O   UNL     1     112.947 128.468 136.287  0.00  0.00    +0.000 OA
ATOM     25  O   UNL     1     113.633 130.254 137.859  0.00  0.00    +0.000 OA
ATOM     26  O   UNL     1     112.388 129.244 138.249  0.00  0.00    +0.000 OA
ATOM     27  O   UNL     1     114.421 130.072 136.420  0.00  0.00    +0.000 OA
ATOM     28  C   UNL     1     113.405 129.658 137.334  0.00  0.00    +0.000 C 
ATOM     29  C   UNL     1     112.782 129.154 137.530  0.00  0.00    +0.000 C 
ATOM     30  C   UNL     1     113.798 129.568 136.616  0.00  0.00    +0.000 C 
ATOM     31  C   UNL     1     112.553 128.559 137.006  0.00  0.00    +0.000 C 
ATOM     32  C   UNL     1     113.570 128.973 136.092  0.00  0.00    +0.000 C 
BRANCH  32  35
ATOM     33  O   UNL     1     113.662 129.236 134.690  0.00  0.00    +0.000 OA
ATOM     34  O   UNL     1     114.657 128.439 135.335  0.00  0.00    +0.000 OA
ATOM     35  C   UNL     1     113.963 128.882 135.373  0.00  0.00    +0.000 C 
ENDBRANCH  32  35
ENDBRANCH  23  31
ENDBRANCH   5  23
TORSDOF 5
ENDMDL
MODEL 10
REMARK VINA RESULT:      -8.9     11.005     12.351
REMARK  Name = 14887606
REMARK  5 active torsions:
REMARK  status: ('A' for Active; 'I' for Inactive)
REMARK    1  A    between atoms: O_2  and  C_17
REMARK    2  A    between atoms: O_2  and  C_20
REMARK    3  A    between atoms: O_12  and  C_34
REMARK    4  A    between atoms: C_18  and  C_19
REMARK    5  A    between atoms: C_27  and  C_29
REMARK                            x       y       z     vdW  Elec       q    Type
REMARK                         _______ _______ _______ _____ _____    ______ ____
ROOT
ATOM      1  O   UNL     1     105.699 126.571 147.297  0.00  0.00    +0.000 OA
ATOM      2  O   UNL     1     105.321 124.233 148.936  0.00  0.00    +0.000 OA
ATOM      3  O   UNL     1     107.950 124.913 148.044  0.00  0.00    +0.000 OA
ATOM      4  O   UNL     1     108.181 126.076 147.221  0.00  0.00    +0.000 OA
ATOM      5  C   UNL     1     105.522 125.390 148.123  0.00  0.00    +0.000 A 
ATOM      6  C   UNL     1     106.028 125.889 147.702  0.00  0.00    +0.000 A 
ATOM      7  C   UNL     1     105.827 124.732 148.516  0.00  0.00    +0.000 A 
ATOM      8  C   UNL     1     106.837 125.730 147.676  0.00  0.00    +0.000 A 
ATOM      9  C   UNL     1     107.140 125.072 148.070  0.00  0.00    +0.000 A 
ATOM     10  C   UNL     1     106.636 124.573 148.490  0.00  0.00    +0.000 A 
ATOM     11  C   UNL     1     107.373 126.242 147.242  0.00  0.00    +0.000 A 
ATOM     12  C   UNL     1     106.220 127.095 146.857  0.00  0.00    +0.000 A 
ATOM     13  C   UNL     1     107.062 126.930 146.830  0.00  0.00    +0.000 A 
ENDROOT
BRANCH  12  15
ATOM     14  O   UNL     1     105.119 128.278 144.499  0.00  0.00    +0.000 OA
ATOM     15  C   UNL     1     105.913 127.753 146.464  0.00  0.00    +0.000 A 
ATOM     16  C   UNL     1     105.669 127.687 145.679  0.00  0.00    +0.000 A 
ATOM     17  C   UNL     1     105.850 128.476 146.856  0.00  0.00    +0.000 A 
ATOM     18  C   UNL     1     105.363 128.343 145.285  0.00  0.00    +0.000 A 
ATOM     19  C   UNL     1     105.543 129.133 146.463  0.00  0.00    +0.000 A 
ATOM     20  C   UNL     1     105.299 129.067 145.677  0.00  0.00    +0.000 A 
BRANCH  20  21
ATOM     21  O   UNL     1     104.993 129.724 145.285  0.00  0.00    +0.000 OA
ATOM     22  C   UNL     1     104.945 130.451 145.672  0.00  0.00    +0.000 C 
ENDBRANCH  20  21
ENDBRANCH  12  15
BRANCH   5  23
ATOM     23  O   UNL     1     104.714 125.549 148.149  0.00  0.00    +0.000 OA
BRANCH  23  31
ATOM     24  O   UNL     1     104.498 124.721 147.004  0.00  0.00    +0.000 OA
ATOM     25  O   UNL     1     102.055 124.821 147.392  0.00  0.00    +0.000 OA
ATOM     26  O   UNL     1     103.086 125.615 148.407  0.00  0.00    +0.000 OA
ATOM     27  O   UNL     1     102.654 123.961 146.119  0.00  0.00    +0.000 OA
ATOM     28  C   UNL     1     102.870 124.788 147.263  0.00  0.00    +0.000 C 
ATOM     29  C   UNL     1     103.384 125.185 147.771  0.00  0.00    +0.000 C 
ATOM     30  C   UNL     1     103.168 124.357 146.626  0.00  0.00    +0.000 C 
ATOM     31  C   UNL     1     104.198 125.152 147.642  0.00  0.00    +0.000 C 
ATOM     32  C   UNL     1     103.982 124.324 146.497  0.00  0.00    +0.000 C 
BRANCH  32  35
ATOM     33  O   UNL     1     104.456 124.276 145.149  0.00  0.00    +0.000 OA
ATOM     34  O   UNL     1     104.408 123.083 145.933  0.00  0.00    +0.000 OA
ATOM     35  C   UNL     1     104.282 123.894 145.860  0.00  0.00    +0.000 C 
ENDBRANCH  32  35
ENDBRANCH  23  31
ENDBRANCH   5  23
TORSDOF 5
ENDMDL
