MODEL 1
REMARK VINA RESULT:      -9.4      0.000      0.000
REMARK  Name = 44258127
REMARK  6 active torsions:
REMARK  status: ('A' for Active; 'I' for Inactive)
REMARK    1  A    between atoms: O_2  and  C_14
REMARK    2  A    between atoms: O_2  and  C_21
REMARK    3  A    between atoms: O_3  and  C_18
REMARK    4  A    between atoms: O_3  and  C_20
REMARK    5  A    between atoms: C_17  and  C_19
REMARK    6  A    between atoms: C_24  and  C_28
REMARK                            x       y       z     vdW  Elec       q    Type
REMARK                         _______ _______ _______ _____ _____    ______ ____
ROOT
ATOM      1  O   UNL     1     111.189 124.321 135.740  0.00  0.00    +0.000 OA
ATOM      2  C   UNL     1     110.800 125.489 136.466  0.00  0.00    +0.000 A 
ATOM      3  C   UNL     1     110.464 126.242 136.480  0.00  0.00    +0.000 A 
ATOM      4  C   UNL     1     110.853 125.074 135.754  0.00  0.00    +0.000 A 
ATOM      5  C   UNL     1     110.182 126.581 135.783  0.00  0.00    +0.000 A 
ATOM      6  C   UNL     1     110.571 125.413 135.057  0.00  0.00    +0.000 A 
ATOM      7  C   UNL     1     110.236 126.167 135.072  0.00  0.00    +0.000 A 
ENDROOT
BRANCH   5  12
ATOM      8  O   UNL     1     110.331 128.001 135.848  0.00  0.00    +0.000 OA
ATOM      9  O   UNL     1     107.873 128.265 135.743  0.00  0.00    +0.000 OA
ATOM     10  O   UNL     1     107.996 129.701 135.808  0.00  0.00    +0.000 OA
ATOM     11  O   UNL     1     110.657 130.893 135.981  0.00  0.00    +0.000 OA
ATOM     12  C   UNL     1     109.847 127.335 135.798  0.00  0.00    +0.000 A 
ATOM     13  C   UNL     1     109.028 127.423 135.763  0.00  0.00    +0.000 A 
ATOM     14  C   UNL     1     109.997 128.755 135.863  0.00  0.00    +0.000 A 
ATOM     15  C   UNL     1     109.177 128.843 135.828  0.00  0.00    +0.000 A 
ATOM     16  C   UNL     1     108.692 128.177 135.778  0.00  0.00    +0.000 A 
ATOM     17  C   UNL     1     108.817 129.623 135.843  0.00  0.00    +0.000 A 
ATOM     18  C   UNL     1     110.512 129.440 135.915  0.00  0.00    +0.000 A 
ATOM     19  C   UNL     1     110.170 130.229 135.931  0.00  0.00    +0.000 A 
ATOM     20  C   UNL     1     109.316 130.320 135.895  0.00  0.00    +0.000 A 
ENDBRANCH   5  12
BRANCH   2  21
ATOM     21  O   UNL     1     111.082 125.149 137.163  0.00  0.00    +0.000 OA
BRANCH  21  29
ATOM     22  O   UNL     1     112.344 125.819 137.190  0.00  0.00    +0.000 OA
ATOM     23  O   UNL     1     113.497 126.627 138.858  0.00  0.00    +0.000 OA
ATOM     24  O   UNL     1     110.973 125.288 138.804  0.00  0.00    +0.000 OA
ATOM     25  C   UNL     1     112.235 125.957 138.831  0.00  0.00    +0.000 C 
ATOM     26  C   UNL     1     112.893 126.257 138.434  0.00  0.00    +0.000 C 
ATOM     27  C   UNL     1     111.631 125.588 138.407  0.00  0.00    +0.000 C 
ATOM     28  C   UNL     1     112.947 126.188 137.614  0.00  0.00    +0.000 C 
ATOM     29  C   UNL     1     111.685 125.518 137.587  0.00  0.00    +0.000 C 
BRANCH  28  32
ATOM     30  O   UNL     1     113.630 127.284 137.001  0.00  0.00    +0.000 OA
ATOM     31  O   UNL     1     114.240 125.993 137.038  0.00  0.00    +0.000 OA
ATOM     32  C   UNL     1     113.606 126.489 137.218  0.00  0.00    +0.000 C 
ENDBRANCH  28  32
BRANCH  25  33
ATOM     33  O   UNL     1     112.181 126.027 139.651  0.00  0.00    +0.000 OA
BRANCH  33  35
ATOM     34  O   UNL     1     111.217 127.076 139.760  0.00  0.00    +0.000 OA
ATOM     35  C   UNL     1     111.933 126.737 139.989  0.00  0.00    +0.000 C 
ATOM     36  C   UNL     1     112.402 127.109 140.557  0.00  0.00    +0.000 C 
ENDBRANCH  33  35
ENDBRANCH  25  33
ENDBRANCH  21  29
ENDBRANCH   2  21
TORSDOF 6
ENDMDL
MODEL 2
REMARK VINA RESULT:      -9.4      1.859      4.372
REMARK  Name = 44258127
REMARK  6 active torsions:
REMARK  status: ('A' for Active; 'I' for Inactive)
REMARK    1  A    between atoms: O_2  and  C_14
REMARK    2  A    between atoms: O_2  and  C_21
REMARK    3  A    between atoms: O_3  and  C_18
REMARK    4  A    between atoms: O_3  and  C_20
REMARK    5  A    between atoms: C_17  and  C_19
REMARK    6  A    between atoms: C_24  and  C_28
REMARK                            x       y       z     vdW  Elec       q    Type
REMARK                         _______ _______ _______ _____ _____    ______ ____
ROOT
ATOM      1  O   UNL     1     108.647 126.918 135.166  0.00  0.00    +0.000 OA
ATOM      2  C   UNL     1     109.652 126.703 136.158  0.00  0.00    +0.000 A 
ATOM      3  C   UNL     1     110.333 126.312 136.411  0.00  0.00    +0.000 A 
ATOM      4  C   UNL     1     109.328 126.528 135.419  0.00  0.00    +0.000 A 
ATOM      5  C   UNL     1     110.690 125.747 135.927  0.00  0.00    +0.000 A 
ATOM      6  C   UNL     1     109.684 125.962 134.935  0.00  0.00    +0.000 A 
ATOM      7  C   UNL     1     110.365 125.572 135.190  0.00  0.00    +0.000 A 
ENDROOT
BRANCH   5  12
ATOM      8  O   UNL     1     112.104 125.731 136.128  0.00  0.00    +0.000 OA
ATOM      9  O   UNL     1     111.948 123.441 137.053  0.00  0.00    +0.000 OA
ATOM     10  O   UNL     1     113.375 123.399 137.266  0.00  0.00    +0.000 OA
ATOM     11  O   UNL     1     114.990 125.718 136.529  0.00  0.00    +0.000 OA
ATOM     12  C   UNL     1     111.371 125.357 136.182  0.00  0.00    +0.000 A 
ATOM     13  C   UNL     1     111.319 124.594 136.490  0.00  0.00    +0.000 A 
ATOM     14  C   UNL     1     112.786 125.342 136.382  0.00  0.00    +0.000 A 
ATOM     15  C   UNL     1     112.733 124.578 136.691  0.00  0.00    +0.000 A 
ATOM     16  C   UNL     1     112.000 124.204 136.745  0.00  0.00    +0.000 A 
ATOM     17  C   UNL     1     113.436 124.163 136.959  0.00  0.00    +0.000 A 
ATOM     18  C   UNL     1     113.544 125.742 136.321  0.00  0.00    +0.000 A 
ATOM     19  C   UNL     1     114.257 125.342 136.584  0.00  0.00    +0.000 A 
ATOM     20  C   UNL     1     114.203 124.547 136.905  0.00  0.00    +0.000 A 
ENDBRANCH   5  12
BRANCH   2  21
ATOM     21  O   UNL     1     109.296 127.268 136.642  0.00  0.00    +0.000 OA
BRANCH  21  29
ATOM     22  O   UNL     1     110.161 128.365 136.342  0.00  0.00    +0.000 OA
ATOM     23  O   UNL     1     111.010 129.909 137.631  0.00  0.00    +0.000 OA
ATOM     24  O   UNL     1     109.279 127.714 138.230  0.00  0.00    +0.000 OA
ATOM     25  C   UNL     1     110.145 128.812 137.931  0.00  0.00    +0.000 C 
ATOM     26  C   UNL     1     110.581 129.248 137.384  0.00  0.00    +0.000 C 
ATOM     27  C   UNL     1     109.716 128.151 137.683  0.00  0.00    +0.000 C 
ATOM     28  C   UNL     1     110.589 129.025 136.589  0.00  0.00    +0.000 C 
ATOM     29  C   UNL     1     109.724 127.928 136.889  0.00  0.00    +0.000 C 
BRANCH  28  32
ATOM     30  O   UNL     1     110.660 130.052 135.599  0.00  0.00    +0.000 OA
ATOM     31  O   UNL     1     111.831 129.309 135.942  0.00  0.00    +0.000 OA
ATOM     32  C   UNL     1     111.026 129.462 136.043  0.00  0.00    +0.000 C 
ENDBRANCH  28  32
BRANCH  25  33
ATOM     33  O   UNL     1     110.136 129.035 138.725  0.00  0.00    +0.000 OA
BRANCH  33  35
ATOM     34  O   UNL     1     108.831 129.614 138.777  0.00  0.00    +0.000 OA
ATOM     35  C   UNL     1     109.630 129.635 138.979  0.00  0.00    +0.000 C 
ATOM     36  C   UNL     1     109.924 130.256 139.435  0.00  0.00    +0.000 C 
ENDBRANCH  33  35
ENDBRANCH  25  33
ENDBRANCH  21  29
ENDBRANCH   2  21
TORSDOF 6
ENDMDL
MODEL 3
REMARK VINA RESULT:      -9.4      2.046      3.846
REMARK  Name = 44258127
REMARK  6 active torsions:
REMARK  status: ('A' for Active; 'I' for Inactive)
REMARK    1  A    between atoms: O_2  and  C_14
REMARK    2  A    between atoms: O_2  and  C_21
REMARK    3  A    between atoms: O_3  and  C_18
REMARK    4  A    between atoms: O_3  and  C_20
REMARK    5  A    between atoms: C_17  and  C_19
REMARK    6  A    between atoms: C_24  and  C_28
REMARK                            x       y       z     vdW  Elec       q    Type
REMARK                         _______ _______ _______ _____ _____    ______ ____
ROOT
ATOM      1  O   UNL     1     112.768 124.557 136.571  0.00  0.00    +0.000 OA
ATOM      2  C   UNL     1     112.305 125.906 136.485  0.00  0.00    +0.000 A 
ATOM      3  C   UNL     1     112.461 126.716 136.486  0.00  0.00    +0.000 A 
ATOM      4  C   UNL     1     112.924 125.366 136.573  0.00  0.00    +0.000 A 
ATOM      5  C   UNL     1     113.235 126.987 136.575  0.00  0.00    +0.000 A 
ATOM      6  C   UNL     1     113.698 125.638 136.661  0.00  0.00    +0.000 A 
ATOM      7  C   UNL     1     113.853 126.448 136.663  0.00  0.00    +0.000 A 
ENDROOT
BRANCH   5  12
ATOM      8  O   UNL     1     113.224 128.248 137.248  0.00  0.00    +0.000 OA
ATOM      9  O   UNL     1     114.186 129.328 135.240  0.00  0.00    +0.000 OA
ATOM     10  O   UNL     1     114.185 130.613 135.896  0.00  0.00    +0.000 OA
ATOM     11  O   UNL     1     113.193 130.808 138.636  0.00  0.00    +0.000 OA
ATOM     12  C   UNL     1     113.390 127.797 136.576  0.00  0.00    +0.000 A 
ATOM     13  C   UNL     1     113.710 128.158 135.908  0.00  0.00    +0.000 A 
ATOM     14  C   UNL     1     113.379 129.058 137.250  0.00  0.00    +0.000 A 
ATOM     15  C   UNL     1     113.699 129.418 136.580  0.00  0.00    +0.000 A 
ATOM     16  C   UNL     1     113.865 128.968 135.909  0.00  0.00    +0.000 A 
ATOM     17  C   UNL     1     113.865 130.261 136.571  0.00  0.00    +0.000 A 
ATOM     18  C   UNL     1     113.202 129.516 137.955  0.00  0.00    +0.000 A 
ATOM     19  C   UNL     1     113.360 130.361 137.964  0.00  0.00    +0.000 A 
ATOM     20  C   UNL     1     113.694 130.736 137.266  0.00  0.00    +0.000 A 
ENDBRANCH   5  12
BRANCH   2  21
ATOM     21  O   UNL     1     111.531 125.634 136.396  0.00  0.00    +0.000 OA
BRANCH  21  29
ATOM     22  O   UNL     1     111.060 125.838 137.730  0.00  0.00    +0.000 OA
ATOM     23  O   UNL     1     109.177 126.655 138.471  0.00  0.00    +0.000 OA
ATOM     24  O   UNL     1     110.118 126.248 135.804  0.00  0.00    +0.000 OA
ATOM     25  C   UNL     1     109.648 126.452 137.138  0.00  0.00    +0.000 C 
ATOM     26  C   UNL     1     109.766 126.400 137.952  0.00  0.00    +0.000 C 
ATOM     27  C   UNL     1     110.237 126.196 136.619  0.00  0.00    +0.000 C 
ATOM     28  C   UNL     1     110.472 126.093 138.248  0.00  0.00    +0.000 C 
ATOM     29  C   UNL     1     110.943 125.889 136.915  0.00  0.00    +0.000 C 
BRANCH  28  32
ATOM     30  O   UNL     1     110.877 126.692 139.481  0.00  0.00    +0.000 OA
ATOM     31  O   UNL     1     110.419 125.339 139.461  0.00  0.00    +0.000 OA
ATOM     32  C   UNL     1     110.589 126.041 139.064  0.00  0.00    +0.000 C 
ENDBRANCH  28  32
BRANCH  25  33
ATOM     33  O   UNL     1     108.941 126.758 136.842  0.00  0.00    +0.000 OA
BRANCH  33  35
ATOM     34  O   UNL     1     109.117 128.164 137.029  0.00  0.00    +0.000 OA
ATOM     35  C   UNL     1     108.919 127.528 136.544  0.00  0.00    +0.000 C 
ATOM     36  C   UNL     1     108.698 127.660 135.760  0.00  0.00    +0.000 C 
ENDBRANCH  33  35
ENDBRANCH  25  33
ENDBRANCH  21  29
ENDBRANCH   2  21
TORSDOF 6
ENDMDL
MODEL 4
REMARK VINA RESULT:      -9.2      2.041      4.005
REMARK  Name = 44258127
REMARK  6 active torsions:
REMARK  status: ('A' for Active; 'I' for Inactive)
REMARK    1  A    between atoms: O_2  and  C_14
REMARK    2  A    between atoms: O_2  and  C_21
REMARK    3  A    between atoms: O_3  and  C_18
REMARK    4  A    between atoms: O_3  and  C_20
REMARK    5  A    between atoms: C_17  and  C_19
REMARK    6  A    between atoms: C_24  and  C_28
REMARK                            x       y       z     vdW  Elec       q    Type
REMARK                         _______ _______ _______ _____ _____    ______ ____
ROOT
ATOM      1  O   UNL     1     111.929 126.040 139.866  0.00  0.00    +0.000 OA
ATOM      2  C   UNL     1     111.891 126.642 138.571  0.00  0.00    +0.000 A 
ATOM      3  C   UNL     1     112.159 127.216 138.042  0.00  0.00    +0.000 A 
ATOM      4  C   UNL     1     112.197 126.614 139.338  0.00  0.00    +0.000 A 
ATOM      5  C   UNL     1     112.732 127.761 138.279  0.00  0.00    +0.000 A 
ATOM      6  C   UNL     1     112.770 127.158 139.574  0.00  0.00    +0.000 A 
ATOM      7  C   UNL     1     113.037 127.732 139.044  0.00  0.00    +0.000 A 
ENDROOT
BRANCH   5  12
ATOM      8  O   UNL     1     113.416 128.108 137.074  0.00  0.00    +0.000 OA
ATOM      9  O   UNL     1     112.967 130.503 137.508  0.00  0.00    +0.000 OA
ATOM     10  O   UNL     1     113.653 130.881 136.296  0.00  0.00    +0.000 OA
ATOM     11  O   UNL     1     114.816 128.796 134.613  0.00  0.00    +0.000 OA
ATOM     12  C   UNL     1     112.999 128.334 137.749  0.00  0.00    +0.000 A 
ATOM     13  C   UNL     1     112.850 129.132 137.893  0.00  0.00    +0.000 A 
ATOM     14  C   UNL     1     113.684 128.681 136.543  0.00  0.00    +0.000 A 
ATOM     15  C   UNL     1     113.534 129.479 136.688  0.00  0.00    +0.000 A 
ATOM     16  C   UNL     1     113.117 129.705 137.363  0.00  0.00    +0.000 A 
ATOM     17  C   UNL     1     113.807 130.084 136.143  0.00  0.00    +0.000 A 
ATOM     18  C   UNL     1     114.117 128.433 135.844  0.00  0.00    +0.000 A 
ATOM     19  C   UNL     1     114.399 129.025 135.287  0.00  0.00    +0.000 A 
ATOM     20  C   UNL     1     114.242 129.856 135.438  0.00  0.00    +0.000 A 
ENDBRANCH   5  12
BRANCH   2  21
ATOM     21  O   UNL     1     111.319 126.098 138.335  0.00  0.00    +0.000 OA
BRANCH  21  29
ATOM     22  O   UNL     1     112.133 125.170 137.616  0.00  0.00    +0.000 OA
ATOM     23  O   UNL     1     111.836 124.209 135.679  0.00  0.00    +0.000 OA
ATOM     24  O   UNL     1     110.206 126.065 137.116  0.00  0.00    +0.000 OA
ATOM     25  C   UNL     1     111.021 125.137 136.397  0.00  0.00    +0.000 C 
ATOM     26  C   UNL     1     111.706 124.681 136.343  0.00  0.00    +0.000 C 
ATOM     27  C   UNL     1     110.892 125.610 137.062  0.00  0.00    +0.000 C 
ATOM     28  C   UNL     1     112.263 124.698 136.952  0.00  0.00    +0.000 C 
ATOM     29  C   UNL     1     111.448 125.626 137.671  0.00  0.00    +0.000 C 
BRANCH  28  32
ATOM     30  O   UNL     1     113.611 124.538 136.507  0.00  0.00    +0.000 OA
ATOM     31  O   UNL     1     112.969 123.488 137.232  0.00  0.00    +0.000 OA
ATOM     32  C   UNL     1     112.948 124.241 136.897  0.00  0.00    +0.000 C 
ENDBRANCH  28  32
BRANCH  25  33
ATOM     33  O   UNL     1     110.465 125.121 135.788  0.00  0.00    +0.000 OA
BRANCH  33  35
ATOM     34  O   UNL     1     111.128 126.076 134.958  0.00  0.00    +0.000 OA
ATOM     35  C   UNL     1     110.432 125.740 135.244  0.00  0.00    +0.000 C 
ATOM     36  C   UNL     1     109.701 126.023 134.986  0.00  0.00    +0.000 C 
ENDBRANCH  33  35
ENDBRANCH  25  33
ENDBRANCH  21  29
ENDBRANCH   2  21
TORSDOF 6
ENDMDL
MODEL 5
REMARK VINA RESULT:      -9.2      1.919      5.065
REMARK  Name = 44258127
REMARK  6 active torsions:
REMARK  status: ('A' for Active; 'I' for Inactive)
REMARK    1  A    between atoms: O_2  and  C_14
REMARK    2  A    between atoms: O_2  and  C_21
REMARK    3  A    between atoms: O_3  and  C_18
REMARK    4  A    between atoms: O_3  and  C_20
REMARK    5  A    between atoms: C_17  and  C_19
REMARK    6  A    between atoms: C_24  and  C_28
REMARK                            x       y       z     vdW  Elec       q    Type
REMARK                         _______ _______ _______ _____ _____    ______ ____
ROOT
ATOM      1  O   UNL     1     113.142 130.062 135.966  0.00  0.00    +0.000 OA
ATOM      2  C   UNL     1     112.660 128.905 136.653  0.00  0.00    +0.000 A 
ATOM      3  C   UNL     1     112.702 128.095 136.804  0.00  0.00    +0.000 A 
ATOM      4  C   UNL     1     113.184 129.252 136.118  0.00  0.00    +0.000 A 
ATOM      5  C   UNL     1     113.267 127.632 136.422  0.00  0.00    +0.000 A 
ATOM      6  C   UNL     1     113.750 128.789 135.735  0.00  0.00    +0.000 A 
ATOM      7  C   UNL     1     113.791 127.979 135.887  0.00  0.00    +0.000 A 
ENDROOT
BRANCH   5  12
ATOM      8  O   UNL     1     112.691 126.328 136.340  0.00  0.00    +0.000 OA
ATOM      9  O   UNL     1     114.663 125.383 137.498  0.00  0.00    +0.000 OA
ATOM     10  O   UNL     1     114.104 124.055 137.428  0.00  0.00    +0.000 OA
ATOM     11  O   UNL     1     111.499 123.675 136.163  0.00  0.00    +0.000 OA
ATOM     12  C   UNL     1     113.308 126.822 136.574  0.00  0.00    +0.000 A 
ATOM     13  C   UNL     1     113.965 126.508 136.960  0.00  0.00    +0.000 A 
ATOM     14  C   UNL     1     112.731 125.518 136.492  0.00  0.00    +0.000 A 
ATOM     15  C   UNL     1     113.389 125.203 136.878  0.00  0.00    +0.000 A 
ATOM     16  C   UNL     1     114.006 125.698 137.112  0.00  0.00    +0.000 A 
ATOM     17  C   UNL     1     113.442 124.361 137.042  0.00  0.00    +0.000 A 
ATOM     18  C   UNL     1     112.082 125.013 136.243  0.00  0.00    +0.000 A 
ATOM     19  C   UNL     1     112.118 124.168 136.398  0.00  0.00    +0.000 A 
ATOM     20  C   UNL     1     112.803 123.840 136.801  0.00  0.00    +0.000 A 
ENDBRANCH   5  12
BRANCH   2  21
ATOM     21  O   UNL     1     112.094 129.368 137.035  0.00  0.00    +0.000 OA
BRANCH  21  29
ATOM     22  O   UNL     1     110.962 129.066 136.217  0.00  0.00    +0.000 OA
ATOM     23  O   UNL     1     108.890 128.632 136.747  0.00  0.00    +0.000 OA
ATOM     24  O   UNL     1     111.153 129.236 138.384  0.00  0.00    +0.000 OA
ATOM     25  C   UNL     1     110.022 128.934 137.566  0.00  0.00    +0.000 C 
ATOM     26  C   UNL     1     109.692 128.816 136.819  0.00  0.00    +0.000 C 
ATOM     27  C   UNL     1     110.823 129.118 137.638  0.00  0.00    +0.000 C 
ATOM     28  C   UNL     1     110.162 128.883 136.144  0.00  0.00    +0.000 C 
ATOM     29  C   UNL     1     111.294 129.184 136.963  0.00  0.00    +0.000 C 
BRANCH  28  32
ATOM     30  O   UNL     1     109.754 128.001 135.096  0.00  0.00    +0.000 OA
ATOM     31  O   UNL     1     109.576 129.411 134.953  0.00  0.00    +0.000 OA
ATOM     32  C   UNL     1     109.831 128.765 135.398  0.00  0.00    +0.000 C 
ENDBRANCH  28  32
BRANCH  25  33
ATOM     33  O   UNL     1     109.551 128.868 138.240  0.00  0.00    +0.000 OA
BRANCH  33  35
ATOM     34  O   UNL     1     108.728 130.036 138.207  0.00  0.00    +0.000 OA
ATOM     35  C   UNL     1     109.258 129.547 138.606  0.00  0.00    +0.000 C 
ATOM     36  C   UNL     1     109.497 129.737 139.373  0.00  0.00    +0.000 C 
ENDBRANCH  33  35
ENDBRANCH  25  33
ENDBRANCH  21  29
ENDBRANCH   2  21
TORSDOF 6
ENDMDL
MODEL 6
REMARK VINA RESULT:      -9.1      1.957      4.640
REMARK  Name = 44258127
REMARK  6 active torsions:
REMARK  status: ('A' for Active; 'I' for Inactive)
REMARK    1  A    between atoms: O_2  and  C_14
REMARK    2  A    between atoms: O_2  and  C_21
REMARK    3  A    between atoms: O_3  and  C_18
REMARK    4  A    between atoms: O_3  and  C_20
REMARK    5  A    between atoms: C_17  and  C_19
REMARK    6  A    between atoms: C_24  and  C_28
REMARK                            x       y       z     vdW  Elec       q    Type
REMARK                         _______ _______ _______ _____ _____    ______ ____
ROOT
ATOM      1  O   UNL     1     109.883 128.287 134.612  0.00  0.00    +0.000 OA
ATOM      2  C   UNL     1     110.933 127.863 135.483  0.00  0.00    +0.000 A 
ATOM      3  C   UNL     1     111.385 127.258 135.815  0.00  0.00    +0.000 A 
ATOM      4  C   UNL     1     110.334 127.682 134.945  0.00  0.00    +0.000 A 
ATOM      5  C   UNL     1     111.237 126.472 135.611  0.00  0.00    +0.000 A 
ATOM      6  C   UNL     1     110.186 126.896 134.740  0.00  0.00    +0.000 A 
ATOM      7  C   UNL     1     110.638 126.292 135.074  0.00  0.00    +0.000 A 
ENDROOT
BRANCH   5  12
ATOM      8  O   UNL     1     112.493 125.985 136.087  0.00  0.00    +0.000 OA
ATOM      9  O   UNL     1     111.438 123.821 136.659  0.00  0.00    +0.000 OA
ATOM     10  O   UNL     1     112.694 123.305 137.146  0.00  0.00    +0.000 OA
ATOM     11  O   UNL     1     115.063 125.011 137.053  0.00  0.00    +0.000 OA
ATOM     12  C   UNL     1     111.689 125.868 135.944  0.00  0.00    +0.000 A 
ATOM     13  C   UNL     1     111.337 125.147 136.135  0.00  0.00    +0.000 A 
ATOM     14  C   UNL     1     112.945 125.382 136.420  0.00  0.00    +0.000 A 
ATOM     15  C   UNL     1     112.593 124.660 136.611  0.00  0.00    +0.000 A 
ATOM     16  C   UNL     1     111.789 124.542 136.469  0.00  0.00    +0.000 A 
ATOM     17  C   UNL     1     113.055 124.023 136.959  0.00  0.00    +0.000 A 
ATOM     18  C   UNL     1     113.782 125.516 136.564  0.00  0.00    +0.000 A 
ATOM     19  C   UNL     1     114.259 124.891 136.911  0.00  0.00    +0.000 A 
ATOM     20  C   UNL     1     113.892 124.139 137.110  0.00  0.00    +0.000 A 
ENDBRANCH   5  12
BRANCH   2  21
ATOM     21  O   UNL     1     111.081 128.648 135.687  0.00  0.00    +0.000 OA
BRANCH  21  29
ATOM     22  O   UNL     1     110.381 128.708 136.931  0.00  0.00    +0.000 OA
ATOM     23  O   UNL     1     110.947 129.584 138.849  0.00  0.00    +0.000 OA
ATOM     24  O   UNL     1     112.348 129.464 136.360  0.00  0.00    +0.000 OA
ATOM     25  C   UNL     1     111.647 129.524 137.605  0.00  0.00    +0.000 C 
ATOM     26  C   UNL     1     110.980 129.350 138.058  0.00  0.00    +0.000 C 
ATOM     27  C   UNL     1     111.681 129.290 136.813  0.00  0.00    +0.000 C 
ATOM     28  C   UNL     1     110.347 128.942 137.721  0.00  0.00    +0.000 C 
ATOM     29  C   UNL     1     111.048 128.882 136.477  0.00  0.00    +0.000 C 
BRANCH  28  32
ATOM     30  O   UNL     1     109.032 129.277 138.168  0.00  0.00    +0.000 OA
ATOM     31  O   UNL     1     109.663 128.085 138.637  0.00  0.00    +0.000 OA
ATOM     32  C   UNL     1     109.680 128.768 138.175  0.00  0.00    +0.000 C 
ENDBRANCH  28  32
BRANCH  25  33
ATOM     33  O   UNL     1     112.280 129.932 137.941  0.00  0.00    +0.000 OA
BRANCH  33  35
ATOM     34  O   UNL     1     111.816 131.279 138.046  0.00  0.00    +0.000 OA
ATOM     35  C   UNL     1     112.380 130.737 137.788  0.00  0.00    +0.000 C 
ATOM     36  C   UNL     1     113.046 130.998 137.376  0.00  0.00    +0.000 C 
ENDBRANCH  33  35
ENDBRANCH  25  33
ENDBRANCH  21  29
ENDBRANCH   2  21
TORSDOF 6
ENDMDL
MODEL 7
REMARK VINA RESULT:      -9.1      1.501      5.083
REMARK  Name = 44258127
REMARK  6 active torsions:
REMARK  status: ('A' for Active; 'I' for Inactive)
REMARK    1  A    between atoms: O_2  and  C_14
REMARK    2  A    between atoms: O_2  and  C_21
REMARK    3  A    between atoms: O_3  and  C_18
REMARK    4  A    between atoms: O_3  and  C_20
REMARK    5  A    between atoms: C_17  and  C_19
REMARK    6  A    between atoms: C_24  and  C_28
REMARK                            x       y       z     vdW  Elec       q    Type
REMARK                         _______ _______ _______ _____ _____    ______ ____
ROOT
ATOM      1  O   UNL     1     109.339 127.902 139.372  0.00  0.00    +0.000 OA
ATOM      2  C   UNL     1     110.380 127.663 138.424  0.00  0.00    +0.000 A 
ATOM      3  C   UNL     1     110.922 127.150 138.072  0.00  0.00    +0.000 A 
ATOM      4  C   UNL     1     109.880 127.389 139.021  0.00  0.00    +0.000 A 
ATOM      5  C   UNL     1     110.964 126.363 138.316  0.00  0.00    +0.000 A 
ATOM      6  C   UNL     1     109.922 126.602 139.265  0.00  0.00    +0.000 A 
ATOM      7  C   UNL     1     110.464 126.090 138.912  0.00  0.00    +0.000 A 
ENDROOT
BRANCH   5  12
ATOM      8  O   UNL     1     112.314 125.946 138.103  0.00  0.00    +0.000 OA
ATOM      9  O   UNL     1     111.519 124.125 136.628  0.00  0.00    +0.000 OA
ATOM     10  O   UNL     1     112.873 123.684 136.396  0.00  0.00    +0.000 OA
ATOM     11  O   UNL     1     115.073 125.112 137.681  0.00  0.00    +0.000 OA
ATOM     12  C   UNL     1     111.506 125.851 137.963  0.00  0.00    +0.000 A 
ATOM     13  C   UNL     1     111.242 125.244 137.472  0.00  0.00    +0.000 A 
ATOM     14  C   UNL     1     112.857 125.435 137.751  0.00  0.00    +0.000 A 
ATOM     15  C   UNL     1     112.591 124.827 137.258  0.00  0.00    +0.000 A 
ATOM     16  C   UNL     1     111.784 124.732 137.119  0.00  0.00    +0.000 A 
ATOM     17  C   UNL     1     113.147 124.288 136.886  0.00  0.00    +0.000 A 
ATOM     18  C   UNL     1     113.695 125.544 137.903  0.00  0.00    +0.000 A 
ATOM     19  C   UNL     1     114.266 125.014 137.539  0.00  0.00    +0.000 A 
ATOM     20  C   UNL     1     113.989 124.382 137.027  0.00  0.00    +0.000 A 
ENDBRANCH   5  12
BRANCH   2  21
ATOM     21  O   UNL     1     110.338 128.450 138.180  0.00  0.00    +0.000 OA
BRANCH  21  29
ATOM     22  O   UNL     1     109.537 128.329 137.002  0.00  0.00    +0.000 OA
ATOM     23  O   UNL     1     109.799 129.166 135.003  0.00  0.00    +0.000 OA
ATOM     24  O   UNL     1     111.401 129.408 137.358  0.00  0.00    +0.000 OA
ATOM     25  C   UNL     1     110.600 129.287 136.180  0.00  0.00    +0.000 C 
ATOM     26  C   UNL     1     109.934 128.987 135.798  0.00  0.00    +0.000 C 
ATOM     27  C   UNL     1     110.735 129.108 136.975  0.00  0.00    +0.000 C 
ATOM     28  C   UNL     1     109.402 128.508 136.209  0.00  0.00    +0.000 C 
ATOM     29  C   UNL     1     110.203 128.629 137.386  0.00  0.00    +0.000 C 
BRANCH  28  32
ATOM     30  O   UNL     1     108.765 127.467 135.465  0.00  0.00    +0.000 OA
ATOM     31  O   UNL     1     108.040 128.650 135.803  0.00  0.00    +0.000 OA
ATOM     32  C   UNL     1     108.736 128.208 135.825  0.00  0.00    +0.000 C 
ENDBRANCH  28  32
BRANCH  25  33
ATOM     33  O   UNL     1     111.131 129.766 135.770  0.00  0.00    +0.000 OA
BRANCH  33  35
ATOM     34  O   UNL     1     111.788 128.872 134.869  0.00  0.00    +0.000 OA
ATOM     35  C   UNL     1     111.826 129.442 135.463  0.00  0.00    +0.000 C 
ATOM     36  C   UNL     1     112.558 129.689 135.752  0.00  0.00    +0.000 C 
ENDBRANCH  33  35
ENDBRANCH  25  33
ENDBRANCH  21  29
ENDBRANCH   2  21
TORSDOF 6
ENDMDL
MODEL 8
REMARK VINA RESULT:      -9.1      2.605      5.105
REMARK  Name = 44258127
REMARK  6 active torsions:
REMARK  status: ('A' for Active; 'I' for Inactive)
REMARK    1  A    between atoms: O_2  and  C_14
REMARK    2  A    between atoms: O_2  and  C_21
REMARK    3  A    between atoms: O_3  and  C_18
REMARK    4  A    between atoms: O_3  and  C_20
REMARK    5  A    between atoms: C_17  and  C_19
REMARK    6  A    between atoms: C_24  and  C_28
REMARK                            x       y       z     vdW  Elec       q    Type
REMARK                         _______ _______ _______ _____ _____    ______ ____
ROOT
ATOM      1  O   UNL     1     114.631 130.735 135.583  0.00  0.00    +0.000 OA
ATOM      2  C   UNL     1     114.106 129.770 136.496  0.00  0.00    +0.000 A 
ATOM      3  C   UNL     1     113.815 129.013 136.645  0.00  0.00    +0.000 A 
ATOM      4  C   UNL     1     114.341 129.978 135.732  0.00  0.00    +0.000 A 
ATOM      5  C   UNL     1     113.759 128.463 136.032  0.00  0.00    +0.000 A 
ATOM      6  C   UNL     1     114.284 129.429 135.119  0.00  0.00    +0.000 A 
ATOM      7  C   UNL     1     113.993 128.672 135.269  0.00  0.00    +0.000 A 
ENDROOT
BRANCH   5  12
ATOM      8  O   UNL     1     113.981 127.109 136.430  0.00  0.00    +0.000 OA
ATOM      9  O   UNL     1     111.571 126.627 136.139  0.00  0.00    +0.000 OA
ATOM     10  O   UNL     1     111.768 125.255 136.538  0.00  0.00    +0.000 OA
ATOM     11  O   UNL     1     114.454 124.353 137.245  0.00  0.00    +0.000 OA
ATOM     12  C   UNL     1     113.468 127.706 136.182  0.00  0.00    +0.000 A 
ATOM     13  C   UNL     1     112.665 127.545 136.085  0.00  0.00    +0.000 A 
ATOM     14  C   UNL     1     113.691 126.352 136.581  0.00  0.00    +0.000 A 
ATOM     15  C   UNL     1     112.887 126.191 136.484  0.00  0.00    +0.000 A 
ATOM     16  C   UNL     1     112.374 126.788 136.236  0.00  0.00    +0.000 A 
ATOM     17  C   UNL     1     112.574 125.406 136.638  0.00  0.00    +0.000 A 
ATOM     18  C   UNL     1     114.235 125.739 136.839  0.00  0.00    +0.000 A 
ATOM     19  C   UNL     1     113.939 124.948 136.998  0.00  0.00    +0.000 A 
ATOM     20  C   UNL     1     113.102 124.781 136.896  0.00  0.00    +0.000 A 
ENDBRANCH   5  12
BRANCH   2  21
ATOM     21  O   UNL     1     114.162 130.319 137.109  0.00  0.00    +0.000 OA
BRANCH  21  29
ATOM     22  O   UNL     1     112.800 130.749 137.173  0.00  0.00    +0.000 OA
ATOM     23  O   UNL     1     111.488 131.089 138.883  0.00  0.00    +0.000 OA
ATOM     24  O   UNL     1     114.210 130.229 138.756  0.00  0.00    +0.000 OA
ATOM     25  C   UNL     1     112.849 130.659 138.819  0.00  0.00    +0.000 C 
ATOM     26  C   UNL     1     112.157 130.897 138.439  0.00  0.00    +0.000 C 
ATOM     27  C   UNL     1     113.518 130.466 138.375  0.00  0.00    +0.000 C 
ATOM     28  C   UNL     1     112.133 130.942 137.616  0.00  0.00    +0.000 C 
ATOM     29  C   UNL     1     113.494 130.512 137.552  0.00  0.00    +0.000 C 
BRANCH  28  32
ATOM     30  O   UNL     1     111.324 131.973 137.046  0.00  0.00    +0.000 OA
ATOM     31  O   UNL     1     110.861 130.622 137.048  0.00  0.00    +0.000 OA
ATOM     32  C   UNL     1     111.439 131.180 137.236  0.00  0.00    +0.000 C 
ENDBRANCH  28  32
BRANCH  25  33
ATOM     33  O   UNL     1     112.874 130.614 139.643  0.00  0.00    +0.000 OA
BRANCH  33  35
ATOM     34  O   UNL     1     112.213 129.363 139.843  0.00  0.00    +0.000 OA
ATOM     35  C   UNL     1     112.831 129.880 140.017  0.00  0.00    +0.000 C 
ATOM     36  C   UNL     1     113.408 129.663 140.565  0.00  0.00    +0.000 C 
ENDBRANCH  33  35
ENDBRANCH  25  33
ENDBRANCH  21  29
ENDBRANCH   2  21
TORSDOF 6
ENDMDL
MODEL 9
REMARK VINA RESULT:      -9.1      2.155      4.412
REMARK  Name = 44258127
REMARK  6 active torsions:
REMARK  status: ('A' for Active; 'I' for Inactive)
REMARK    1  A    between atoms: O_2  and  C_14
REMARK    2  A    between atoms: O_2  and  C_21
REMARK    3  A    between atoms: O_3  and  C_18
REMARK    4  A    between atoms: O_3  and  C_20
REMARK    5  A    between atoms: C_17  and  C_19
REMARK    6  A    between atoms: C_24  and  C_28
REMARK                            x       y       z     vdW  Elec       q    Type
REMARK                         _______ _______ _______ _____ _____    ______ ____
ROOT
ATOM      1  O   UNL     1     110.555 129.124 134.757  0.00  0.00    +0.000 OA
ATOM      2  C   UNL     1     111.234 128.419 135.799  0.00  0.00    +0.000 A 
ATOM      3  C   UNL     1     111.552 127.719 136.097  0.00  0.00    +0.000 A 
ATOM      4  C   UNL     1     110.874 128.424 135.055  0.00  0.00    +0.000 A 
ATOM      5  C   UNL     1     111.511 127.024 135.654  0.00  0.00    +0.000 A 
ATOM      6  C   UNL     1     110.833 127.729 134.612  0.00  0.00    +0.000 A 
ATOM      7  C   UNL     1     111.152 127.030 134.912  0.00  0.00    +0.000 A 
ENDROOT
BRANCH   5  12
ATOM      8  O   UNL     1     112.625 126.295 136.172  0.00  0.00    +0.000 OA
ATOM      9  O   UNL     1     111.200 124.288 136.416  0.00  0.00    +0.000 OA
ATOM     10  O   UNL     1     112.309 123.529 136.942  0.00  0.00    +0.000 OA
ATOM     11  O   UNL     1     114.909 124.826 137.227  0.00  0.00    +0.000 OA
ATOM     12  C   UNL     1     111.831 126.325 135.954  0.00  0.00    +0.000 A 
ATOM     13  C   UNL     1     111.356 125.656 136.035  0.00  0.00    +0.000 A 
ATOM     14  C   UNL     1     112.946 125.597 136.472  0.00  0.00    +0.000 A 
ATOM     15  C   UNL     1     112.470 124.927 136.553  0.00  0.00    +0.000 A 
ATOM     16  C   UNL     1     111.675 124.957 136.335  0.00  0.00    +0.000 A 
ATOM     17  C   UNL     1     112.792 124.194 136.864  0.00  0.00    +0.000 A 
ATOM     18  C   UNL     1     113.775 125.578 136.696  0.00  0.00    +0.000 A 
ATOM     19  C   UNL     1     114.114 124.853 137.009  0.00  0.00    +0.000 A 
ATOM     20  C   UNL     1     113.619 124.156 137.094  0.00  0.00    +0.000 A 
ENDBRANCH   5  12
BRANCH   2  21
ATOM     21  O   UNL     1     111.274 129.113 136.242  0.00  0.00    +0.000 OA
BRANCH  21  29
ATOM     22  O   UNL     1     112.641 129.435 135.976  0.00  0.00    +0.000 OA
ATOM     23  O   UNL     1     114.198 130.243 137.274  0.00  0.00    +0.000 OA
ATOM     24  O   UNL     1     111.465 129.600 137.807  0.00  0.00    +0.000 OA
ATOM     25  C   UNL     1     112.831 129.922 137.541  0.00  0.00    +0.000 C 
ATOM     26  C   UNL     1     113.467 129.960 137.016  0.00  0.00    +0.000 C 
ATOM     27  C   UNL     1     112.100 129.639 137.282  0.00  0.00    +0.000 C 
ATOM     28  C   UNL     1     113.371 129.717 136.233  0.00  0.00    +0.000 C 
ATOM     29  C   UNL     1     112.005 129.395 136.500  0.00  0.00    +0.000 C 
BRANCH  28  32
ATOM     30  O   UNL     1     114.120 130.429 135.246  0.00  0.00    +0.000 OA
ATOM     31  O   UNL     1     114.531 129.121 135.649  0.00  0.00    +0.000 OA
ATOM     32  C   UNL     1     114.008 129.756 135.709  0.00  0.00    +0.000 C 
ENDBRANCH  28  32
BRANCH  25  33
ATOM     33  O   UNL     1     112.927 130.165 138.323  0.00  0.00    +0.000 OA
BRANCH  33  35
ATOM     34  O   UNL     1     113.047 128.870 138.915  0.00  0.00    +0.000 OA
ATOM     35  C   UNL     1     113.280 129.660 138.872  0.00  0.00    +0.000 C 
ATOM     36  C   UNL     1     113.866 129.945 139.377  0.00  0.00    +0.000 C 
ENDBRANCH  33  35
ENDBRANCH  25  33
ENDBRANCH  21  29
ENDBRANCH   2  21
TORSDOF 6
ENDMDL
MODEL 10
REMARK VINA RESULT:      -9.1      0.966      2.061
REMARK  Name = 44258127
REMARK  6 active torsions:
REMARK  status: ('A' for Active; 'I' for Inactive)
REMARK    1  A    between atoms: O_2  and  C_14
REMARK    2  A    between atoms: O_2  and  C_21
REMARK    3  A    between atoms: O_3  and  C_18
REMARK    4  A    between atoms: O_3  and  C_20
REMARK    5  A    between atoms: C_17  and  C_19
REMARK    6  A    between atoms: C_24  and  C_28
REMARK                            x       y       z     vdW  Elec       q    Type
REMARK                         _______ _______ _______ _____ _____    ______ ____
ROOT
ATOM      1  O   UNL     1     111.579 124.113 136.274  0.00  0.00    +0.000 OA
ATOM      2  C   UNL     1     111.641 125.513 136.553  0.00  0.00    +0.000 A 
ATOM      3  C   UNL     1     111.404 126.285 136.386  0.00  0.00    +0.000 A 
ATOM      4  C   UNL     1     111.343 124.885 136.107  0.00  0.00    +0.000 A 
ATOM      5  C   UNL     1     110.870 126.430 135.774  0.00  0.00    +0.000 A 
ATOM      6  C   UNL     1     110.809 125.030 135.495  0.00  0.00    +0.000 A 
ATOM      7  C   UNL     1     110.573 125.803 135.329  0.00  0.00    +0.000 A 
ENDROOT
BRANCH   5  12
ATOM      8  O   UNL     1     109.894 127.471 135.856  0.00  0.00    +0.000 OA
ATOM      9  O   UNL     1     111.404 128.987 134.613  0.00  0.00    +0.000 OA
ATOM     10  O   UNL     1     110.436 130.055 134.683  0.00  0.00    +0.000 OA
ATOM     11  O   UNL     1     107.891 129.579 136.035  0.00  0.00    +0.000 OA
ATOM     12  C   UNL     1     110.634 127.204 135.608  0.00  0.00    +0.000 A 
ATOM     13  C   UNL     1     111.137 127.709 135.194  0.00  0.00    +0.000 A 
ATOM     14  C   UNL     1     109.657 128.243 135.691  0.00  0.00    +0.000 A 
ATOM     15  C   UNL     1     110.161 128.749 135.276  0.00  0.00    +0.000 A 
ATOM     16  C   UNL     1     110.901 128.482 135.027  0.00  0.00    +0.000 A 
ATOM     17  C   UNL     1     109.925 129.556 135.098  0.00  0.00    +0.000 A 
ATOM     18  C   UNL     1     108.884 128.510 135.955  0.00  0.00    +0.000 A 
ATOM     19  C   UNL     1     108.632 129.314 135.785  0.00  0.00    +0.000 A 
ATOM     20  C   UNL     1     109.156 129.840 135.354  0.00  0.00    +0.000 A 
ENDBRANCH   5  12
BRANCH   2  21
ATOM     21  O   UNL     1     112.174 125.368 137.165  0.00  0.00    +0.000 OA
BRANCH  21  29
ATOM     22  O   UNL     1     111.287 125.633 138.253  0.00  0.00    +0.000 OA
ATOM     23  O   UNL     1     111.627 126.629 140.165  0.00  0.00    +0.000 OA
ATOM     24  O   UNL     1     113.403 126.099 137.989  0.00  0.00    +0.000 OA
ATOM     25  C   UNL     1     112.515 126.364 139.077  0.00  0.00    +0.000 C 
ATOM     26  C   UNL     1     111.764 126.313 139.414  0.00  0.00    +0.000 C 
ATOM     27  C   UNL     1     112.652 126.049 138.326  0.00  0.00    +0.000 C 
ATOM     28  C   UNL     1     111.150 125.948 139.002  0.00  0.00    +0.000 C 
ATOM     29  C   UNL     1     112.038 125.683 137.914  0.00  0.00    +0.000 C 
BRANCH  28  32
ATOM     30  O   UNL     1     109.855 126.507 139.233  0.00  0.00    +0.000 OA
ATOM     31  O   UNL     1     110.193 125.236 139.789  0.00  0.00    +0.000 OA
ATOM     32  C   UNL     1     110.399 125.897 139.341  0.00  0.00    +0.000 C 
ENDBRANCH  28  32
BRANCH  25  33
ATOM     33  O   UNL     1     113.129 126.730 139.489  0.00  0.00    +0.000 OA
BRANCH  33  35
ATOM     34  O   UNL     1     113.205 127.961 138.766  0.00  0.00    +0.000 OA
ATOM     35  C   UNL     1     113.197 127.553 139.482  0.00  0.00    +0.000 C 
ATOM     36  C   UNL     1     113.256 127.966 140.194  0.00  0.00    +0.000 C 
ENDBRANCH  33  35
ENDBRANCH  25  33
ENDBRANCH  21  29
ENDBRANCH   2  21
TORSDOF 6
ENDMDL
