MODEL 1
REMARK VINA RESULT:      -9.5      0.000      0.000
REMARK  Name = 131836732
REMARK  9 active torsions:
REMARK  status: ('A' for Active; 'I' for Inactive)
REMARK    1  A    between atoms: O_2  and  C_24
REMARK    2  A    between atoms: O_2  and  C_27
REMARK    3  A    between atoms: C_17  and  C_22
REMARK    4  A    between atoms: C_21  and  C_28
REMARK    5  A    between atoms: C_29  and  C_34
REMARK    6  A    between atoms: C_31  and  C_35
REMARK    7  A    between atoms: C_35  and  C_36
REMARK    8  A    between atoms: C_36  and  C_37
REMARK    9  A    between atoms: C_37  and  C_38
REMARK                            x       y       z     vdW  Elec       q    Type
REMARK                         _______ _______ _______ _____ _____    ______ ____
ROOT
ATOM      1  O   UNL     1     111.063 129.513 134.612  0.00  0.00    +0.000 OA
ATOM      2  O   UNL     1     113.361 128.211 135.704  0.00  0.00    +0.000 OA
ATOM      3  C   UNL     1     110.999 128.919 135.911  0.00  0.00    +0.000 A 
ATOM      4  C   UNL     1     111.360 128.505 136.525  0.00  0.00    +0.000 A 
ATOM      5  C   UNL     1     111.425 129.098 135.228  0.00  0.00    +0.000 A 
ATOM      6  C   UNL     1     112.148 128.269 136.457  0.00  0.00    +0.000 A 
ATOM      7  C   UNL     1     112.212 128.862 135.158  0.00  0.00    +0.000 A 
ATOM      8  C   UNL     1     112.574 128.447 135.774  0.00  0.00    +0.000 A 
ENDROOT
BRANCH   3  13
ATOM      9  O   UNL     1     110.030 129.928 136.204  0.00  0.00    +0.000 OA
ATOM     10  O   UNL     1     109.786 127.845 135.598  0.00  0.00    +0.000 OA
ATOM     11  O   UNL     1     108.211 128.317 135.734  0.00  0.00    +0.000 OA
ATOM     12  O   UNL     1     107.848 129.863 136.183  0.00  0.00    +0.000 OA
ATOM     13  C   UNL     1     110.211 129.156 135.979  0.00  0.00    +0.000 C 
ATOM     14  C   UNL     1     109.605 128.619 135.823  0.00  0.00    +0.000 C 
ATOM     15  C   UNL     1     108.817 128.854 135.890  0.00  0.00    +0.000 C 
ATOM     16  C   UNL     1     108.636 129.627 136.115  0.00  0.00    +0.000 C 
ATOM     17  C   UNL     1     109.242 130.165 136.272  0.00  0.00    +0.000 C 
BRANCH  17  19
ATOM     18  O   UNL     1     109.482 131.570 136.176  0.00  0.00    +0.000 OA
ATOM     19  C   UNL     1     109.061 130.937 136.496  0.00  0.00    +0.000 C 
ENDBRANCH  17  19
ENDBRANCH   3  13
BRANCH   6  21
ATOM     20  O   UNL     1     112.871 127.439 137.687  0.00  0.00    +0.000 OA
ATOM     21  C   UNL     1     112.509 127.854 137.071  0.00  0.00    +0.000 C 
BRANCH  21  22
ATOM     22  C   UNL     1     112.908 127.149 136.915  0.00  0.00    +0.000 C 
BRANCH  22  23
ATOM     23  C   UNL     1     113.088 126.632 137.533  0.00  0.00    +0.000 C 
BRANCH  23  25
ATOM     24  O   UNL     1     112.651 123.892 136.848  0.00  0.00    +0.000 OA
ATOM     25  C   UNL     1     113.385 125.880 137.369  0.00  0.00    +0.000 A 
ATOM     26  C   UNL     1     112.869 125.262 137.190  0.00  0.00    +0.000 A 
ATOM     27  C   UNL     1     114.200 125.747 137.384  0.00  0.00    +0.000 A 
ATOM     28  C   UNL     1     113.168 124.510 137.027  0.00  0.00    +0.000 A 
ATOM     29  C   UNL     1     114.497 124.995 137.220  0.00  0.00    +0.000 A 
ATOM     30  C   UNL     1     113.981 124.377 137.041  0.00  0.00    +0.000 A 
ENDBRANCH  23  25
ENDBRANCH  22  23
ENDBRANCH  21  22
ENDBRANCH   6  21
BRANCH   4  31
ATOM     31  O   UNL     1     110.934 128.326 137.209  0.00  0.00    +0.000 OA
BRANCH  31  37
ATOM     32  O   UNL     1     111.540 129.432 137.882  0.00  0.00    +0.000 OA
ATOM     33  O   UNL     1     110.231 127.850 138.623  0.00  0.00    +0.000 OA
ATOM     34  O   UNL     1     110.484 128.718 140.004  0.00  0.00    +0.000 OA
ATOM     35  O   UNL     1     111.441 130.061 139.970  0.00  0.00    +0.000 OA
ATOM     36  C   UNL     1     110.709 128.522 138.607  0.00  0.00    +0.000 C 
ATOM     37  C   UNL     1     111.061 128.760 137.900  0.00  0.00    +0.000 C 
ATOM     38  C   UNL     1     110.836 128.956 139.297  0.00  0.00    +0.000 C 
ATOM     39  C   UNL     1     111.315 129.628 139.280  0.00  0.00    +0.000 C 
ATOM     40  C   UNL     1     111.666 129.866 138.573  0.00  0.00    +0.000 C 
BRANCH  40  43
ATOM     41  O   UNL     1     112.949 130.476 138.734  0.00  0.00    +0.000 OA
ATOM     42  O   UNL     1     111.821 131.271 138.359  0.00  0.00    +0.000 OA
ATOM     43  C   UNL     1     112.145 130.537 138.555  0.00  0.00    +0.000 C 
ENDBRANCH  40  43
ENDBRANCH  31  37
ENDBRANCH   4  31
TORSDOF 9
ENDMDL
MODEL 2
REMARK VINA RESULT:      -9.2      1.045      2.158
REMARK  Name = 131836732
REMARK  9 active torsions:
REMARK  status: ('A' for Active; 'I' for Inactive)
REMARK    1  A    between atoms: O_2  and  C_24
REMARK    2  A    between atoms: O_2  and  C_27
REMARK    3  A    between atoms: C_17  and  C_22
REMARK    4  A    between atoms: C_21  and  C_28
REMARK    5  A    between atoms: C_29  and  C_34
REMARK    6  A    between atoms: C_31  and  C_35
REMARK    7  A    between atoms: C_35  and  C_36
REMARK    8  A    between atoms: C_36  and  C_37
REMARK    9  A    between atoms: C_37  and  C_38
REMARK                            x       y       z     vdW  Elec       q    Type
REMARK                         _______ _______ _______ _____ _____    ______ ____
ROOT
ATOM      1  O   UNL     1     109.180 127.973 138.651  0.00  0.00    +0.000 OA
ATOM      2  O   UNL     1     111.786 126.973 139.265  0.00  0.00    +0.000 OA
ATOM      3  C   UNL     1     110.272 128.228 137.763  0.00  0.00    +0.000 A 
ATOM      4  C   UNL     1     111.069 128.146 137.570  0.00  0.00    +0.000 A 
ATOM      5  C   UNL     1     109.979 127.892 138.457  0.00  0.00    +0.000 A 
ATOM      6  C   UNL     1     111.574 127.728 138.071  0.00  0.00    +0.000 A 
ATOM      7  C   UNL     1     110.483 127.473 138.958  0.00  0.00    +0.000 A 
ATOM      8  C   UNL     1     111.282 127.392 138.764  0.00  0.00    +0.000 A 
ENDROOT
BRANCH   3  13
ATOM      9  O   UNL     1     109.589 129.436 137.421  0.00  0.00    +0.000 OA
ATOM     10  O   UNL     1     109.615 127.484 136.446  0.00  0.00    +0.000 OA
ATOM     11  O   UNL     1     108.603 128.319 135.445  0.00  0.00    +0.000 OA
ATOM     12  O   UNL     1     108.249 129.899 135.761  0.00  0.00    +0.000 OA
ATOM     13  C   UNL     1     109.766 128.647 137.263  0.00  0.00    +0.000 C 
ATOM     14  C   UNL     1     109.437 128.274 136.604  0.00  0.00    +0.000 C 
ATOM     15  C   UNL     1     108.932 128.691 136.104  0.00  0.00    +0.000 C 
ATOM     16  C   UNL     1     108.755 129.482 136.262  0.00  0.00    +0.000 C 
ATOM     17  C   UNL     1     109.083 129.854 136.921  0.00  0.00    +0.000 C 
BRANCH  17  19
ATOM     18  O   UNL     1     108.574 130.856 137.804  0.00  0.00    +0.000 OA
ATOM     19  C   UNL     1     108.906 130.644 137.079  0.00  0.00    +0.000 C 
ENDBRANCH  17  19
ENDBRANCH   3  13
BRANCH   6  21
ATOM     20  O   UNL     1     113.170 127.565 137.684  0.00  0.00    +0.000 OA
ATOM     21  C   UNL     1     112.372 127.646 137.877  0.00  0.00    +0.000 C 
BRANCH  21  22
ATOM     22  C   UNL     1     112.723 126.900 137.879  0.00  0.00    +0.000 C 
BRANCH  22  23
ATOM     23  C   UNL     1     113.420 126.772 137.457  0.00  0.00    +0.000 C 
BRANCH  23  25
ATOM     24  O   UNL     1     113.366 124.249 136.115  0.00  0.00    +0.000 OA
ATOM     25  C   UNL     1     113.712 126.006 137.363  0.00  0.00    +0.000 A 
ATOM     26  C   UNL     1     113.393 125.510 136.785  0.00  0.00    +0.000 A 
ATOM     27  C   UNL     1     114.323 125.735 137.848  0.00  0.00    +0.000 A 
ATOM     28  C   UNL     1     113.685 124.744 136.693  0.00  0.00    +0.000 A 
ATOM     29  C   UNL     1     114.614 124.969 137.754  0.00  0.00    +0.000 A 
ATOM     30  C   UNL     1     114.295 124.474 137.176  0.00  0.00    +0.000 A 
ENDBRANCH  23  25
ENDBRANCH  22  23
ENDBRANCH  21  22
ENDBRANCH   6  21
BRANCH   4  31
ATOM     31  O   UNL     1     111.362 128.483 136.876  0.00  0.00    +0.000 OA
BRANCH  31  37
ATOM     32  O   UNL     1     111.863 129.598 137.617  0.00  0.00    +0.000 OA
ATOM     33  O   UNL     1     112.156 129.018 135.533  0.00  0.00    +0.000 OA
ATOM     34  O   UNL     1     113.054 130.401 135.602  0.00  0.00    +0.000 OA
ATOM     35  O   UNL     1     113.158 131.248 137.014  0.00  0.00    +0.000 OA
ATOM     36  C   UNL     1     112.208 129.443 136.239  0.00  0.00    +0.000 C 
ATOM     37  C   UNL     1     111.811 129.175 136.911  0.00  0.00    +0.000 C 
ATOM     38  C   UNL     1     112.657 130.133 136.273  0.00  0.00    +0.000 C 
ATOM     39  C   UNL     1     112.709 130.557 136.979  0.00  0.00    +0.000 C 
ATOM     40  C   UNL     1     112.312 130.290 137.651  0.00  0.00    +0.000 C 
BRANCH  40  43
ATOM     41  O   UNL     1     112.991 130.574 138.876  0.00  0.00    +0.000 OA
ATOM     42  O   UNL     1     111.789 131.274 138.546  0.00  0.00    +0.000 OA
ATOM     43  C   UNL     1     112.364 130.713 138.357  0.00  0.00    +0.000 C 
ENDBRANCH  40  43
ENDBRANCH  31  37
ENDBRANCH   4  31
TORSDOF 9
ENDMDL
MODEL 3
REMARK VINA RESULT:      -9.2      1.198      2.821
REMARK  Name = 131836732
REMARK  9 active torsions:
REMARK  status: ('A' for Active; 'I' for Inactive)
REMARK    1  A    between atoms: O_2  and  C_24
REMARK    2  A    between atoms: O_2  and  C_27
REMARK    3  A    between atoms: C_17  and  C_22
REMARK    4  A    between atoms: C_21  and  C_28
REMARK    5  A    between atoms: C_29  and  C_34
REMARK    6  A    between atoms: C_31  and  C_35
REMARK    7  A    between atoms: C_35  and  C_36
REMARK    8  A    between atoms: C_36  and  C_37
REMARK    9  A    between atoms: C_37  and  C_38
REMARK                            x       y       z     vdW  Elec       q    Type
REMARK                         _______ _______ _______ _____ _____    ______ ____
ROOT
ATOM      1  O   UNL     1     113.032 131.155 136.734  0.00  0.00    +0.000 OA
ATOM      2  O   UNL     1     113.701 128.628 135.578  0.00  0.00    +0.000 OA
ATOM      3  C   UNL     1     112.313 129.980 137.117  0.00  0.00    +0.000 A 
ATOM      4  C   UNL     1     112.185 129.168 137.052  0.00  0.00    +0.000 A 
ATOM      5  C   UNL     1     112.903 130.342 136.669  0.00  0.00    +0.000 A 
ATOM      6  C   UNL     1     112.647 128.717 136.539  0.00  0.00    +0.000 A 
ATOM      7  C   UNL     1     113.366 129.891 136.156  0.00  0.00    +0.000 A 
ATOM      8  C   UNL     1     113.238 129.078 136.091  0.00  0.00    +0.000 A 
ENDROOT
BRANCH   3  13
ATOM      9  O   UNL     1     111.203 130.852 137.341  0.00  0.00    +0.000 OA
ATOM     10  O   UNL     1     112.684 130.042 138.724  0.00  0.00    +0.000 OA
ATOM     11  O   UNL     1     111.761 130.944 139.750  0.00  0.00    +0.000 OA
ATOM     12  O   UNL     1     110.465 131.786 139.171  0.00  0.00    +0.000 OA
ATOM     13  C   UNL     1     111.850 130.432 137.630  0.00  0.00    +0.000 C 
ATOM     14  C   UNL     1     112.036 130.463 138.433  0.00  0.00    +0.000 C 
ATOM     15  C   UNL     1     111.575 130.914 138.947  0.00  0.00    +0.000 C 
ATOM     16  C   UNL     1     110.926 131.335 138.657  0.00  0.00    +0.000 C 
ATOM     17  C   UNL     1     110.740 131.304 137.854  0.00  0.00    +0.000 C 
BRANCH  17  19
ATOM     18  O   UNL     1     110.156 132.144 136.857  0.00  0.00    +0.000 OA
ATOM     19  C   UNL     1     110.093 131.724 137.564  0.00  0.00    +0.000 C 
ENDBRANCH  17  19
ENDBRANCH   3  13
BRANCH   6  21
ATOM     20  O   UNL     1     112.390 127.092 136.410  0.00  0.00    +0.000 OA
ATOM     21  C   UNL     1     112.519 127.905 136.475  0.00  0.00    +0.000 C 
BRANCH  21  22
ATOM     22  C   UNL     1     113.140 127.377 136.604  0.00  0.00    +0.000 C 
BRANCH  22  23
ATOM     23  C   UNL     1     112.991 126.566 136.633  0.00  0.00    +0.000 C 
BRANCH  23  25
ATOM     24  O   UNL     1     115.154 124.799 136.028  0.00  0.00    +0.000 OA
ATOM     25  C   UNL     1     113.582 126.047 136.884  0.00  0.00    +0.000 A 
ATOM     26  C   UNL     1     114.073 125.682 136.330  0.00  0.00    +0.000 A 
ATOM     27  C   UNL     1     113.680 125.892 137.689  0.00  0.00    +0.000 A 
ATOM     28  C   UNL     1     114.663 125.163 136.582  0.00  0.00    +0.000 A 
ATOM     29  C   UNL     1     114.270 125.373 137.939  0.00  0.00    +0.000 A 
ATOM     30  C   UNL     1     114.762 125.008 137.385  0.00  0.00    +0.000 A 
ENDBRANCH  23  25
ENDBRANCH  22  23
ENDBRANCH  21  22
ENDBRANCH   6  21
BRANCH   4  31
ATOM     31  O   UNL     1     111.594 128.807 137.501  0.00  0.00    +0.000 OA
BRANCH  31  37
ATOM     32  O   UNL     1     110.720 128.820 136.370  0.00  0.00    +0.000 OA
ATOM     33  O   UNL     1     110.489 127.917 138.344  0.00  0.00    +0.000 OA
ATOM     34  O   UNL     1     109.064 127.485 137.634  0.00  0.00    +0.000 OA
ATOM     35  O   UNL     1     108.742 127.942 136.082  0.00  0.00    +0.000 OA
ATOM     36  C   UNL     1     110.328 128.146 137.567  0.00  0.00    +0.000 C 
ATOM     37  C   UNL     1     110.880 128.591 137.146  0.00  0.00    +0.000 C 
ATOM     38  C   UNL     1     109.616 127.930 137.213  0.00  0.00    +0.000 C 
ATOM     39  C   UNL     1     109.455 128.158 136.437  0.00  0.00    +0.000 C 
ATOM     40  C   UNL     1     110.007 128.603 136.015  0.00  0.00    +0.000 C 
BRANCH  40  43
ATOM     41  O   UNL     1     109.491 129.563 135.090  0.00  0.00    +0.000 OA
ATOM     42  O   UNL     1     110.041 128.332 134.612  0.00  0.00    +0.000 OA
ATOM     43  C   UNL     1     109.847 128.832 135.239  0.00  0.00    +0.000 C 
ENDBRANCH  40  43
ENDBRANCH  31  37
ENDBRANCH   4  31
TORSDOF 9
ENDMDL
MODEL 4
REMARK VINA RESULT:      -9.0      2.518      4.022
REMARK  Name = 131836732
REMARK  9 active torsions:
REMARK  status: ('A' for Active; 'I' for Inactive)
REMARK    1  A    between atoms: O_2  and  C_24
REMARK    2  A    between atoms: O_2  and  C_27
REMARK    3  A    between atoms: C_17  and  C_22
REMARK    4  A    between atoms: C_21  and  C_28
REMARK    5  A    between atoms: C_29  and  C_34
REMARK    6  A    between atoms: C_31  and  C_35
REMARK    7  A    between atoms: C_35  and  C_36
REMARK    8  A    between atoms: C_36  and  C_37
REMARK    9  A    between atoms: C_37  and  C_38
REMARK                            x       y       z     vdW  Elec       q    Type
REMARK                         _______ _______ _______ _____ _____    ______ ____
ROOT
ATOM      1  O   UNL     1     113.600 129.406 141.095  0.00  0.00    +0.000 OA
ATOM      2  O   UNL     1     114.251 126.741 140.294  0.00  0.00    +0.000 OA
ATOM      3  C   UNL     1     112.770 128.719 140.155  0.00  0.00    +0.000 A 
ATOM      4  C   UNL     1     112.602 128.047 139.709  0.00  0.00    +0.000 A 
ATOM      5  C   UNL     1     113.431 128.733 140.648  0.00  0.00    +0.000 A 
ATOM      6  C   UNL     1     113.095 127.387 139.754  0.00  0.00    +0.000 A 
ATOM      7  C   UNL     1     113.925 128.074 140.695  0.00  0.00    +0.000 A 
ATOM      8  C   UNL     1     113.757 127.400 140.247  0.00  0.00    +0.000 A 
ENDROOT
BRANCH   3  13
ATOM      9  O   UNL     1     111.696 129.502 140.682  0.00  0.00    +0.000 OA
ATOM     10  O   UNL     1     112.946 129.796 138.917  0.00  0.00    +0.000 OA
ATOM     11  O   UNL     1     111.960 131.116 138.825  0.00  0.00    +0.000 OA
ATOM     12  O   UNL     1     110.799 131.360 139.971  0.00  0.00    +0.000 OA
ATOM     13  C   UNL     1     112.277 129.379 140.110  0.00  0.00    +0.000 C 
ATOM     14  C   UNL     1     112.365 129.918 139.491  0.00  0.00    +0.000 C 
ATOM     15  C   UNL     1     111.872 130.578 139.444  0.00  0.00    +0.000 C 
ATOM     16  C   UNL     1     111.291 130.700 140.018  0.00  0.00    +0.000 C 
ATOM     17  C   UNL     1     111.203 130.162 140.637  0.00  0.00    +0.000 C 
BRANCH  17  19
ATOM     18  O   UNL     1     110.795 130.158 142.007  0.00  0.00    +0.000 OA
ATOM     19  C   UNL     1     110.623 130.284 141.210  0.00  0.00    +0.000 C 
ENDBRANCH  17  19
ENDBRANCH   3  13
BRANCH   6  21
ATOM     20  O   UNL     1     112.759 126.041 138.861  0.00  0.00    +0.000 OA
ATOM     21  C   UNL     1     112.928 126.715 139.308  0.00  0.00    +0.000 C 
BRANCH  21  22
ATOM     22  C   UNL     1     113.506 126.389 138.817  0.00  0.00    +0.000 C 
BRANCH  22  23
ATOM     23  C   UNL     1     113.290 125.865 138.218  0.00  0.00    +0.000 C 
BRANCH  23  25
ATOM     24  O   UNL     1     114.701 126.428 135.797  0.00  0.00    +0.000 OA
ATOM     25  C   UNL     1     113.840 125.645 137.644  0.00  0.00    +0.000 A 
ATOM     26  C   UNL     1     113.995 126.147 137.008  0.00  0.00    +0.000 A 
ATOM     27  C   UNL     1     114.234 124.922 137.706  0.00  0.00    +0.000 A 
ATOM     28  C   UNL     1     114.545 125.926 136.434  0.00  0.00    +0.000 A 
ATOM     29  C   UNL     1     114.784 124.703 137.131  0.00  0.00    +0.000 A 
ATOM     30  C   UNL     1     114.940 125.205 136.495  0.00  0.00    +0.000 A 
ENDBRANCH  23  25
ENDBRANCH  22  23
ENDBRANCH  21  22
ENDBRANCH   6  21
BRANCH   4  31
ATOM     31  O   UNL     1     111.941 128.034 139.216  0.00  0.00    +0.000 OA
BRANCH  31  37
ATOM     32  O   UNL     1     111.213 127.300 140.203  0.00  0.00    +0.000 OA
ATOM     33  O   UNL     1     110.690 127.848 138.156  0.00  0.00    +0.000 OA
ATOM     34  O   UNL     1     109.337 127.020 138.613  0.00  0.00    +0.000 OA
ATOM     35  O   UNL     1     109.235 126.379 140.130  0.00  0.00    +0.000 OA
ATOM     36  C   UNL     1     110.638 127.527 138.915  0.00  0.00    +0.000 C 
ATOM     37  C   UNL     1     111.264 127.620 139.445  0.00  0.00    +0.000 C 
ATOM     38  C   UNL     1     109.963 127.113 139.143  0.00  0.00    +0.000 C 
ATOM     39  C   UNL     1     109.911 126.793 139.902  0.00  0.00    +0.000 C 
ATOM     40  C   UNL     1     110.536 126.886 140.432  0.00  0.00    +0.000 C 
BRANCH  40  43
ATOM     41  O   UNL     1     110.183 127.019 141.810  0.00  0.00    +0.000 OA
ATOM     42  O   UNL     1     110.738 125.792 141.329  0.00  0.00    +0.000 OA
ATOM     43  C   UNL     1     110.486 126.565 141.190  0.00  0.00    +0.000 C 
ENDBRANCH  40  43
ENDBRANCH  31  37
ENDBRANCH   4  31
TORSDOF 9
ENDMDL
MODEL 5
REMARK VINA RESULT:      -8.9      1.285      3.508
REMARK  Name = 131836732
REMARK  9 active torsions:
REMARK  status: ('A' for Active; 'I' for Inactive)
REMARK    1  A    between atoms: O_2  and  C_24
REMARK    2  A    between atoms: O_2  and  C_27
REMARK    3  A    between atoms: C_17  and  C_22
REMARK    4  A    between atoms: C_21  and  C_28
REMARK    5  A    between atoms: C_29  and  C_34
REMARK    6  A    between atoms: C_31  and  C_35
REMARK    7  A    between atoms: C_35  and  C_36
REMARK    8  A    between atoms: C_36  and  C_37
REMARK    9  A    between atoms: C_37  and  C_38
REMARK                            x       y       z     vdW  Elec       q    Type
REMARK                         _______ _______ _______ _____ _____    ______ ____
ROOT
ATOM      1  O   UNL     1     109.758 128.294 139.915  0.00  0.00    +0.000 OA
ATOM      2  O   UNL     1     110.249 125.972 138.322  0.00  0.00    +0.000 OA
ATOM      3  C   UNL     1     110.430 128.417 138.660  0.00  0.00    +0.000 A 
ATOM      4  C   UNL     1     110.736 128.071 137.976  0.00  0.00    +0.000 A 
ATOM      5  C   UNL     1     110.064 127.948 139.231  0.00  0.00    +0.000 A 
ATOM      6  C   UNL     1     110.676 127.256 137.863  0.00  0.00    +0.000 A 
ATOM      7  C   UNL     1     110.004 127.133 139.119  0.00  0.00    +0.000 A 
ATOM      8  C   UNL     1     110.310 126.787 138.434  0.00  0.00    +0.000 A 
ENDROOT
BRANCH   3  13
ATOM      9  O   UNL     1     109.854 129.723 138.589  0.00  0.00    +0.000 OA
ATOM     10  O   UNL     1     111.826 129.066 139.254  0.00  0.00    +0.000 OA
ATOM     11  O   UNL     1     111.948 130.696 139.481  0.00  0.00    +0.000 OA
ATOM     12  O   UNL     1     110.673 131.677 139.113  0.00  0.00    +0.000 OA
ATOM     13  C   UNL     1     110.490 129.232 138.773  0.00  0.00    +0.000 C 
ATOM     14  C   UNL     1     111.188 129.557 139.070  0.00  0.00    +0.000 C 
ATOM     15  C   UNL     1     111.250 130.371 139.184  0.00  0.00    +0.000 C 
ATOM     16  C   UNL     1     110.612 130.862 139.000  0.00  0.00    +0.000 C 
ATOM     17  C   UNL     1     109.914 130.538 138.702  0.00  0.00    +0.000 C 
BRANCH  17  19
ATOM     18  O   UNL     1     108.508 130.795 138.706  0.00  0.00    +0.000 OA
ATOM     19  C   UNL     1     109.277 131.028 138.519  0.00  0.00    +0.000 C 
ENDBRANCH  17  19
ENDBRANCH   3  13
BRANCH   6  21
ATOM     20  O   UNL     1     111.287 126.565 136.496  0.00  0.00    +0.000 OA
ATOM     21  C   UNL     1     110.982 126.911 137.180  0.00  0.00    +0.000 C 
BRANCH  21  22
ATOM     22  C   UNL     1     111.510 126.280 137.237  0.00  0.00    +0.000 C 
BRANCH  22  23
ATOM     23  C   UNL     1     111.902 126.008 136.563  0.00  0.00    +0.000 C 
BRANCH  23  25
ATOM     24  O   UNL     1     114.681 125.436 136.908  0.00  0.00    +0.000 OA
ATOM     25  C   UNL     1     112.516 125.462 136.635  0.00  0.00    +0.000 A 
ATOM     26  C   UNL     1     113.292 125.723 136.736  0.00  0.00    +0.000 A 
ATOM     27  C   UNL     1     112.352 124.653 136.604  0.00  0.00    +0.000 A 
ATOM     28  C   UNL     1     113.905 125.175 136.807  0.00  0.00    +0.000 A 
ATOM     29  C   UNL     1     112.966 124.106 136.675  0.00  0.00    +0.000 A 
ATOM     30  C   UNL     1     113.742 124.367 136.777  0.00  0.00    +0.000 A 
ENDBRANCH  23  25
ENDBRANCH  22  23
ENDBRANCH  21  22
ENDBRANCH   6  21
BRANCH   4  31
ATOM     31  O   UNL     1     111.102 128.541 137.405  0.00  0.00    +0.000 OA
BRANCH  31  37
ATOM     32  O   UNL     1     109.907 128.533 136.623  0.00  0.00    +0.000 OA
ATOM     33  O   UNL     1     111.901 129.301 136.178  0.00  0.00    +0.000 OA
ATOM     34  O   UNL     1     111.104 129.673 134.781  0.00  0.00    +0.000 OA
ATOM     35  O   UNL     1     109.509 129.285 134.612  0.00  0.00    +0.000 OA
ATOM     36  C   UNL     1     111.103 129.107 136.093  0.00  0.00    +0.000 C 
ATOM     37  C   UNL     1     110.704 128.727 136.706  0.00  0.00    +0.000 C 
ATOM     38  C   UNL     1     110.705 129.293 135.395  0.00  0.00    +0.000 C 
ATOM     39  C   UNL     1     109.907 129.099 135.310  0.00  0.00    +0.000 C 
ATOM     40  C   UNL     1     109.508 128.719 135.924  0.00  0.00    +0.000 C 
BRANCH  40  43
ATOM     41  O   UNL     1     108.130 129.087 136.008  0.00  0.00    +0.000 OA
ATOM     42  O   UNL     1     108.494 127.769 135.589  0.00  0.00    +0.000 OA
ATOM     43  C   UNL     1     108.711 128.525 135.840  0.00  0.00    +0.000 C 
ENDBRANCH  40  43
ENDBRANCH  31  37
ENDBRANCH   4  31
TORSDOF 9
ENDMDL
MODEL 6
REMARK VINA RESULT:      -8.9      1.399      3.208
REMARK  Name = 131836732
REMARK  9 active torsions:
REMARK  status: ('A' for Active; 'I' for Inactive)
REMARK    1  A    between atoms: O_2  and  C_24
REMARK    2  A    between atoms: O_2  and  C_27
REMARK    3  A    between atoms: C_17  and  C_22
REMARK    4  A    between atoms: C_21  and  C_28
REMARK    5  A    between atoms: C_29  and  C_34
REMARK    6  A    between atoms: C_31  and  C_35
REMARK    7  A    between atoms: C_35  and  C_36
REMARK    8  A    between atoms: C_36  and  C_37
REMARK    9  A    between atoms: C_37  and  C_38
REMARK                            x       y       z     vdW  Elec       q    Type
REMARK                         _______ _______ _______ _____ _____    ______ ____
ROOT
ATOM      1  O   UNL     1     113.127 130.345 139.471  0.00  0.00    +0.000 OA
ATOM      2  O   UNL     1     113.262 127.490 139.490  0.00  0.00    +0.000 OA
ATOM      3  C   UNL     1     112.628 129.598 138.359  0.00  0.00    +0.000 A 
ATOM      4  C   UNL     1     112.485 128.874 137.992  0.00  0.00    +0.000 A 
ATOM      5  C   UNL     1     112.983 129.620 139.104  0.00  0.00    +0.000 A 
ATOM      6  C   UNL     1     112.696 128.171 138.368  0.00  0.00    +0.000 A 
ATOM      7  C   UNL     1     113.195 128.917 139.481  0.00  0.00    +0.000 A 
ATOM      8  C   UNL     1     113.051 128.192 139.113  0.00  0.00    +0.000 A 
ENDROOT
BRANCH   3  13
ATOM      9  O   UNL     1     111.700 130.666 138.161  0.00  0.00    +0.000 OA
ATOM     10  O   UNL     1     113.644 130.275 137.249  0.00  0.00    +0.000 OA
ATOM     11  O   UNL     1     113.223 131.681 136.495  0.00  0.00    +0.000 OA
ATOM     12  O   UNL     1     111.786 132.411 136.852  0.00  0.00    +0.000 OA
ATOM     13  C   UNL     1     112.417 130.301 137.983  0.00  0.00    +0.000 C 
ATOM     14  C   UNL     1     112.925 130.640 137.427  0.00  0.00    +0.000 C 
ATOM     15  C   UNL     1     112.715 131.343 137.051  0.00  0.00    +0.000 C 
ATOM     16  C   UNL     1     111.996 131.708 137.229  0.00  0.00    +0.000 C 
ATOM     17  C   UNL     1     111.489 131.369 137.785  0.00  0.00    +0.000 C 
BRANCH  17  19
ATOM     18  O   UNL     1     110.580 131.910 138.746  0.00  0.00    +0.000 OA
ATOM     19  C   UNL     1     110.771 131.734 137.963  0.00  0.00    +0.000 C 
ENDBRANCH  17  19
ENDBRANCH   3  13
BRANCH   6  21
ATOM     20  O   UNL     1     112.408 126.721 137.634  0.00  0.00    +0.000 OA
ATOM     21  C   UNL     1     112.552 127.447 138.001  0.00  0.00    +0.000 C 
BRANCH  21  22
ATOM     22  C   UNL     1     113.168 126.907 137.896  0.00  0.00    +0.000 C 
BRANCH  22  23
ATOM     23  C   UNL     1     113.065 126.257 137.399  0.00  0.00    +0.000 C 
BRANCH  23  25
ATOM     24  O   UNL     1     115.298 125.654 135.720  0.00  0.00    +0.000 OA
ATOM     25  C   UNL     1     113.708 125.776 137.210  0.00  0.00    +0.000 A 
ATOM     26  C   UNL     1     114.181 125.956 136.559  0.00  0.00    +0.000 A 
ATOM     27  C   UNL     1     113.877 125.113 137.673  0.00  0.00    +0.000 A 
ATOM     28  C   UNL     1     114.824 125.474 136.371  0.00  0.00    +0.000 A 
ATOM     29  C   UNL     1     114.520 124.632 137.484  0.00  0.00    +0.000 A 
ATOM     30  C   UNL     1     114.993 124.812 136.833  0.00  0.00    +0.000 A 
ENDBRANCH  23  25
ENDBRANCH  22  23
ENDBRANCH  21  22
ENDBRANCH   6  21
BRANCH   4  31
ATOM     31  O   UNL     1     112.130 128.852 137.248  0.00  0.00    +0.000 OA
BRANCH  31  37
ATOM     32  O   UNL     1     110.871 128.546 137.851  0.00  0.00    +0.000 OA
ATOM     33  O   UNL     1     111.466 128.633 135.753  0.00  0.00    +0.000 OA
ATOM     34  O   UNL     1     109.876 128.216 135.609  0.00  0.00    +0.000 OA
ATOM     35  O   UNL     1     108.949 128.019 136.960  0.00  0.00    +0.000 OA
ATOM     36  C   UNL     1     111.002 128.534 136.428  0.00  0.00    +0.000 C 
ATOM     37  C   UNL     1     111.334 128.644 137.176  0.00  0.00    +0.000 C 
ATOM     38  C   UNL     1     110.208 128.326 136.357  0.00  0.00    +0.000 C 
ATOM     39  C   UNL     1     109.744 128.227 137.032  0.00  0.00    +0.000 C 
ATOM     40  C   UNL     1     110.076 128.337 137.779  0.00  0.00    +0.000 C 
BRANCH  40  43
ATOM     41  O   UNL     1     109.264 128.895 138.815  0.00  0.00    +0.000 OA
ATOM     42  O   UNL     1     109.498 127.486 138.771  0.00  0.00    +0.000 OA
ATOM     43  C   UNL     1     109.613 128.239 138.455  0.00  0.00    +0.000 C 
ENDBRANCH  40  43
ENDBRANCH  31  37
ENDBRANCH   4  31
TORSDOF 9
ENDMDL
MODEL 7
REMARK VINA RESULT:      -8.9      1.918      4.385
REMARK  Name = 131836732
REMARK  9 active torsions:
REMARK  status: ('A' for Active; 'I' for Inactive)
REMARK    1  A    between atoms: O_2  and  C_24
REMARK    2  A    between atoms: O_2  and  C_27
REMARK    3  A    between atoms: C_17  and  C_22
REMARK    4  A    between atoms: C_21  and  C_28
REMARK    5  A    between atoms: C_29  and  C_34
REMARK    6  A    between atoms: C_31  and  C_35
REMARK    7  A    between atoms: C_35  and  C_36
REMARK    8  A    between atoms: C_36  and  C_37
REMARK    9  A    between atoms: C_37  and  C_38
REMARK                            x       y       z     vdW  Elec       q    Type
REMARK                         _______ _______ _______ _____ _____    ______ ____
ROOT
ATOM      1  O   UNL     1     112.562 127.808 142.037  0.00  0.00    +0.000 OA
ATOM      2  O   UNL     1     111.997 125.883 140.001  0.00  0.00    +0.000 OA
ATOM      3  C   UNL     1     112.633 128.183 140.659  0.00  0.00    +0.000 A 
ATOM      4  C   UNL     1     112.563 127.987 139.861  0.00  0.00    +0.000 A 
ATOM      5  C   UNL     1     112.492 127.612 141.238  0.00  0.00    +0.000 A 
ATOM      6  C   UNL     1     112.351 127.220 139.641  0.00  0.00    +0.000 A 
ATOM      7  C   UNL     1     112.280 126.846 141.019  0.00  0.00    +0.000 A 
ATOM      8  C   UNL     1     112.209 126.650 140.220  0.00  0.00    +0.000 A 
ENDROOT
BRANCH   3  13
ATOM      9  O   UNL     1     112.266 129.488 141.109  0.00  0.00    +0.000 OA
ATOM     10  O   UNL     1     114.220 128.636 140.639  0.00  0.00    +0.000 OA
ATOM     11  O   UNL     1     114.645 130.169 141.080  0.00  0.00    +0.000 OA
ATOM     12  O   UNL     1     113.484 131.247 141.539  0.00  0.00    +0.000 OA
ATOM     13  C   UNL     1     112.845 128.949 140.879  0.00  0.00    +0.000 C 
ATOM     14  C   UNL     1     113.639 129.176 140.869  0.00  0.00    +0.000 C 
ATOM     15  C   UNL     1     113.852 129.942 141.089  0.00  0.00    +0.000 C 
ATOM     16  C   UNL     1     113.271 130.481 141.319  0.00  0.00    +0.000 C 
ATOM     17  C   UNL     1     112.478 130.255 141.329  0.00  0.00    +0.000 C 
BRANCH  17  19
ATOM     18  O   UNL     1     111.273 130.549 142.039  0.00  0.00    +0.000 OA
ATOM     19  C   UNL     1     111.898 130.794 141.559  0.00  0.00    +0.000 C 
ENDBRANCH  17  19
ENDBRANCH   3  13
BRANCH   6  21
ATOM     20  O   UNL     1     112.210 126.829 138.044  0.00  0.00    +0.000 OA
ATOM     21  C   UNL     1     112.281 127.025 138.843  0.00  0.00    +0.000 C 
BRANCH  21  22
ATOM     22  C   UNL     1     112.680 126.369 138.542  0.00  0.00    +0.000 C 
BRANCH  22  23
ATOM     23  C   UNL     1     112.769 126.279 137.726  0.00  0.00    +0.000 C 
BRANCH  23  25
ATOM     24  O   UNL     1     113.063 123.704 136.523  0.00  0.00    +0.000 OA
ATOM     25  C   UNL     1     113.252 125.681 137.427  0.00  0.00    +0.000 A 
ATOM     26  C   UNL     1     112.916 124.991 137.125  0.00  0.00    +0.000 A 
ATOM     27  C   UNL     1     114.072 125.774 137.429  0.00  0.00    +0.000 A 
ATOM     28  C   UNL     1     113.400 124.394 136.825  0.00  0.00    +0.000 A 
ATOM     29  C   UNL     1     114.555 125.176 137.129  0.00  0.00    +0.000 A 
ATOM     30  C   UNL     1     114.219 124.486 136.827  0.00  0.00    +0.000 A 
ENDBRANCH  23  25
ENDBRANCH  22  23
ENDBRANCH  21  22
ENDBRANCH   6  21
BRANCH   4  31
ATOM     31  O   UNL     1     112.705 128.557 139.282  0.00  0.00    +0.000 OA
BRANCH  31  37
ATOM     32  O   UNL     1     111.298 128.762 139.132  0.00  0.00    +0.000 OA
ATOM     33  O   UNL     1     112.987 129.560 138.002  0.00  0.00    +0.000 OA
ATOM     34  O   UNL     1     111.722 130.265 137.212  0.00  0.00    +0.000 OA
ATOM     35  O   UNL     1     110.174 129.968 137.702  0.00  0.00    +0.000 OA
ATOM     36  C   UNL     1     112.213 129.412 138.247  0.00  0.00    +0.000 C 
ATOM     37  C   UNL     1     112.072 128.910 138.887  0.00  0.00    +0.000 C 
ATOM     38  C   UNL     1     111.581 129.764 137.852  0.00  0.00    +0.000 C 
ATOM     39  C   UNL     1     110.807 129.616 138.096  0.00  0.00    +0.000 C 
ATOM     40  C   UNL     1     110.665 129.115 138.736  0.00  0.00    +0.000 C 
BRANCH  40  43
ATOM     41  O   UNL     1     109.552 129.427 139.576  0.00  0.00    +0.000 OA
ATOM     42  O   UNL     1     109.458 128.357 138.633  0.00  0.00    +0.000 OA
ATOM     43  C   UNL     1     109.892 128.966 138.982  0.00  0.00    +0.000 C 
ENDBRANCH  40  43
ENDBRANCH  31  37
ENDBRANCH   4  31
TORSDOF 9
ENDMDL
MODEL 8
REMARK VINA RESULT:      -8.9      1.236      2.957
REMARK  Name = 131836732
REMARK  9 active torsions:
REMARK  status: ('A' for Active; 'I' for Inactive)
REMARK    1  A    between atoms: O_2  and  C_24
REMARK    2  A    between atoms: O_2  and  C_27
REMARK    3  A    between atoms: C_17  and  C_22
REMARK    4  A    between atoms: C_21  and  C_28
REMARK    5  A    between atoms: C_29  and  C_34
REMARK    6  A    between atoms: C_31  and  C_35
REMARK    7  A    between atoms: C_35  and  C_36
REMARK    8  A    between atoms: C_36  and  C_37
REMARK    9  A    between atoms: C_37  and  C_38
REMARK                            x       y       z     vdW  Elec       q    Type
REMARK                         _______ _______ _______ _____ _____    ______ ____
ROOT
ATOM      1  O   UNL     1     111.842 129.818 139.487  0.00  0.00    +0.000 OA
ATOM      2  O   UNL     1     113.174 128.240 137.511  0.00  0.00    +0.000 OA
ATOM      3  C   UNL     1     111.084 128.987 138.606  0.00  0.00    +0.000 A 
ATOM      4  C   UNL     1     111.053 128.448 137.983  0.00  0.00    +0.000 A 
ATOM      5  C   UNL     1     111.811 129.277 138.864  0.00  0.00    +0.000 A 
ATOM      6  C   UNL     1     111.749 128.198 137.617  0.00  0.00    +0.000 A 
ATOM      7  C   UNL     1     112.508 129.029 138.499  0.00  0.00    +0.000 A 
ATOM      8  C   UNL     1     112.477 128.489 137.875  0.00  0.00    +0.000 A 
ENDROOT
BRANCH   3  13
ATOM      9  O   UNL     1     110.041 129.953 138.755  0.00  0.00    +0.000 OA
ATOM     10  O   UNL     1     110.383 128.050 139.770  0.00  0.00    +0.000 OA
ATOM     11  O   UNL     1     108.991 128.548 140.501  0.00  0.00    +0.000 OA
ATOM     12  O   UNL     1     108.298 129.982 140.069  0.00  0.00    +0.000 OA
ATOM     13  C   UNL     1     110.387 129.236 138.971  0.00  0.00    +0.000 C 
ATOM     14  C   UNL     1     110.037 128.768 139.553  0.00  0.00    +0.000 C 
ATOM     15  C   UNL     1     109.341 129.016 139.919  0.00  0.00    +0.000 C 
ATOM     16  C   UNL     1     108.995 129.734 139.703  0.00  0.00    +0.000 C 
ATOM     17  C   UNL     1     109.345 130.202 139.121  0.00  0.00    +0.000 C 
BRANCH  17  19
ATOM     18  O   UNL     1     109.457 131.604 138.867  0.00  0.00    +0.000 OA
ATOM     19  C   UNL     1     108.999 130.918 138.905  0.00  0.00    +0.000 C 
ENDBRANCH  17  19
ENDBRANCH   3  13
BRANCH   6  21
ATOM     20  O   UNL     1     111.687 127.119 136.370  0.00  0.00    +0.000 OA
ATOM     21  C   UNL     1     111.719 127.659 136.994  0.00  0.00    +0.000 C 
BRANCH  21  22
ATOM     22  C   UNL     1     112.155 126.959 137.031  0.00  0.00    +0.000 C 
BRANCH  22  23
ATOM     23  C   UNL     1     112.037 126.370 136.466  0.00  0.00    +0.000 C 
BRANCH  23  25
ATOM     24  O   UNL     1     111.587 123.653 137.230  0.00  0.00    +0.000 OA
ATOM     25  C   UNL     1     112.324 125.608 136.598  0.00  0.00    +0.000 A 
ATOM     26  C   UNL     1     111.811 125.012 136.848  0.00  0.00    +0.000 A 
ATOM     27  C   UNL     1     113.124 125.442 136.479  0.00  0.00    +0.000 A 
ATOM     28  C   UNL     1     112.099 124.250 136.980  0.00  0.00    +0.000 A 
ATOM     29  C   UNL     1     113.410 124.680 136.611  0.00  0.00    +0.000 A 
ATOM     30  C   UNL     1     112.898 124.084 136.861  0.00  0.00    +0.000 A 
ENDBRANCH  23  25
ENDBRANCH  22  23
ENDBRANCH  21  22
ENDBRANCH   6  21
BRANCH   4  31
ATOM     31  O   UNL     1     110.325 128.157 137.725  0.00  0.00    +0.000 OA
BRANCH  31  37
ATOM     32  O   UNL     1     110.332 129.090 136.642  0.00  0.00    +0.000 OA
ATOM     33  O   UNL     1     108.954 127.466 137.121  0.00  0.00    +0.000 OA
ATOM     34  O   UNL     1     108.274 128.054 135.737  0.00  0.00    +0.000 OA
ATOM     35  O   UNL     1     108.967 129.333 134.956  0.00  0.00    +0.000 OA
ATOM     36  C   UNL     1     109.299 128.106 136.730  0.00  0.00    +0.000 C 
ATOM     37  C   UNL     1     109.985 128.451 137.032  0.00  0.00    +0.000 C 
ATOM     38  C   UNL     1     108.960 128.400 136.039  0.00  0.00    +0.000 C 
ATOM     39  C   UNL     1     109.306 129.039 135.648  0.00  0.00    +0.000 C 
ATOM     40  C   UNL     1     109.992 129.384 135.950  0.00  0.00    +0.000 C 
BRANCH  40  43
ATOM     41  O   UNL     1     110.905 129.891 134.974  0.00  0.00    +0.000 OA
ATOM     42  O   UNL     1     110.120 130.794 135.756  0.00  0.00    +0.000 OA
ATOM     43  C   UNL     1     110.338 130.023 135.560  0.00  0.00    +0.000 C 
ENDBRANCH  40  43
ENDBRANCH  31  37
ENDBRANCH   4  31
TORSDOF 9
ENDMDL
MODEL 9
REMARK VINA RESULT:      -8.8      1.287      1.816
REMARK  Name = 131836732
REMARK  9 active torsions:
REMARK  status: ('A' for Active; 'I' for Inactive)
REMARK    1  A    between atoms: O_2  and  C_24
REMARK    2  A    between atoms: O_2  and  C_27
REMARK    3  A    between atoms: C_17  and  C_22
REMARK    4  A    between atoms: C_21  and  C_28
REMARK    5  A    between atoms: C_29  and  C_34
REMARK    6  A    between atoms: C_31  and  C_35
REMARK    7  A    between atoms: C_35  and  C_36
REMARK    8  A    between atoms: C_36  and  C_37
REMARK    9  A    between atoms: C_37  and  C_38
REMARK                            x       y       z     vdW  Elec       q    Type
REMARK                         _______ _______ _______ _____ _____    ______ ____
ROOT
ATOM      1  O   UNL     1     110.149 130.136 135.154  0.00  0.00    +0.000 OA
ATOM      2  O   UNL     1     112.152 128.101 135.036  0.00  0.00    +0.000 OA
ATOM      3  C   UNL     1     110.815 129.718 136.348  0.00  0.00    +0.000 A 
ATOM      4  C   UNL     1     111.370 129.240 136.726  0.00  0.00    +0.000 A 
ATOM      5  C   UNL     1     110.705 129.657 135.533  0.00  0.00    +0.000 A 
ATOM      6  C   UNL     1     111.816 128.700 136.289  0.00  0.00    +0.000 A 
ATOM      7  C   UNL     1     111.150 129.118 135.095  0.00  0.00    +0.000 A 
ATOM      8  C   UNL     1     111.707 128.639 135.474  0.00  0.00    +0.000 A 
ENDROOT
BRANCH   3  13
ATOM      9  O   UNL     1     110.599 131.047 136.825  0.00  0.00    +0.000 OA
ATOM     10  O   UNL     1     109.459 129.214 137.142  0.00  0.00    +0.000 OA
ATOM     11  O   UNL     1     108.565 130.291 138.015  0.00  0.00    +0.000 OA
ATOM     12  O   UNL     1     109.028 131.873 138.096  0.00  0.00    +0.000 OA
ATOM     13  C   UNL     1     110.368 130.257 136.785  0.00  0.00    +0.000 C 
ATOM     14  C   UNL     1     109.690 130.005 137.182  0.00  0.00    +0.000 C 
ATOM     15  C   UNL     1     109.243 130.543 137.619  0.00  0.00    +0.000 C 
ATOM     16  C   UNL     1     109.475 131.335 137.659  0.00  0.00    +0.000 C 
ATOM     17  C   UNL     1     110.153 131.587 137.262  0.00  0.00    +0.000 C 
BRANCH  17  19
ATOM     18  O   UNL     1     110.617 132.775 136.618  0.00  0.00    +0.000 OA
ATOM     19  C   UNL     1     110.384 132.377 137.302  0.00  0.00    +0.000 C 
ENDBRANCH  17  19
ENDBRANCH   3  13
BRANCH   6  21
ATOM     20  O   UNL     1     112.928 127.744 137.045  0.00  0.00    +0.000 OA
ATOM     21  C   UNL     1     112.372 128.222 136.667  0.00  0.00    +0.000 C 
BRANCH  21  22
ATOM     22  C   UNL     1     112.340 127.402 136.578  0.00  0.00    +0.000 C 
BRANCH  22  23
ATOM     23  C   UNL     1     112.813 126.918 137.049  0.00  0.00    +0.000 C 
BRANCH  23  25
ATOM     24  O   UNL     1     111.442 124.622 138.057  0.00  0.00    +0.000 OA
ATOM     25  C   UNL     1     112.694 126.102 137.054  0.00  0.00    +0.000 A 
ATOM     26  C   UNL     1     112.127 125.771 137.554  0.00  0.00    +0.000 A 
ATOM     27  C   UNL     1     113.142 125.617 136.558  0.00  0.00    +0.000 A 
ATOM     28  C   UNL     1     112.009 124.954 137.557  0.00  0.00    +0.000 A 
ATOM     29  C   UNL     1     113.022 124.801 136.563  0.00  0.00    +0.000 A 
ATOM     30  C   UNL     1     112.456 124.469 137.063  0.00  0.00    +0.000 A 
ENDBRANCH  23  25
ENDBRANCH  22  23
ENDBRANCH  21  22
ENDBRANCH   6  21
BRANCH   4  31
ATOM     31  O   UNL     1     111.480 129.300 137.541  0.00  0.00    +0.000 OA
BRANCH  31  37
ATOM     32  O   UNL     1     112.645 130.100 137.329  0.00  0.00    +0.000 OA
ATOM     33  O   UNL     1     111.782 129.291 139.163  0.00  0.00    +0.000 OA
ATOM     34  O   UNL     1     113.099 130.086 139.762  0.00  0.00    +0.000 OA
ATOM     35  O   UNL     1     114.113 130.890 138.738  0.00  0.00    +0.000 OA
ATOM     36  C   UNL     1     112.290 129.694 138.652  0.00  0.00    +0.000 C 
ATOM     37  C   UNL     1     112.139 129.698 137.841  0.00  0.00    +0.000 C 
ATOM     38  C   UNL     1     112.948 130.091 138.951  0.00  0.00    +0.000 C 
ATOM     39  C   UNL     1     113.455 130.493 138.439  0.00  0.00    +0.000 C 
ATOM     40  C   UNL     1     113.304 130.497 137.628  0.00  0.00    +0.000 C 
BRANCH  40  43
ATOM     41  O   UNL     1     114.498 130.531 136.844  0.00  0.00    +0.000 OA
ATOM     42  O   UNL     1     113.630 131.667 136.875  0.00  0.00    +0.000 OA
ATOM     43  C   UNL     1     113.811 130.899 137.116  0.00  0.00    +0.000 C 
ENDBRANCH  40  43
ENDBRANCH  31  37
ENDBRANCH   4  31
TORSDOF 9
ENDMDL
MODEL 10
REMARK VINA RESULT:      -8.8      2.183      4.027
REMARK  Name = 131836732
REMARK  9 active torsions:
REMARK  status: ('A' for Active; 'I' for Inactive)
REMARK    1  A    between atoms: O_2  and  C_24
REMARK    2  A    between atoms: O_2  and  C_27
REMARK    3  A    between atoms: C_17  and  C_22
REMARK    4  A    between atoms: C_21  and  C_28
REMARK    5  A    between atoms: C_29  and  C_34
REMARK    6  A    between atoms: C_31  and  C_35
REMARK    7  A    between atoms: C_35  and  C_36
REMARK    8  A    between atoms: C_36  and  C_37
REMARK    9  A    between atoms: C_37  and  C_38
REMARK                            x       y       z     vdW  Elec       q    Type
REMARK                         _______ _______ _______ _____ _____    ______ ____
ROOT
ATOM      1  O   UNL     1     111.258 126.878 142.136  0.00  0.00    +0.000 OA
ATOM      2  O   UNL     1     113.317 126.904 140.154  0.00  0.00    +0.000 OA
ATOM      3  C   UNL     1     110.916 126.837 140.749  0.00  0.00    +0.000 A 
ATOM      4  C   UNL     1     111.145 126.827 139.957  0.00  0.00    +0.000 A 
ATOM      5  C   UNL     1     111.487 126.869 141.343  0.00  0.00    +0.000 A 
ATOM      6  C   UNL     1     111.945 126.850 139.758  0.00  0.00    +0.000 A 
ATOM      7  C   UNL     1     112.288 126.891 141.145  0.00  0.00    +0.000 A 
ATOM      8  C   UNL     1     112.517 126.882 140.352  0.00  0.00    +0.000 A 
ENDROOT
BRANCH   3  13
ATOM      9  O   UNL     1     109.713 127.513 141.121  0.00  0.00    +0.000 OA
ATOM     10  O   UNL     1     110.120 125.392 140.802  0.00  0.00    +0.000 OA
ATOM     11  O   UNL     1     108.520 125.346 141.200  0.00  0.00    +0.000 OA
ATOM     12  O   UNL     1     107.714 126.744 141.545  0.00  0.00    +0.000 OA
ATOM     13  C   UNL     1     110.115 126.814 140.948  0.00  0.00    +0.000 C 
ATOM     14  C   UNL     1     109.717 126.092 140.974  0.00  0.00    +0.000 C 
ATOM     15  C   UNL     1     108.917 126.068 141.173  0.00  0.00    +0.000 C 
ATOM     16  C   UNL     1     108.514 126.768 141.346  0.00  0.00    +0.000 C 
ATOM     17  C   UNL     1     108.912 127.490 141.320  0.00  0.00    +0.000 C 
BRANCH  17  19
ATOM     18  O   UNL     1     108.862 128.761 141.972  0.00  0.00    +0.000 OA
ATOM     19  C   UNL     1     108.510 128.188 141.492  0.00  0.00    +0.000 C 
ENDBRANCH  17  19
ENDBRANCH   3  13
BRANCH   6  21
ATOM     20  O   UNL     1     112.403 126.831 138.173  0.00  0.00    +0.000 OA
ATOM     21  C   UNL     1     112.174 126.840 138.966  0.00  0.00    +0.000 C 
BRANCH  21  22
ATOM     22  C   UNL     1     112.703 126.267 138.695  0.00  0.00    +0.000 C 
BRANCH  22  23
ATOM     23  C   UNL     1     112.901 126.235 137.895  0.00  0.00    +0.000 C 
BRANCH  23  25
ATOM     24  O   UNL     1     112.944 123.643 136.692  0.00  0.00    +0.000 OA
ATOM     25  C   UNL     1     113.324 125.591 137.600  0.00  0.00    +0.000 A 
ATOM     26  C   UNL     1     112.922 124.939 137.293  0.00  0.00    +0.000 A 
ATOM     27  C   UNL     1     114.149 125.600 137.612  0.00  0.00    +0.000 A 
ATOM     28  C   UNL     1     113.346 124.296 136.998  0.00  0.00    +0.000 A 
ATOM     29  C   UNL     1     114.572 124.956 137.316  0.00  0.00    +0.000 A 
ATOM     30  C   UNL     1     114.170 124.304 137.010  0.00  0.00    +0.000 A 
ENDBRANCH  23  25
ENDBRANCH  22  23
ENDBRANCH  21  22
ENDBRANCH   6  21
BRANCH   4  31
ATOM     31  O   UNL     1     110.573 126.795 139.363  0.00  0.00    +0.000 OA
BRANCH  31  37
ATOM     32  O   UNL     1     110.708 128.202 139.151  0.00  0.00    +0.000 OA
ATOM     33  O   UNL     1     109.553 126.699 138.070  0.00  0.00    +0.000 OA
ATOM     34  O   UNL     1     109.177 128.057 137.212  0.00  0.00    +0.000 OA
ATOM     35  O   UNL     1     109.823 129.512 137.647  0.00  0.00    +0.000 OA
ATOM     36  C   UNL     1     109.875 127.427 138.287  0.00  0.00    +0.000 C 
ATOM     37  C   UNL     1     110.385 127.475 138.933  0.00  0.00    +0.000 C 
ATOM     38  C   UNL     1     109.688 128.106 137.858  0.00  0.00    +0.000 C 
ATOM     39  C   UNL     1     110.010 128.834 138.076  0.00  0.00    +0.000 C 
ATOM     40  C   UNL     1     110.520 128.882 138.722  0.00  0.00    +0.000 C 
BRANCH  40  43
ATOM     41  O   UNL     1     110.464 130.075 139.507  0.00  0.00    +0.000 OA
ATOM     42  O   UNL     1     111.544 129.870 138.593  0.00  0.00    +0.000 OA
ATOM     43  C   UNL     1     110.843 129.609 138.940  0.00  0.00    +0.000 C 
ENDBRANCH  40  43
ENDBRANCH  31  37
ENDBRANCH   4  31
TORSDOF 9
ENDMDL
