MODEL 1
REMARK VINA RESULT:     -10.8      0.000      0.000
REMARK  Name = 14159396
REMARK  7 active torsions:
REMARK  status: ('A' for Active; 'I' for Inactive)
REMARK    1  A    between atoms: O_3  and  C_27
REMARK    2  A    between atoms: O_3  and  C_31
REMARK    3  A    between atoms: O_4  and  C_28
REMARK    4  A    between atoms: O_4  and  C_32
REMARK    5  A    between atoms: C_24  and  C_29
REMARK    6  A    between atoms: C_26  and  C_30
REMARK    7  A    between atoms: C_33  and  C_34
REMARK                            x       y       z     vdW  Elec       q    Type
REMARK                         _______ _______ _______ _____ _____    ______ ____
ROOT
ATOM      1  O   UNL     1     111.796 129.521 135.804  0.00  0.00    +0.000 OA
ATOM      2  O   UNL     1     112.320 130.799 137.858  0.00  0.00    +0.000 OA
ATOM      3  O   UNL     1     113.706 130.906 137.472  0.00  0.00    +0.000 OA
ATOM      4  O   UNL     1     114.578 129.697 134.960  0.00  0.00    +0.000 OA
ATOM      5  C   UNL     1     111.374 130.115 137.034  0.00  0.00    +0.000 A 
ATOM      6  C   UNL     1     111.200 129.688 136.349  0.00  0.00    +0.000 A 
ATOM      7  C   UNL     1     112.145 130.373 137.173  0.00  0.00    +0.000 A 
ATOM      8  C   UNL     1     112.741 130.205 136.628  0.00  0.00    +0.000 A 
ATOM      9  C   UNL     1     112.567 129.780 135.944  0.00  0.00    +0.000 A 
ATOM     10  C   UNL     1     113.540 130.480 136.785  0.00  0.00    +0.000 A 
ATOM     11  C   UNL     1     113.178 129.599 135.368  0.00  0.00    +0.000 A 
ATOM     12  C   UNL     1     114.165 130.309 136.220  0.00  0.00    +0.000 A 
ATOM     13  C   UNL     1     113.984 129.865 135.507  0.00  0.00    +0.000 A 
ENDROOT
BRANCH   6  17
ATOM     14  O   UNL     1     108.115 128.653 135.795  0.00  0.00    +0.000 OA
ATOM     15  O   UNL     1     108.696 129.978 135.002  0.00  0.00    +0.000 OA
ATOM     16  C   UNL     1     109.367 128.508 136.468  0.00  0.00    +0.000 A 
ATOM     17  C   UNL     1     110.429 129.430 136.210  0.00  0.00    +0.000 A 
ATOM     18  C   UNL     1     110.138 128.767 136.607  0.00  0.00    +0.000 A 
ATOM     19  C   UNL     1     108.887 128.912 135.933  0.00  0.00    +0.000 A 
ATOM     20  C   UNL     1     109.948 129.834 135.675  0.00  0.00    +0.000 A 
ATOM     21  C   UNL     1     109.177 129.574 135.537  0.00  0.00    +0.000 A 
BRANCH  16  22
ATOM     22  O   UNL     1     109.077 127.845 136.865  0.00  0.00    +0.000 OA
BRANCH  22  31
ATOM     23  O   UNL     1     109.754 126.798 136.168  0.00  0.00    +0.000 OA
ATOM     24  O   UNL     1     110.352 125.746 138.326  0.00  0.00    +0.000 OA
ATOM     25  O   UNL     1     110.830 125.049 136.908  0.00  0.00    +0.000 OA
ATOM     26  O   UNL     1     109.476 127.143 138.304  0.00  0.00    +0.000 OA
ATOM     27  C   UNL     1     110.153 126.097 137.607  0.00  0.00    +0.000 C 
ATOM     28  C   UNL     1     110.392 125.748 136.898  0.00  0.00    +0.000 C 
ATOM     29  C   UNL     1     109.714 126.796 137.596  0.00  0.00    +0.000 C 
ATOM     30  C   UNL     1     110.193 126.100 136.178  0.00  0.00    +0.000 C 
ATOM     31  C   UNL     1     109.516 127.146 136.876  0.00  0.00    +0.000 C 
BRANCH  30  33
ATOM     32  O   UNL     1     109.905 125.701 134.837  0.00  0.00    +0.000 OA
ATOM     33  C   UNL     1     110.432 125.751 135.469  0.00  0.00    +0.000 C 
ENDBRANCH  30  33
ENDBRANCH  22  31
ENDBRANCH  16  22
ENDBRANCH   6  17
BRANCH   5  34
ATOM     34  O   UNL     1     110.778 130.282 137.579  0.00  0.00    +0.000 OA
BRANCH  34  43
ATOM     35  O   UNL     1     110.668 131.661 137.221  0.00  0.00    +0.000 OA
ATOM     36  O   UNL     1     110.036 132.215 139.549  0.00  0.00    +0.000 OA
ATOM     37  O   UNL     1     110.137 133.409 138.415  0.00  0.00    +0.000 OA
ATOM     38  O   UNL     1     110.357 130.651 139.131  0.00  0.00    +0.000 OA
ATOM     39  C   UNL     1     110.247 132.030 138.773  0.00  0.00    +0.000 C 
ATOM     40  C   UNL     1     110.298 132.627 138.206  0.00  0.00    +0.000 C 
ATOM     41  C   UNL     1     110.407 131.248 138.564  0.00  0.00    +0.000 C 
ATOM     42  C   UNL     1     110.508 132.442 137.430  0.00  0.00    +0.000 C 
ATOM     43  C   UNL     1     110.618 131.063 137.788  0.00  0.00    +0.000 C 
BRANCH  42  45
ATOM     44  O   UNL     1     110.041 133.043 136.220  0.00  0.00    +0.000 OA
ATOM     45  C   UNL     1     110.559 133.039 136.863  0.00  0.00    +0.000 C 
ENDBRANCH  42  45
ENDBRANCH  34  43
ENDBRANCH   5  34
TORSDOF 7
ENDMDL
MODEL 2
REMARK VINA RESULT:     -10.1      1.747      2.591
REMARK  Name = 14159396
REMARK  7 active torsions:
REMARK  status: ('A' for Active; 'I' for Inactive)
REMARK    1  A    between atoms: O_3  and  C_27
REMARK    2  A    between atoms: O_3  and  C_31
REMARK    3  A    between atoms: O_4  and  C_28
REMARK    4  A    between atoms: O_4  and  C_32
REMARK    5  A    between atoms: C_24  and  C_29
REMARK    6  A    between atoms: C_26  and  C_30
REMARK    7  A    between atoms: C_33  and  C_34
REMARK                            x       y       z     vdW  Elec       q    Type
REMARK                         _______ _______ _______ _____ _____    ______ ____
ROOT
ATOM      1  O   UNL     1     112.355 128.718 136.357  0.00  0.00    +0.000 OA
ATOM      2  O   UNL     1     113.313 130.405 137.896  0.00  0.00    +0.000 OA
ATOM      3  O   UNL     1     114.476 130.553 137.056  0.00  0.00    +0.000 OA
ATOM      4  O   UNL     1     114.674 128.965 134.612  0.00  0.00    +0.000 OA
ATOM      5  C   UNL     1     112.263 129.498 137.552  0.00  0.00    +0.000 A 
ATOM      6  C   UNL     1     111.944 128.935 137.039  0.00  0.00    +0.000 A 
ATOM      7  C   UNL     1     112.994 129.842 137.383  0.00  0.00    +0.000 A 
ATOM      8  C   UNL     1     113.405 129.625 136.701  0.00  0.00    +0.000 A 
ATOM      9  C   UNL     1     113.086 129.063 136.189  0.00  0.00    +0.000 A 
ATOM     10  C   UNL     1     114.165 129.992 136.537  0.00  0.00    +0.000 A 
ATOM     11  C   UNL     1     113.504 128.828 135.476  0.00  0.00    +0.000 A 
ATOM     12  C   UNL     1     114.597 129.769 135.829  0.00  0.00    +0.000 A 
ATOM     13  C   UNL     1     114.265 129.184 135.294  0.00  0.00    +0.000 A 
ENDROOT
BRANCH   6  17
ATOM     14  O   UNL     1     109.024 127.555 137.717  0.00  0.00    +0.000 OA
ATOM     15  O   UNL     1     109.093 129.101 137.145  0.00  0.00    +0.000 OA
ATOM     16  C   UNL     1     110.450 127.473 137.663  0.00  0.00    +0.000 A 
ATOM     17  C   UNL     1     111.214 128.591 137.208  0.00  0.00    +0.000 A 
ATOM     18  C   UNL     1     111.180 127.817 137.494  0.00  0.00    +0.000 A 
ATOM     19  C   UNL     1     109.754 127.901 137.547  0.00  0.00    +0.000 A 
ATOM     20  C   UNL     1     110.519 129.019 137.092  0.00  0.00    +0.000 A 
ATOM     21  C   UNL     1     109.789 128.673 137.261  0.00  0.00    +0.000 A 
BRANCH  16  22
ATOM     22  O   UNL     1     110.415 126.699 137.949  0.00  0.00    +0.000 OA
BRANCH  22  31
ATOM     23  O   UNL     1     110.567 126.043 136.690  0.00  0.00    +0.000 OA
ATOM     24  O   UNL     1     111.940 124.288 137.767  0.00  0.00    +0.000 OA
ATOM     25  O   UNL     1     111.634 124.217 136.147  0.00  0.00    +0.000 OA
ATOM     26  O   UNL     1     111.331 125.529 138.668  0.00  0.00    +0.000 OA
ATOM     27  C   UNL     1     111.482 124.873 137.408  0.00  0.00    +0.000 C 
ATOM     28  C   UNL     1     111.329 124.838 136.598  0.00  0.00    +0.000 C 
ATOM     29  C   UNL     1     111.178 125.494 137.859  0.00  0.00    +0.000 C 
ATOM     30  C   UNL     1     110.871 125.423 136.239  0.00  0.00    +0.000 C 
ATOM     31  C   UNL     1     110.720 126.079 137.499  0.00  0.00    +0.000 C 
BRANCH  30  33
ATOM     32  O   UNL     1     109.945 125.468 135.151  0.00  0.00    +0.000 OA
ATOM     33  C   UNL     1     110.718 125.387 135.428  0.00  0.00    +0.000 C 
ENDBRANCH  30  33
ENDBRANCH  22  31
ENDBRANCH  16  22
ENDBRANCH   6  17
BRANCH   5  34
ATOM     34  O   UNL     1     111.852 129.715 138.234  0.00  0.00    +0.000 OA
BRANCH  34  43
ATOM     35  O   UNL     1     112.707 129.000 139.128  0.00  0.00    +0.000 OA
ATOM     36  O   UNL     1     112.294 130.698 140.880  0.00  0.00    +0.000 OA
ATOM     37  O   UNL     1     113.286 129.417 141.190  0.00  0.00    +0.000 OA
ATOM     38  O   UNL     1     111.577 130.847 139.402  0.00  0.00    +0.000 OA
ATOM     39  C   UNL     1     112.432 130.132 140.296  0.00  0.00    +0.000 C 
ATOM     40  C   UNL     1     112.927 129.491 140.451  0.00  0.00    +0.000 C 
ATOM     41  C   UNL     1     112.073 130.207 139.556  0.00  0.00    +0.000 C 
ATOM     42  C   UNL     1     113.065 128.925 139.867  0.00  0.00    +0.000 C 
ATOM     43  C   UNL     1     112.211 129.640 138.972  0.00  0.00    +0.000 C 
BRANCH  42  45
ATOM     44  O   UNL     1     113.261 127.516 140.003  0.00  0.00    +0.000 OA
ATOM     45  C   UNL     1     113.561 128.285 140.022  0.00  0.00    +0.000 C 
ENDBRANCH  42  45
ENDBRANCH  34  43
ENDBRANCH   5  34
TORSDOF 7
ENDMDL
MODEL 3
REMARK VINA RESULT:     -10.1      2.013      3.178
REMARK  Name = 14159396
REMARK  7 active torsions:
REMARK  status: ('A' for Active; 'I' for Inactive)
REMARK    1  A    between atoms: O_3  and  C_27
REMARK    2  A    between atoms: O_3  and  C_31
REMARK    3  A    between atoms: O_4  and  C_28
REMARK    4  A    between atoms: O_4  and  C_32
REMARK    5  A    between atoms: C_24  and  C_29
REMARK    6  A    between atoms: C_26  and  C_30
REMARK    7  A    between atoms: C_33  and  C_34
REMARK                            x       y       z     vdW  Elec       q    Type
REMARK                         _______ _______ _______ _____ _____    ______ ____
ROOT
ATOM      1  O   UNL     1     113.270 128.177 136.896  0.00  0.00    +0.000 OA
ATOM      2  O   UNL     1     112.772 130.441 137.766  0.00  0.00    +0.000 OA
ATOM      3  O   UNL     1     113.573 131.047 136.730  0.00  0.00    +0.000 OA
ATOM      4  O   UNL     1     114.903 129.329 134.777  0.00  0.00    +0.000 OA
ATOM      5  C   UNL     1     112.621 129.023 137.849  0.00  0.00    +0.000 A 
ATOM      6  C   UNL     1     112.787 128.268 137.559  0.00  0.00    +0.000 A 
ATOM      7  C   UNL     1     112.938 129.686 137.476  0.00  0.00    +0.000 A 
ATOM      8  C   UNL     1     113.421 129.596 136.813  0.00  0.00    +0.000 A 
ATOM      9  C   UNL     1     113.586 128.842 136.523  0.00  0.00    +0.000 A 
ATOM     10  C   UNL     1     113.744 130.296 136.433  0.00  0.00    +0.000 A 
ATOM     11  C   UNL     1     114.088 128.734 135.834  0.00  0.00    +0.000 A 
ATOM     12  C   UNL     1     114.247 130.208 135.742  0.00  0.00    +0.000 A 
ATOM     13  C   UNL     1     114.421 129.422 135.440  0.00  0.00    +0.000 A 
ENDROOT
BRANCH   6  17
ATOM     14  O   UNL     1     111.517 125.613 139.053  0.00  0.00    +0.000 OA
ATOM     15  O   UNL     1     113.114 125.982 139.243  0.00  0.00    +0.000 OA
ATOM     16  C   UNL     1     111.354 126.756 138.211  0.00  0.00    +0.000 A 
ATOM     17  C   UNL     1     112.471 127.604 137.933  0.00  0.00    +0.000 A 
ATOM     18  C   UNL     1     111.671 127.420 137.838  0.00  0.00    +0.000 A 
ATOM     19  C   UNL     1     111.835 126.277 138.680  0.00  0.00    +0.000 A 
ATOM     20  C   UNL     1     112.952 127.125 138.401  0.00  0.00    +0.000 A 
ATOM     21  C   UNL     1     112.633 126.461 138.774  0.00  0.00    +0.000 A 
BRANCH  16  22
ATOM     22  O   UNL     1     110.555 126.572 138.116  0.00  0.00    +0.000 OA
BRANCH  22  31
ATOM     23  O   UNL     1     110.603 126.007 136.805  0.00  0.00    +0.000 OA
ATOM     24  O   UNL     1     108.547 127.243 136.196  0.00  0.00    +0.000 OA
ATOM     25  O   UNL     1     109.281 126.266 135.088  0.00  0.00    +0.000 OA
ATOM     26  O   UNL     1     109.184 127.396 137.711  0.00  0.00    +0.000 OA
ATOM     27  C   UNL     1     109.232 126.831 136.400  0.00  0.00    +0.000 C 
ATOM     28  C   UNL     1     109.599 126.342 135.845  0.00  0.00    +0.000 C 
ATOM     29  C   UNL     1     109.551 126.908 137.157  0.00  0.00    +0.000 C 
ATOM     30  C   UNL     1     110.285 125.931 136.048  0.00  0.00    +0.000 C 
ATOM     31  C   UNL     1     110.237 126.495 137.359  0.00  0.00    +0.000 C 
BRANCH  30  33
ATOM     32  O   UNL     1     110.991 124.729 135.733  0.00  0.00    +0.000 OA
ATOM     33  C   UNL     1     110.652 125.442 135.493  0.00  0.00    +0.000 C 
ENDBRANCH  30  33
ENDBRANCH  22  31
ENDBRANCH  16  22
ENDBRANCH   6  17
BRANCH   5  34
ATOM     34  O   UNL     1     112.138 129.113 138.512  0.00  0.00    +0.000 OA
BRANCH  34  43
ATOM     35  O   UNL     1     113.213 129.418 139.403  0.00  0.00    +0.000 OA
ATOM     36  O   UNL     1     111.700 130.853 140.737  0.00  0.00    +0.000 OA
ATOM     37  O   UNL     1     113.279 130.680 141.182  0.00  0.00    +0.000 OA
ATOM     38  O   UNL     1     111.130 130.069 139.401  0.00  0.00    +0.000 OA
ATOM     39  C   UNL     1     112.205 130.375 140.292  0.00  0.00    +0.000 C 
ATOM     40  C   UNL     1     112.994 130.288 140.515  0.00  0.00    +0.000 C 
ATOM     41  C   UNL     1     111.919 129.982 139.624  0.00  0.00    +0.000 C 
ATOM     42  C   UNL     1     113.498 129.810 140.070  0.00  0.00    +0.000 C 
ATOM     43  C   UNL     1     112.424 129.504 139.179  0.00  0.00    +0.000 C 
BRANCH  42  45
ATOM     44  O   UNL     1     114.556 129.003 140.592  0.00  0.00    +0.000 OA
ATOM     45  C   UNL     1     114.287 129.724 140.293  0.00  0.00    +0.000 C 
ENDBRANCH  42  45
ENDBRANCH  34  43
ENDBRANCH   5  34
TORSDOF 7
ENDMDL
MODEL 4
REMARK VINA RESULT:     -10.1      1.497      4.613
REMARK  Name = 14159396
REMARK  7 active torsions:
REMARK  status: ('A' for Active; 'I' for Inactive)
REMARK    1  A    between atoms: O_3  and  C_27
REMARK    2  A    between atoms: O_3  and  C_31
REMARK    3  A    between atoms: O_4  and  C_28
REMARK    4  A    between atoms: O_4  and  C_32
REMARK    5  A    between atoms: C_24  and  C_29
REMARK    6  A    between atoms: C_26  and  C_30
REMARK    7  A    between atoms: C_33  and  C_34
REMARK                            x       y       z     vdW  Elec       q    Type
REMARK                         _______ _______ _______ _____ _____    ______ ____
ROOT
ATOM      1  O   UNL     1     112.159 129.565 137.016  0.00  0.00    +0.000 OA
ATOM      2  O   UNL     1     113.025 127.319 136.438  0.00  0.00    +0.000 OA
ATOM      3  O   UNL     1     114.152 127.900 135.748  0.00  0.00    +0.000 OA
ATOM      4  O   UNL     1     114.406 130.808 135.642  0.00  0.00    +0.000 OA
ATOM      5  C   UNL     1     112.039 128.141 137.065  0.00  0.00    +0.000 A 
ATOM      6  C   UNL     1     111.750 128.890 137.258  0.00  0.00    +0.000 A 
ATOM      7  C   UNL     1     112.736 128.068 136.631  0.00  0.00    +0.000 A 
ATOM      8  C   UNL     1     113.145 128.743 136.389  0.00  0.00    +0.000 A 
ATOM      9  C   UNL     1     112.856 129.490 136.582  0.00  0.00    +0.000 A 
ATOM     10  C   UNL     1     113.870 128.652 135.937  0.00  0.00    +0.000 A 
ATOM     11  C   UNL     1     113.272 130.201 136.336  0.00  0.00    +0.000 A 
ATOM     12  C   UNL     1     114.300 129.351 135.682  0.00  0.00    +0.000 A 
ATOM     13  C   UNL     1     113.999 130.131 135.883  0.00  0.00    +0.000 A 
ENDROOT
BRANCH   6  17
ATOM     14  O   UNL     1     108.959 129.183 138.995  0.00  0.00    +0.000 OA
ATOM     15  O   UNL     1     110.358 128.741 139.750  0.00  0.00    +0.000 OA
ATOM     16  C   UNL     1     109.656 129.257 137.749  0.00  0.00    +0.000 A 
ATOM     17  C   UNL     1     111.053 128.963 137.693  0.00  0.00    +0.000 A 
ATOM     18  C   UNL     1     110.353 129.184 137.315  0.00  0.00    +0.000 A 
ATOM     19  C   UNL     1     109.657 129.109 138.561  0.00  0.00    +0.000 A 
ATOM     20  C   UNL     1     111.055 128.815 138.505  0.00  0.00    +0.000 A 
ATOM     21  C   UNL     1     110.356 128.889 138.938  0.00  0.00    +0.000 A 
BRANCH  16  22
ATOM     22  O   UNL     1     108.956 129.478 137.371  0.00  0.00    +0.000 OA
BRANCH  22  31
ATOM     23  O   UNL     1     109.173 130.890 137.334  0.00  0.00    +0.000 OA
ATOM     24  O   UNL     1     108.267 130.969 135.032  0.00  0.00    +0.000 OA
ATOM     25  O   UNL     1     108.786 132.354 135.762  0.00  0.00    +0.000 OA
ATOM     26  O   UNL     1     108.351 129.531 135.837  0.00  0.00    +0.000 OA
ATOM     27  C   UNL     1     108.569 130.942 135.800  0.00  0.00    +0.000 C 
ATOM     28  C   UNL     1     108.829 131.635 136.165  0.00  0.00    +0.000 C 
ATOM     29  C   UNL     1     108.611 130.223 136.202  0.00  0.00    +0.000 C 
ATOM     30  C   UNL     1     109.131 131.609 136.932  0.00  0.00    +0.000 C 
ATOM     31  C   UNL     1     108.913 130.197 136.969  0.00  0.00    +0.000 C 
BRANCH  30  33
ATOM     32  O   UNL     1     109.128 132.491 138.056  0.00  0.00    +0.000 OA
ATOM     33  C   UNL     1     109.391 132.302 137.297  0.00  0.00    +0.000 C 
ENDBRANCH  30  33
ENDBRANCH  22  31
ENDBRANCH  16  22
ENDBRANCH   6  17
BRANCH   5  34
ATOM     34  O   UNL     1     111.631 127.466 137.307  0.00  0.00    +0.000 OA
BRANCH  34  43
ATOM     35  O   UNL     1     111.130 127.168 136.003  0.00  0.00    +0.000 OA
ATOM     36  O   UNL     1     111.105 124.758 136.562  0.00  0.00    +0.000 OA
ATOM     37  O   UNL     1     110.613 125.264 135.072  0.00  0.00    +0.000 OA
ATOM     38  O   UNL     1     111.614 125.859 137.680  0.00  0.00    +0.000 OA
ATOM     39  C   UNL     1     111.113 125.561 136.376  0.00  0.00    +0.000 C 
ATOM     40  C   UNL     1     110.867 125.815 135.630  0.00  0.00    +0.000 C 
ATOM     41  C   UNL     1     111.368 126.113 136.935  0.00  0.00    +0.000 C 
ATOM     42  C   UNL     1     110.875 126.618 135.444  0.00  0.00    +0.000 C 
ATOM     43  C   UNL     1     111.376 126.916 136.749  0.00  0.00    +0.000 C 
BRANCH  42  45
ATOM     44  O   UNL     1     109.963 127.353 134.625  0.00  0.00    +0.000 OA
ATOM     45  C   UNL     1     110.629 126.871 134.699  0.00  0.00    +0.000 C 
ENDBRANCH  42  45
ENDBRANCH  34  43
ENDBRANCH   5  34
TORSDOF 7
ENDMDL
MODEL 5
REMARK VINA RESULT:     -10.0      2.237      5.376
REMARK  Name = 14159396
REMARK  7 active torsions:
REMARK  status: ('A' for Active; 'I' for Inactive)
REMARK    1  A    between atoms: O_3  and  C_27
REMARK    2  A    between atoms: O_3  and  C_31
REMARK    3  A    between atoms: O_4  and  C_28
REMARK    4  A    between atoms: O_4  and  C_32
REMARK    5  A    between atoms: C_24  and  C_29
REMARK    6  A    between atoms: C_26  and  C_30
REMARK    7  A    between atoms: C_33  and  C_34
REMARK                            x       y       z     vdW  Elec       q    Type
REMARK                         _______ _______ _______ _____ _____    ______ ____
ROOT
ATOM      1  O   UNL     1     112.529 128.298 138.305  0.00  0.00    +0.000 OA
ATOM      2  O   UNL     1     111.774 125.969 138.669  0.00  0.00    +0.000 OA
ATOM      3  O   UNL     1     111.988 126.091 140.091  0.00  0.00    +0.000 OA
ATOM      4  O   UNL     1     112.984 128.619 141.164  0.00  0.00    +0.000 OA
ATOM      5  C   UNL     1     112.041 127.059 137.785  0.00  0.00    +0.000 A 
ATOM      6  C   UNL     1     112.293 127.836 137.664  0.00  0.00    +0.000 A 
ATOM      7  C   UNL     1     112.026 126.746 138.548  0.00  0.00    +0.000 A 
ATOM      8  C   UNL     1     112.262 127.208 139.190  0.00  0.00    +0.000 A 
ATOM      9  C   UNL     1     112.513 127.984 139.068  0.00  0.00    +0.000 A 
ATOM     10  C   UNL     1     112.241 126.869 139.979  0.00  0.00    +0.000 A 
ATOM     11  C   UNL     1     112.761 128.476 139.727  0.00  0.00    +0.000 A 
ATOM     12  C   UNL     1     112.485 127.346 140.651  0.00  0.00    +0.000 A 
ATOM     13  C   UNL     1     112.747 128.154 140.525  0.00  0.00    +0.000 A 
ENDROOT
BRANCH   6  17
ATOM     14  O   UNL     1     112.351 129.090 134.612  0.00  0.00    +0.000 OA
ATOM     15  O   UNL     1     113.765 128.800 135.412  0.00  0.00    +0.000 OA
ATOM     16  C   UNL     1     111.616 128.608 135.738  0.00  0.00    +0.000 A 
ATOM     17  C   UNL     1     112.308 128.150 136.901  0.00  0.00    +0.000 A 
ATOM     18  C   UNL     1     111.601 128.295 136.501  0.00  0.00    +0.000 A 
ATOM     19  C   UNL     1     112.337 128.777 135.375  0.00  0.00    +0.000 A 
ATOM     20  C   UNL     1     113.030 128.318 136.538  0.00  0.00    +0.000 A 
ATOM     21  C   UNL     1     113.043 128.632 135.775  0.00  0.00    +0.000 A 
BRANCH  16  22
ATOM     22  O   UNL     1     110.908 128.753 135.338  0.00  0.00    +0.000 OA
BRANCH  22  31
ATOM     23  O   UNL     1     110.454 129.877 136.094  0.00  0.00    +0.000 OA
ATOM     24  O   UNL     1     108.156 128.960 136.078  0.00  0.00    +0.000 OA
ATOM     25  O   UNL     1     108.468 130.390 136.840  0.00  0.00    +0.000 OA
ATOM     26  O   UNL     1     109.376 128.142 135.327  0.00  0.00    +0.000 OA
ATOM     27  C   UNL     1     108.922 129.265 136.083  0.00  0.00    +0.000 C 
ATOM     28  C   UNL     1     109.078 129.981 136.465  0.00  0.00    +0.000 C 
ATOM     29  C   UNL     1     109.532 128.856 135.708  0.00  0.00    +0.000 C 
ATOM     30  C   UNL     1     109.844 130.286 136.470  0.00  0.00    +0.000 C 
ATOM     31  C   UNL     1     110.298 129.163 135.714  0.00  0.00    +0.000 C 
BRANCH  30  33
ATOM     32  O   UNL     1     110.482 131.565 136.488  0.00  0.00    +0.000 OA
ATOM     33  C   UNL     1     110.001 131.002 136.851  0.00  0.00    +0.000 C 
ENDBRANCH  30  33
ENDBRANCH  22  31
ENDBRANCH  16  22
ENDBRANCH   6  17
BRANCH   5  34
ATOM     34  O   UNL     1     111.805 126.597 137.144  0.00  0.00    +0.000 OA
BRANCH  34  43
ATOM     35  O   UNL     1     113.000 125.813 137.118  0.00  0.00    +0.000 OA
ATOM     36  O   UNL     1     111.713 123.882 136.256  0.00  0.00    +0.000 OA
ATOM     37  O   UNL     1     113.335 123.742 136.517  0.00  0.00    +0.000 OA
ATOM     38  O   UNL     1     110.947 125.310 136.570  0.00  0.00    +0.000 OA
ATOM     39  C   UNL     1     112.142 124.526 136.543  0.00  0.00    +0.000 C 
ATOM     40  C   UNL     1     112.953 124.456 136.674  0.00  0.00    +0.000 C 
ATOM     41  C   UNL     1     111.759 125.240 136.700  0.00  0.00    +0.000 C 
ATOM     42  C   UNL     1     113.382 125.099 136.961  0.00  0.00    +0.000 C 
ATOM     43  C   UNL     1     112.188 125.884 136.987  0.00  0.00    +0.000 C 
BRANCH  42  45
ATOM     44  O   UNL     1     114.723 125.489 136.657  0.00  0.00    +0.000 OA
ATOM     45  C   UNL     1     114.193 125.029 137.091  0.00  0.00    +0.000 C 
ENDBRANCH  42  45
ENDBRANCH  34  43
ENDBRANCH   5  34
TORSDOF 7
ENDMDL
MODEL 6
REMARK VINA RESULT:     -10.0      1.204      4.543
REMARK  Name = 14159396
REMARK  7 active torsions:
REMARK  status: ('A' for Active; 'I' for Inactive)
REMARK    1  A    between atoms: O_3  and  C_27
REMARK    2  A    between atoms: O_3  and  C_31
REMARK    3  A    between atoms: O_4  and  C_28
REMARK    4  A    between atoms: O_4  and  C_32
REMARK    5  A    between atoms: C_24  and  C_29
REMARK    6  A    between atoms: C_26  and  C_30
REMARK    7  A    between atoms: C_33  and  C_34
REMARK                            x       y       z     vdW  Elec       q    Type
REMARK                         _______ _______ _______ _____ _____    ______ ____
ROOT
ATOM      1  O   UNL     1     111.788 129.228 135.791  0.00  0.00    +0.000 OA
ATOM      2  O   UNL     1     112.748 127.475 137.252  0.00  0.00    +0.000 OA
ATOM      3  O   UNL     1     114.061 127.685 136.690  0.00  0.00    +0.000 OA
ATOM      4  O   UNL     1     114.408 129.709 134.612  0.00  0.00    +0.000 OA
ATOM      5  C   UNL     1     111.624 128.237 136.808  0.00  0.00    +0.000 A 
ATOM      6  C   UNL     1     111.304 128.822 136.321  0.00  0.00    +0.000 A 
ATOM      7  C   UNL     1     112.428 128.060 136.764  0.00  0.00    +0.000 A 
ATOM      8  C   UNL     1     112.913 128.466 136.235  0.00  0.00    +0.000 A 
ATOM      9  C   UNL     1     112.593 129.050 135.749  0.00  0.00    +0.000 A 
ATOM     10  C   UNL     1     113.749 128.272 136.199  0.00  0.00    +0.000 A 
ATOM     11  C   UNL     1     113.086 129.481 135.193  0.00  0.00    +0.000 A 
ATOM     12  C   UNL     1     114.258 128.692 135.650  0.00  0.00    +0.000 A 
ATOM     13  C   UNL     1     113.925 129.300 135.143  0.00  0.00    +0.000 A 
ENDROOT
BRANCH   6  17
ATOM     14  O   UNL     1     108.086 129.533 136.498  0.00  0.00    +0.000 OA
ATOM     15  O   UNL     1     108.655 128.582 135.275  0.00  0.00    +0.000 OA
ATOM     16  C   UNL     1     109.411 129.653 137.020  0.00  0.00    +0.000 A 
ATOM     17  C   UNL     1     110.499 128.999 136.365  0.00  0.00    +0.000 A 
ATOM     18  C   UNL     1     110.215 129.475 136.976  0.00  0.00    +0.000 A 
ATOM     19  C   UNL     1     108.891 129.355 136.453  0.00  0.00    +0.000 A 
ATOM     20  C   UNL     1     109.979 128.701 135.798  0.00  0.00    +0.000 A 
ATOM     21  C   UNL     1     109.175 128.879 135.842  0.00  0.00    +0.000 A 
BRANCH  16  22
ATOM     22  O   UNL     1     109.126 130.129 137.632  0.00  0.00    +0.000 OA
BRANCH  22  31
ATOM     23  O   UNL     1     109.536 131.394 137.111  0.00  0.00    +0.000 OA
ATOM     24  O   UNL     1     110.204 132.113 139.383  0.00  0.00    +0.000 OA
ATOM     25  O   UNL     1     110.392 133.139 138.105  0.00  0.00    +0.000 OA
ATOM     26  O   UNL     1     109.572 130.607 139.147  0.00  0.00    +0.000 OA
ATOM     27  C   UNL     1     109.981 131.873 138.626  0.00  0.00    +0.000 C 
ATOM     28  C   UNL     1     110.075 132.387 137.987  0.00  0.00    +0.000 C 
ATOM     29  C   UNL     1     109.665 131.120 138.508  0.00  0.00    +0.000 C 
ATOM     30  C   UNL     1     109.852 132.147 137.230  0.00  0.00    +0.000 C 
ATOM     31  C   UNL     1     109.442 130.881 137.750  0.00  0.00    +0.000 C 
BRANCH  30  33
ATOM     32  O   UNL     1     109.358 132.712 136.014  0.00  0.00    +0.000 OA
ATOM     33  C   UNL     1     109.946 132.661 136.590  0.00  0.00    +0.000 C 
ENDBRANCH  30  33
ENDBRANCH  22  31
ENDBRANCH  16  22
ENDBRANCH   6  17
BRANCH   5  34
ATOM     34  O   UNL     1     111.139 127.830 137.338  0.00  0.00    +0.000 OA
BRANCH  34  43
ATOM     35  O   UNL     1     111.128 126.603 136.607  0.00  0.00    +0.000 OA
ATOM     36  O   UNL     1     111.025 125.338 138.732  0.00  0.00    +0.000 OA
ATOM     37  O   UNL     1     111.049 124.533 137.293  0.00  0.00    +0.000 OA
ATOM     38  O   UNL     1     111.071 126.988 138.755  0.00  0.00    +0.000 OA
ATOM     39  C   UNL     1     111.060 125.760 138.024  0.00  0.00    +0.000 C 
ATOM     40  C   UNL     1     111.071 125.357 137.304  0.00  0.00    +0.000 C 
ATOM     41  C   UNL     1     111.082 126.585 138.035  0.00  0.00    +0.000 C 
ATOM     42  C   UNL     1     111.106 125.779 136.595  0.00  0.00    +0.000 C 
ATOM     43  C   UNL     1     111.117 127.006 137.326  0.00  0.00    +0.000 C 
BRANCH  42  45
ATOM     44  O   UNL     1     110.507 125.484 135.332  0.00  0.00    +0.000 OA
ATOM     45  C   UNL     1     111.117 125.376 135.876  0.00  0.00    +0.000 C 
ENDBRANCH  42  45
ENDBRANCH  34  43
ENDBRANCH   5  34
TORSDOF 7
ENDMDL
MODEL 7
REMARK VINA RESULT:      -9.9      1.569      2.654
REMARK  Name = 14159396
REMARK  7 active torsions:
REMARK  status: ('A' for Active; 'I' for Inactive)
REMARK    1  A    between atoms: O_3  and  C_27
REMARK    2  A    between atoms: O_3  and  C_31
REMARK    3  A    between atoms: O_4  and  C_28
REMARK    4  A    between atoms: O_4  and  C_32
REMARK    5  A    between atoms: C_24  and  C_29
REMARK    6  A    between atoms: C_26  and  C_30
REMARK    7  A    between atoms: C_33  and  C_34
REMARK                            x       y       z     vdW  Elec       q    Type
REMARK                         _______ _______ _______ _____ _____    ______ ____
ROOT
ATOM      1  O   UNL     1     113.011 128.020 137.061  0.00  0.00    +0.000 OA
ATOM      2  O   UNL     1     113.188 130.234 138.155  0.00  0.00    +0.000 OA
ATOM      3  O   UNL     1     113.966 130.748 137.054  0.00  0.00    +0.000 OA
ATOM      4  O   UNL     1     114.576 128.989 134.804  0.00  0.00    +0.000 OA
ATOM      5  C   UNL     1     112.715 128.886 138.160  0.00  0.00    +0.000 A 
ATOM      6  C   UNL     1     112.656 128.147 137.795  0.00  0.00    +0.000 A 
ATOM      7  C   UNL     1     113.129 129.496 137.790  0.00  0.00    +0.000 A 
ATOM      8  C   UNL     1     113.484 129.369 137.056  0.00  0.00    +0.000 A 
ATOM      9  C   UNL     1     113.424 128.632 136.692  0.00  0.00    +0.000 A 
ATOM     10  C   UNL     1     113.912 130.013 136.682  0.00  0.00    +0.000 A 
ATOM     11  C   UNL     1     113.789 128.486 135.928  0.00  0.00    +0.000 A 
ATOM     12  C   UNL     1     114.283 129.887 135.918  0.00  0.00    +0.000 A 
ATOM     13  C   UNL     1     114.222 129.118 135.537  0.00  0.00    +0.000 A 
ENDROOT
BRANCH   6  17
ATOM     14  O   UNL     1     110.998 125.706 139.272  0.00  0.00    +0.000 OA
ATOM     15  O   UNL     1     112.504 126.121 139.805  0.00  0.00    +0.000 OA
ATOM     16  C   UNL     1     111.075 126.719 138.268  0.00  0.00    +0.000 A 
ATOM     17  C   UNL     1     112.242 127.537 138.164  0.00  0.00    +0.000 A 
ATOM     18  C   UNL     1     111.489 127.329 137.898  0.00  0.00    +0.000 A 
ATOM     19  C   UNL     1     111.413 126.316 138.903  0.00  0.00    +0.000 A 
ATOM     20  C   UNL     1     112.580 127.134 138.800  0.00  0.00    +0.000 A 
ATOM     21  C   UNL     1     112.165 126.524 139.169  0.00  0.00    +0.000 A 
BRANCH  16  22
ATOM     22  O   UNL     1     110.321 126.512 138.001  0.00  0.00    +0.000 OA
BRANCH  22  31
ATOM     23  O   UNL     1     110.712 125.783 136.836  0.00  0.00    +0.000 OA
ATOM     24  O   UNL     1     108.834 126.790 135.577  0.00  0.00    +0.000 OA
ATOM     25  O   UNL     1     109.851 125.725 134.831  0.00  0.00    +0.000 OA
ATOM     26  O   UNL     1     109.069 127.183 137.162  0.00  0.00    +0.000 OA
ATOM     27  C   UNL     1     109.460 126.454 135.997  0.00  0.00    +0.000 C 
ATOM     28  C   UNL     1     109.968 125.922 135.623  0.00  0.00    +0.000 C 
ATOM     29  C   UNL     1     109.577 126.651 136.789  0.00  0.00    +0.000 C 
ATOM     30  C   UNL     1     110.594 125.587 136.044  0.00  0.00    +0.000 C 
ATOM     31  C   UNL     1     110.204 126.315 137.209  0.00  0.00    +0.000 C 
BRANCH  30  33
ATOM     32  O   UNL     1     111.329 124.361 136.056  0.00  0.00    +0.000 OA
ATOM     33  C   UNL     1     111.103 125.054 135.670  0.00  0.00    +0.000 C 
ENDBRANCH  30  33
ENDBRANCH  22  31
ENDBRANCH  16  22
ENDBRANCH   6  17
BRANCH   5  34
ATOM     34  O   UNL     1     112.360 129.012 138.894  0.00  0.00    +0.000 OA
BRANCH  34  43
ATOM     35  O   UNL     1     111.296 129.810 138.369  0.00  0.00    +0.000 OA
ATOM     36  O   UNL     1     111.188 131.066 140.499  0.00  0.00    +0.000 OA
ATOM     37  O   UNL     1     110.161 131.444 139.265  0.00  0.00    +0.000 OA
ATOM     38  O   UNL     1     112.288 129.850 140.313  0.00  0.00    +0.000 OA
ATOM     39  C   UNL     1     111.224 130.647 139.789  0.00  0.00    +0.000 C 
ATOM     40  C   UNL     1     110.711 130.836 139.171  0.00  0.00    +0.000 C 
ATOM     41  C   UNL     1     111.775 130.039 139.696  0.00  0.00    +0.000 C 
ATOM     42  C   UNL     1     110.747 130.417 138.462  0.00  0.00    +0.000 C 
ATOM     43  C   UNL     1     111.811 129.620 138.986  0.00  0.00    +0.000 C 
BRANCH  42  45
ATOM     44  O   UNL     1     109.650 130.070 137.614  0.00  0.00    +0.000 OA
ATOM     45  C   UNL     1     110.233 130.606 137.845  0.00  0.00    +0.000 C 
ENDBRANCH  42  45
ENDBRANCH  34  43
ENDBRANCH   5  34
TORSDOF 7
ENDMDL
MODEL 8
REMARK VINA RESULT:      -9.8      3.250      5.882
REMARK  Name = 14159396
REMARK  7 active torsions:
REMARK  status: ('A' for Active; 'I' for Inactive)
REMARK    1  A    between atoms: O_3  and  C_27
REMARK    2  A    between atoms: O_3  and  C_31
REMARK    3  A    between atoms: O_4  and  C_28
REMARK    4  A    between atoms: O_4  and  C_32
REMARK    5  A    between atoms: C_24  and  C_29
REMARK    6  A    between atoms: C_26  and  C_30
REMARK    7  A    between atoms: C_33  and  C_34
REMARK                            x       y       z     vdW  Elec       q    Type
REMARK                         _______ _______ _______ _____ _____    ______ ____
ROOT
ATOM      1  O   UNL     1     112.467 128.399 138.621  0.00  0.00    +0.000 OA
ATOM      2  O   UNL     1     113.272 127.131 136.653  0.00  0.00    +0.000 OA
ATOM      3  O   UNL     1     112.699 128.104 135.756  0.00  0.00    +0.000 OA
ATOM      4  O   UNL     1     111.285 130.404 136.871  0.00  0.00    +0.000 OA
ATOM      5  C   UNL     1     113.158 127.275 138.070  0.00  0.00    +0.000 A 
ATOM      6  C   UNL     1     112.890 127.698 138.727  0.00  0.00    +0.000 A 
ATOM      7  C   UNL     1     113.004 127.554 137.310  0.00  0.00    +0.000 A 
ATOM      8  C   UNL     1     112.581 128.254 137.204  0.00  0.00    +0.000 A 
ATOM      9  C   UNL     1     112.313 128.677 137.859  0.00  0.00    +0.000 A 
ATOM     10  C   UNL     1     112.427 128.534 136.406  0.00  0.00    +0.000 A 
ATOM     11  C   UNL     1     111.872 129.408 137.764  0.00  0.00    +0.000 A 
ATOM     12  C   UNL     1     111.987 129.263 136.290  0.00  0.00    +0.000 A 
ATOM     13  C   UNL     1     111.708 129.703 136.973  0.00  0.00    +0.000 A 
ENDROOT
BRANCH   6  17
ATOM     14  O   UNL     1     113.505 126.583 141.771  0.00  0.00    +0.000 OA
ATOM     15  O   UNL     1     114.702 127.315 140.903  0.00  0.00    +0.000 OA
ATOM     16  C   UNL     1     112.600 126.775 140.683  0.00  0.00    +0.000 A 
ATOM     17  C   UNL     1     113.044 127.420 139.487  0.00  0.00    +0.000 A 
ATOM     18  C   UNL     1     112.445 127.053 139.922  0.00  0.00    +0.000 A 
ATOM     19  C   UNL     1     113.352 126.862 141.010  0.00  0.00    +0.000 A 
ATOM     20  C   UNL     1     113.796 127.507 139.814  0.00  0.00    +0.000 A 
ATOM     21  C   UNL     1     113.950 127.228 140.576  0.00  0.00    +0.000 A 
BRANCH  16  22
ATOM     22  O   UNL     1     112.000 126.408 141.117  0.00  0.00    +0.000 OA
BRANCH  22  31
ATOM     23  O   UNL     1     111.346 127.581 141.603  0.00  0.00    +0.000 OA
ATOM     24  O   UNL     1     109.146 126.527 141.187  0.00  0.00    +0.000 OA
ATOM     25  O   UNL     1     109.224 128.052 141.812  0.00  0.00    +0.000 OA
ATOM     26  O   UNL     1     110.534 125.705 140.839  0.00  0.00    +0.000 OA
ATOM     27  C   UNL     1     109.879 126.878 141.325  0.00  0.00    +0.000 C 
ATOM     28  C   UNL     1     109.918 127.641 141.638  0.00  0.00    +0.000 C 
ATOM     29  C   UNL     1     110.573 126.467 141.152  0.00  0.00    +0.000 C 
ATOM     30  C   UNL     1     110.652 127.992 141.777  0.00  0.00    +0.000 C 
ATOM     31  C   UNL     1     111.306 126.819 141.291  0.00  0.00    +0.000 C 
BRANCH  30  33
ATOM     32  O   UNL     1     111.193 128.914 142.725  0.00  0.00    +0.000 OA
ATOM     33  C   UNL     1     110.691 128.755 142.090  0.00  0.00    +0.000 C 
ENDBRANCH  30  33
ENDBRANCH  22  31
ENDBRANCH  16  22
ENDBRANCH   6  17
BRANCH   5  34
ATOM     34  O   UNL     1     113.581 126.574 138.176  0.00  0.00    +0.000 OA
BRANCH  34  43
ATOM     35  O   UNL     1     112.501 125.736 137.759  0.00  0.00    +0.000 OA
ATOM     36  O   UNL     1     114.123 124.053 136.944  0.00  0.00    +0.000 OA
ATOM     37  O   UNL     1     112.504 123.776 136.800  0.00  0.00    +0.000 OA
ATOM     38  O   UNL     1     114.662 125.453 137.633  0.00  0.00    +0.000 OA
ATOM     39  C   UNL     1     113.582 124.614 137.216  0.00  0.00    +0.000 C 
ATOM     40  C   UNL     1     112.772 124.476 137.144  0.00  0.00    +0.000 C 
ATOM     41  C   UNL     1     113.852 125.314 137.560  0.00  0.00    +0.000 C 
ATOM     42  C   UNL     1     112.232 125.036 137.416  0.00  0.00    +0.000 C 
ATOM     43  C   UNL     1     113.311 125.875 137.832  0.00  0.00    +0.000 C 
BRANCH  42  45
ATOM     44  O   UNL     1     110.946 124.869 138.016  0.00  0.00    +0.000 OA
ATOM     45  C   UNL     1     111.422 124.897 137.343  0.00  0.00    +0.000 C 
ENDBRANCH  42  45
ENDBRANCH  34  43
ENDBRANCH   5  34
TORSDOF 7
ENDMDL
MODEL 9
REMARK VINA RESULT:      -9.8      2.319      4.895
REMARK  Name = 14159396
REMARK  7 active torsions:
REMARK  status: ('A' for Active; 'I' for Inactive)
REMARK    1  A    between atoms: O_3  and  C_27
REMARK    2  A    between atoms: O_3  and  C_31
REMARK    3  A    between atoms: O_4  and  C_28
REMARK    4  A    between atoms: O_4  and  C_32
REMARK    5  A    between atoms: C_24  and  C_29
REMARK    6  A    between atoms: C_26  and  C_30
REMARK    7  A    between atoms: C_33  and  C_34
REMARK                            x       y       z     vdW  Elec       q    Type
REMARK                         _______ _______ _______ _____ _____    ______ ____
ROOT
ATOM      1  O   UNL     1     113.145 128.018 136.951  0.00  0.00    +0.000 OA
ATOM      2  O   UNL     1     111.167 128.714 135.635  0.00  0.00    +0.000 OA
ATOM      3  O   UNL     1     112.012 129.284 134.613  0.00  0.00    +0.000 OA
ATOM      4  O   UNL     1     114.913 129.146 134.931  0.00  0.00    +0.000 OA
ATOM      5  C   UNL     1     111.726 128.088 136.791  0.00  0.00    +0.000 A 
ATOM      6  C   UNL     1     112.385 127.856 137.230  0.00  0.00    +0.000 A 
ATOM      7  C   UNL     1     111.827 128.482 136.074  0.00  0.00    +0.000 A 
ATOM      8  C   UNL     1     112.586 128.644 135.795  0.00  0.00    +0.000 A 
ATOM      9  C   UNL     1     113.244 128.412 136.233  0.00  0.00    +0.000 A 
ATOM     10  C   UNL     1     112.677 129.056 135.046  0.00  0.00    +0.000 A 
ATOM     11  C   UNL     1     114.040 128.575 135.954  0.00  0.00    +0.000 A 
ATOM     12  C   UNL     1     113.465 129.227 134.750  0.00  0.00    +0.000 A 
ATOM     13  C   UNL     1     114.152 128.985 135.207  0.00  0.00    +0.000 A 
ENDROOT
BRANCH   6  17
ATOM     14  O   UNL     1     111.980 126.281 140.102  0.00  0.00    +0.000 OA
ATOM     15  O   UNL     1     112.407 125.436 138.751  0.00  0.00    +0.000 OA
ATOM     16  C   UNL     1     111.970 127.490 139.341  0.00  0.00    +0.000 A 
ATOM     17  C   UNL     1     112.284 127.461 137.948  0.00  0.00    +0.000 A 
ATOM     18  C   UNL     1     112.071 127.884 138.624  0.00  0.00    +0.000 A 
ATOM     19  C   UNL     1     112.082 126.674 139.384  0.00  0.00    +0.000 A 
ATOM     20  C   UNL     1     112.396 126.645 137.990  0.00  0.00    +0.000 A 
ATOM     21  C   UNL     1     112.295 126.252 138.708  0.00  0.00    +0.000 A 
BRANCH  16  22
ATOM     22  O   UNL     1     111.756 127.913 140.017  0.00  0.00    +0.000 OA
BRANCH  22  31
ATOM     23  O   UNL     1     112.993 128.566 140.305  0.00  0.00    +0.000 OA
ATOM     24  O   UNL     1     111.782 130.688 140.703  0.00  0.00    +0.000 OA
ATOM     25  O   UNL     1     113.424 130.634 140.857  0.00  0.00    +0.000 OA
ATOM     26  O   UNL     1     110.948 129.327 140.283  0.00  0.00    +0.000 OA
ATOM     27  C   UNL     1     112.185 129.981 140.570  0.00  0.00    +0.000 C 
ATOM     28  C   UNL     1     113.007 129.954 140.647  0.00  0.00    +0.000 C 
ATOM     29  C   UNL     1     111.768 129.300 140.360  0.00  0.00    +0.000 C 
ATOM     30  C   UNL     1     113.410 129.247 140.515  0.00  0.00    +0.000 C 
ATOM     31  C   UNL     1     112.173 128.593 140.227  0.00  0.00    +0.000 C 
BRANCH  30  33
ATOM     32  O   UNL     1     114.595 128.546 140.898  0.00  0.00    +0.000 OA
ATOM     33  C   UNL     1     114.232 129.220 140.592  0.00  0.00    +0.000 C 
ENDBRANCH  30  33
ENDBRANCH  22  31
ENDBRANCH  16  22
ENDBRANCH   6  17
BRANCH   5  34
ATOM     34  O   UNL     1     110.966 127.926 137.070  0.00  0.00    +0.000 OA
BRANCH  34  43
ATOM     35  O   UNL     1     110.719 126.878 136.130  0.00  0.00    +0.000 OA
ATOM     36  O   UNL     1     108.304 127.416 136.165  0.00  0.00    +0.000 OA
ATOM     37  O   UNL     1     108.862 126.190 135.214  0.00  0.00    +0.000 OA
ATOM     38  O   UNL     1     109.356 128.284 137.093  0.00  0.00    +0.000 OA
ATOM     39  C   UNL     1     109.109 127.237 136.153  0.00  0.00    +0.000 C 
ATOM     40  C   UNL     1     109.389 126.624 135.678  0.00  0.00    +0.000 C 
ATOM     41  C   UNL     1     109.636 127.671 136.618  0.00  0.00    +0.000 C 
ATOM     42  C   UNL     1     110.194 126.444 135.666  0.00  0.00    +0.000 C 
ATOM     43  C   UNL     1     110.441 127.492 136.606  0.00  0.00    +0.000 C 
BRANCH  42  45
ATOM     44  O   UNL     1     110.798 125.156 135.535  0.00  0.00    +0.000 OA
ATOM     45  C   UNL     1     110.473 125.832 135.191  0.00  0.00    +0.000 C 
ENDBRANCH  42  45
ENDBRANCH  34  43
ENDBRANCH   5  34
TORSDOF 7
ENDMDL
MODEL 10
REMARK VINA RESULT:      -9.8      2.102      3.376
REMARK  Name = 14159396
REMARK  7 active torsions:
REMARK  status: ('A' for Active; 'I' for Inactive)
REMARK    1  A    between atoms: O_3  and  C_27
REMARK    2  A    between atoms: O_3  and  C_31
REMARK    3  A    between atoms: O_4  and  C_28
REMARK    4  A    between atoms: O_4  and  C_32
REMARK    5  A    between atoms: C_24  and  C_29
REMARK    6  A    between atoms: C_26  and  C_30
REMARK    7  A    between atoms: C_33  and  C_34
REMARK                            x       y       z     vdW  Elec       q    Type
REMARK                         _______ _______ _______ _____ _____    ______ ____
ROOT
ATOM      1  O   UNL     1     113.467 128.322 136.840  0.00  0.00    +0.000 OA
ATOM      2  O   UNL     1     111.370 129.213 135.870  0.00  0.00    +0.000 OA
ATOM      3  O   UNL     1     112.091 129.771 134.752  0.00  0.00    +0.000 OA
ATOM      4  O   UNL     1     114.988 129.421 134.612  0.00  0.00    +0.000 OA
ATOM      5  C   UNL     1     112.049 128.497 136.903  0.00  0.00    +0.000 A 
ATOM      6  C   UNL     1     112.748 128.199 137.226  0.00  0.00    +0.000 A 
ATOM      7  C   UNL     1     112.070 128.916 136.193  0.00  0.00    +0.000 A 
ATOM      8  C   UNL     1     112.788 129.039 135.806  0.00  0.00    +0.000 A 
ATOM      9  C   UNL     1     113.486 128.742 136.130  0.00  0.00    +0.000 A 
ATOM     10  C   UNL     1     112.795 129.478 135.068  0.00  0.00    +0.000 A 
ATOM     11  C   UNL     1     114.240 128.863 135.737  0.00  0.00    +0.000 A 
ATOM     12  C   UNL     1     113.540 129.609 134.660  0.00  0.00    +0.000 A 
ATOM     13  C   UNL     1     114.268 129.299 134.997  0.00  0.00    +0.000 A 
ENDROOT
BRANCH   6  17
ATOM     14  O   UNL     1     112.666 126.518 140.065  0.00  0.00    +0.000 OA
ATOM     15  O   UNL     1     113.175 128.088 140.050  0.00  0.00    +0.000 OA
ATOM     16  C   UNL     1     112.453 126.575 138.654  0.00  0.00    +0.000 A 
ATOM     17  C   UNL     1     112.728 127.780 137.936  0.00  0.00    +0.000 A 
ATOM     18  C   UNL     1     112.473 126.994 137.944  0.00  0.00    +0.000 A 
ATOM     19  C   UNL     1     112.687 126.939 139.356  0.00  0.00    +0.000 A 
ATOM     20  C   UNL     1     112.962 128.144 138.638  0.00  0.00    +0.000 A 
ATOM     21  C   UNL     1     112.941 127.723 139.348  0.00  0.00    +0.000 A 
BRANCH  16  22
ATOM     22  O   UNL     1     112.198 125.789 138.661  0.00  0.00    +0.000 OA
BRANCH  22  31
ATOM     23  O   UNL     1     113.237 125.194 137.883  0.00  0.00    +0.000 OA
ATOM     24  O   UNL     1     111.551 123.880 136.635  0.00  0.00    +0.000 OA
ATOM     25  O   UNL     1     113.153 123.722 136.273  0.00  0.00    +0.000 OA
ATOM     26  O   UNL     1     111.073 124.914 137.829  0.00  0.00    +0.000 OA
ATOM     27  C   UNL     1     112.113 124.318 137.051  0.00  0.00    +0.000 C 
ATOM     28  C   UNL     1     112.914 124.239 136.870  0.00  0.00    +0.000 C 
ATOM     29  C   UNL     1     111.874 124.835 137.648  0.00  0.00    +0.000 C 
ATOM     30  C   UNL     1     113.476 124.677 137.286  0.00  0.00    +0.000 C 
ATOM     31  C   UNL     1     112.437 125.273 138.064  0.00  0.00    +0.000 C 
BRANCH  30  33
ATOM     32  O   UNL     1     114.840 124.615 137.708  0.00  0.00    +0.000 OA
ATOM     33  C   UNL     1     114.277 124.597 137.105  0.00  0.00    +0.000 C 
ENDBRANCH  30  33
ENDBRANCH  22  31
ENDBRANCH  16  22
ENDBRANCH   6  17
BRANCH   5  34
ATOM     34  O   UNL     1     111.331 128.374 137.290  0.00  0.00    +0.000 OA
BRANCH  34  43
ATOM     35  O   UNL     1     111.224 129.717 137.766  0.00  0.00    +0.000 OA
ATOM     36  O   UNL     1     108.756 129.556 137.667  0.00  0.00    +0.000 OA
ATOM     37  O   UNL     1     109.472 130.952 138.176  0.00  0.00    +0.000 OA
ATOM     38  O   UNL     1     109.686 128.267 137.223  0.00  0.00    +0.000 OA
ATOM     39  C   UNL     1     109.579 129.610 137.700  0.00  0.00    +0.000 C 
ATOM     40  C   UNL     1     109.938 130.308 137.955  0.00  0.00    +0.000 C 
ATOM     41  C   UNL     1     110.044 128.965 137.478  0.00  0.00    +0.000 C 
ATOM     42  C   UNL     1     110.760 130.361 137.988  0.00  0.00    +0.000 C 
ATOM     43  C   UNL     1     110.867 129.018 137.511  0.00  0.00    +0.000 C 
BRANCH  42  45
ATOM     44  O   UNL     1     111.605 131.054 138.908  0.00  0.00    +0.000 OA
ATOM     45  C   UNL     1     111.118 131.059 138.242  0.00  0.00    +0.000 C 
ENDBRANCH  42  45
ENDBRANCH  34  43
ENDBRANCH   5  34
TORSDOF 7
ENDMDL
