MODEL 1
REMARK VINA RESULT:     -10.3      0.000      0.000
REMARK  Name = 44259081
REMARK  9 active torsions:
REMARK  status: ('A' for Active; 'I' for Inactive)
REMARK    1  A    between atoms: O_1  and  C_16
REMARK    2  A    between atoms: O_1  and  C_19
REMARK    3  A    between atoms: O_4  and  C_20
REMARK    4  A    between atoms: O_4  and  C_28
REMARK    5  A    between atoms: O_15  and  C_47
REMARK    6  A    between atoms: C_29  and  C_37
REMARK    7  A    between atoms: C_33  and  C_34
REMARK    8  A    between atoms: C_34  and  C_35
REMARK    9  A    between atoms: C_35  and  C_36
REMARK                            x       y       z     vdW  Elec       q    Type
REMARK                         _______ _______ _______ _____ _____    ______ ____
ROOT
ATOM      1  O   UNL     1     112.256 127.283 136.941  0.00  0.00    +0.000 OA
ATOM      2  O   UNL     1     109.791 127.511 136.910  0.00  0.00    +0.000 OA
ATOM      3  O   UNL     1     109.640 126.128 136.527  0.00  0.00    +0.000 OA
ATOM      4  O   UNL     1     112.026 124.484 136.168  0.00  0.00    +0.000 OA
ATOM      5  C   UNL     1     111.085 128.083 137.115  0.00  0.00    +0.000 A 
ATOM      6  C   UNL     1     111.906 128.007 137.125  0.00  0.00    +0.000 A 
ATOM      7  C   UNL     1     110.613 127.434 136.920  0.00  0.00    +0.000 A 
ATOM      8  C   UNL     1     110.962 126.710 136.736  0.00  0.00    +0.000 A 
ATOM      9  C   UNL     1     111.784 126.635 136.746  0.00  0.00    +0.000 A 
ATOM     10  C   UNL     1     112.160 125.887 136.556  0.00  0.00    +0.000 A 
ATOM     11  C   UNL     1     110.461 126.043 136.535  0.00  0.00    +0.000 A 
ATOM     12  C   UNL     1     111.674 125.207 136.352  0.00  0.00    +0.000 A 
ATOM     13  C   UNL     1     110.818 125.287 136.341  0.00  0.00    +0.000 A 
ENDROOT
BRANCH   6  14
ATOM     14  C   UNL     1     112.378 128.656 137.320  0.00  0.00    +0.000 A 
ATOM     15  C   UNL     1     112.522 128.838 138.112  0.00  0.00    +0.000 A 
ATOM     16  C   UNL     1     112.705 129.121 136.723  0.00  0.00    +0.000 A 
ATOM     17  C   UNL     1     112.993 129.486 138.306  0.00  0.00    +0.000 A 
ATOM     18  C   UNL     1     113.177 129.770 136.918  0.00  0.00    +0.000 A 
ATOM     19  C   UNL     1     113.321 129.952 137.709  0.00  0.00    +0.000 A 
BRANCH  19  20
ATOM     20  O   UNL     1     113.793 130.600 137.904  0.00  0.00    +0.000 OA
ATOM     21  C   UNL     1     114.201 130.614 138.621  0.00  0.00    +0.000 C 
ENDBRANCH  19  20
ENDBRANCH   6  14
BRANCH   5  22
ATOM     22  O   UNL     1     110.735 128.807 137.300  0.00  0.00    +0.000 OA
BRANCH  22  29
ATOM     23  O   UNL     1     110.373 129.131 135.956  0.00  0.00    +0.000 OA
ATOM     24  O   UNL     1     108.351 130.296 136.781  0.00  0.00    +0.000 OA
ATOM     25  O   UNL     1     108.663 130.231 135.162  0.00  0.00    +0.000 OA
ATOM     26  C   UNL     1     109.543 129.551 137.040  0.00  0.00    +0.000 C 
ATOM     27  C   UNL     1     109.025 129.908 136.506  0.00  0.00    +0.000 C 
ATOM     28  C   UNL     1     109.182 129.875 135.697  0.00  0.00    +0.000 C 
ATOM     29  C   UNL     1     110.217 129.163 136.765  0.00  0.00    +0.000 C 
ATOM     30  C   UNL     1     109.856 129.487 135.422  0.00  0.00    +0.000 C 
ATOM     31  C   UNL     1     110.011 129.455 134.612  0.00  0.00    +0.000 C 
BRANCH  26  32
ATOM     32  O   UNL     1     109.387 129.584 137.850  0.00  0.00    +0.000 OA
BRANCH  32  37
ATOM     33  O   UNL     1     109.909 130.913 137.899  0.00  0.00    +0.000 OA
ATOM     34  O   UNL     1     108.974 129.686 139.444  0.00  0.00    +0.000 OA
ATOM     35  O   UNL     1     109.289 131.066 140.292  0.00  0.00    +0.000 OA
ATOM     36  O   UNL     1     110.018 132.344 139.544  0.00  0.00    +0.000 OA
ATOM     37  C   UNL     1     109.545 130.274 138.274  0.00  0.00    +0.000 C 
ATOM     38  C   UNL     1     109.338 130.325 139.070  0.00  0.00    +0.000 C 
ATOM     39  C   UNL     1     109.496 131.015 139.494  0.00  0.00    +0.000 C 
ATOM     40  C   UNL     1     109.860 131.654 139.121  0.00  0.00    +0.000 C 
ATOM     41  C   UNL     1     110.066 131.603 138.323  0.00  0.00    +0.000 C 
ATOM     42  C   UNL     1     110.430 132.242 137.950  0.00  0.00    +0.000 C 
ENDBRANCH  32  37
ENDBRANCH  26  32
ENDBRANCH  22  29
ENDBRANCH   5  22
BRANCH  10  43
ATOM     43  C   UNL     1     112.982 125.819 136.568  0.00  0.00    +0.000 C 
BRANCH  43  44
ATOM     44  C   UNL     1     113.344 125.263 137.058  0.00  0.00    +0.000 C 
BRANCH  44  46
ATOM     45  O   UNL     1     114.974 125.318 137.307  0.00  0.00    +0.000 OA
ATOM     46  C   UNL     1     114.159 125.290 137.182  0.00  0.00    +0.000 C 
ATOM     47  C   UNL     1     114.285 125.222 136.370  0.00  0.00    +0.000 C 
ATOM     48  C   UNL     1     114.033 125.358 137.994  0.00  0.00    +0.000 C 
ENDBRANCH  44  46
ENDBRANCH  43  44
ENDBRANCH  10  43
TORSDOF 9
ENDMDL
MODEL 2
REMARK VINA RESULT:     -10.1      1.191      2.277
REMARK  Name = 44259081
REMARK  9 active torsions:
REMARK  status: ('A' for Active; 'I' for Inactive)
REMARK    1  A    between atoms: O_1  and  C_16
REMARK    2  A    between atoms: O_1  and  C_19
REMARK    3  A    between atoms: O_4  and  C_20
REMARK    4  A    between atoms: O_4  and  C_28
REMARK    5  A    between atoms: O_15  and  C_47
REMARK    6  A    between atoms: C_29  and  C_37
REMARK    7  A    between atoms: C_33  and  C_34
REMARK    8  A    between atoms: C_34  and  C_35
REMARK    9  A    between atoms: C_35  and  C_36
REMARK                            x       y       z     vdW  Elec       q    Type
REMARK                         _______ _______ _______ _____ _____    ______ ____
ROOT
ATOM      1  O   UNL     1     112.363 126.858 136.689  0.00  0.00    +0.000 OA
ATOM      2  O   UNL     1     110.045 127.143 137.509  0.00  0.00    +0.000 OA
ATOM      3  O   UNL     1     109.943 125.733 137.795  0.00  0.00    +0.000 OA
ATOM      4  O   UNL     1     112.229 124.002 137.242  0.00  0.00    +0.000 OA
ATOM      5  C   UNL     1     111.242 127.701 136.961  0.00  0.00    +0.000 A 
ATOM      6  C   UNL     1     112.014 127.605 136.688  0.00  0.00    +0.000 A 
ATOM      7  C   UNL     1     110.818 127.047 137.235  0.00  0.00    +0.000 A 
ATOM      8  C   UNL     1     111.167 126.300 137.236  0.00  0.00    +0.000 A 
ATOM      9  C   UNL     1     111.940 126.206 136.963  0.00  0.00    +0.000 A 
ATOM     10  C   UNL     1     112.314 125.433 136.958  0.00  0.00    +0.000 A 
ATOM     11  C   UNL     1     110.716 125.628 137.524  0.00  0.00    +0.000 A 
ATOM     12  C   UNL     1     111.878 124.748 137.242  0.00  0.00    +0.000 A 
ATOM     13  C   UNL     1     111.073 124.847 137.527  0.00  0.00    +0.000 A 
ENDROOT
BRANCH   6  14
ATOM     14  C   UNL     1     112.438 128.259 136.414  0.00  0.00    +0.000 A 
ATOM     15  C   UNL     1     112.967 128.647 136.914  0.00  0.00    +0.000 A 
ATOM     16  C   UNL     1     112.332 128.523 135.640  0.00  0.00    +0.000 A 
ATOM     17  C   UNL     1     113.390 129.299 136.640  0.00  0.00    +0.000 A 
ATOM     18  C   UNL     1     112.756 129.176 135.366  0.00  0.00    +0.000 A 
ATOM     19  C   UNL     1     113.285 129.565 135.866  0.00  0.00    +0.000 A 
BRANCH  19  20
ATOM     20  O   UNL     1     113.708 130.217 135.592  0.00  0.00    +0.000 OA
ATOM     21  C   UNL     1     114.526 130.168 135.496  0.00  0.00    +0.000 C 
ENDBRANCH  19  20
ENDBRANCH   6  14
BRANCH   5  22
ATOM     22  O   UNL     1     110.893 128.448 136.961  0.00  0.00    +0.000 OA
BRANCH  22  29
ATOM     23  O   UNL     1     111.008 128.680 138.366  0.00  0.00    +0.000 OA
ATOM     24  O   UNL     1     108.836 129.868 138.348  0.00  0.00    +0.000 OA
ATOM     25  O   UNL     1     109.675 129.703 139.760  0.00  0.00    +0.000 OA
ATOM     26  C   UNL     1     109.865 129.158 137.655  0.00  0.00    +0.000 C 
ATOM     27  C   UNL     1     109.560 129.472 138.354  0.00  0.00    +0.000 C 
ATOM     28  C   UNL     1     109.980 129.389 139.060  0.00  0.00    +0.000 C 
ATOM     29  C   UNL     1     110.589 128.762 137.661  0.00  0.00    +0.000 C 
ATOM     30  C   UNL     1     110.703 128.993 139.065  0.00  0.00    +0.000 C 
ATOM     31  C   UNL     1     111.122 128.911 139.772  0.00  0.00    +0.000 C 
BRANCH  26  32
ATOM     32  O   UNL     1     109.445 129.240 136.949  0.00  0.00    +0.000 OA
BRANCH  32  37
ATOM     33  O   UNL     1     109.963 130.561 136.781  0.00  0.00    +0.000 OA
ATOM     34  O   UNL     1     108.391 129.496 135.706  0.00  0.00    +0.000 OA
ATOM     35  O   UNL     1     108.381 130.944 134.916  0.00  0.00    +0.000 OA
ATOM     36  O   UNL     1     109.426 132.138 135.369  0.00  0.00    +0.000 OA
ATOM     37  C   UNL     1     109.440 129.965 136.554  0.00  0.00    +0.000 C 
ATOM     38  C   UNL     1     108.913 130.092 135.933  0.00  0.00    +0.000 C 
ATOM     39  C   UNL     1     108.909 130.816 135.538  0.00  0.00    +0.000 C 
ATOM     40  C   UNL     1     109.431 131.413 135.764  0.00  0.00    +0.000 C 
ATOM     41  C   UNL     1     109.959 131.286 136.386  0.00  0.00    +0.000 C 
ATOM     42  C   UNL     1     110.481 131.883 136.612  0.00  0.00    +0.000 C 
ENDBRANCH  32  37
ENDBRANCH  26  32
ENDBRANCH  22  29
ENDBRANCH   5  22
BRANCH  10  43
ATOM     43  C   UNL     1     113.087 125.346 136.683  0.00  0.00    +0.000 C 
BRANCH  43  44
ATOM     44  C   UNL     1     113.658 124.990 137.160  0.00  0.00    +0.000 C 
BRANCH  44  46
ATOM     45  O   UNL     1     115.257 125.128 136.777  0.00  0.00    +0.000 OA
ATOM     46  C   UNL     1     114.458 125.059 136.969  0.00  0.00    +0.000 C 
ATOM     47  C   UNL     1     114.624 125.283 137.745  0.00  0.00    +0.000 C 
ATOM     48  C   UNL     1     114.291 124.835 136.193  0.00  0.00    +0.000 C 
ENDBRANCH  44  46
ENDBRANCH  43  44
ENDBRANCH  10  43
TORSDOF 9
ENDMDL
MODEL 3
REMARK VINA RESULT:     -10.0      1.904      2.890
REMARK  Name = 44259081
REMARK  9 active torsions:
REMARK  status: ('A' for Active; 'I' for Inactive)
REMARK    1  A    between atoms: O_1  and  C_16
REMARK    2  A    between atoms: O_1  and  C_19
REMARK    3  A    between atoms: O_4  and  C_20
REMARK    4  A    between atoms: O_4  and  C_28
REMARK    5  A    between atoms: O_15  and  C_47
REMARK    6  A    between atoms: C_29  and  C_37
REMARK    7  A    between atoms: C_33  and  C_34
REMARK    8  A    between atoms: C_34  and  C_35
REMARK    9  A    between atoms: C_35  and  C_36
REMARK                            x       y       z     vdW  Elec       q    Type
REMARK                         _______ _______ _______ _____ _____    ______ ____
ROOT
ATOM      1  O   UNL     1     111.916 126.319 137.861  0.00  0.00    +0.000 OA
ATOM      2  O   UNL     1     110.937 128.501 137.226  0.00  0.00    +0.000 OA
ATOM      3  O   UNL     1     110.315 127.916 136.063  0.00  0.00    +0.000 OA
ATOM      4  O   UNL     1     110.692 125.069 135.533  0.00  0.00    +0.000 OA
ATOM      5  C   UNL     1     111.729 127.712 138.117  0.00  0.00    +0.000 A 
ATOM      6  C   UNL     1     112.055 126.985 138.328  0.00  0.00    +0.000 A 
ATOM      7  C   UNL     1     111.263 127.774 137.438  0.00  0.00    +0.000 A 
ATOM      8  C   UNL     1     111.124 127.108 136.971  0.00  0.00    +0.000 A 
ATOM      9  C   UNL     1     111.451 126.380 137.183  0.00  0.00    +0.000 A 
ATOM     10  C   UNL     1     111.314 125.680 136.706  0.00  0.00    +0.000 A 
ATOM     11  C   UNL     1     110.638 127.184 136.267  0.00  0.00    +0.000 A 
ATOM     12  C   UNL     1     110.830 125.737 135.997  0.00  0.00    +0.000 A 
ATOM     13  C   UNL     1     110.489 126.494 135.777  0.00  0.00    +0.000 A 
ENDROOT
BRANCH   6  14
ATOM     14  C   UNL     1     112.521 126.924 139.007  0.00  0.00    +0.000 A 
ATOM     15  C   UNL     1     113.343 126.967 138.949  0.00  0.00    +0.000 A 
ATOM     16  C   UNL     1     112.164 126.819 139.743  0.00  0.00    +0.000 A 
ATOM     17  C   UNL     1     113.808 126.906 139.627  0.00  0.00    +0.000 A 
ATOM     18  C   UNL     1     112.630 126.758 140.422  0.00  0.00    +0.000 A 
ATOM     19  C   UNL     1     113.452 126.801 140.364  0.00  0.00    +0.000 A 
BRANCH  19  20
ATOM     20  O   UNL     1     113.917 126.740 141.042  0.00  0.00    +0.000 OA
ATOM     21  C   UNL     1     114.688 127.034 141.042  0.00  0.00    +0.000 C 
ENDBRANCH  19  20
ENDBRANCH   6  14
BRANCH   5  22
ATOM     22  O   UNL     1     111.868 128.378 138.583  0.00  0.00    +0.000 OA
BRANCH  22  29
ATOM     23  O   UNL     1     112.794 128.982 137.677  0.00  0.00    +0.000 OA
ATOM     24  O   UNL     1     112.023 131.225 138.385  0.00  0.00    +0.000 OA
ATOM     25  O   UNL     1     113.206 131.081 137.243  0.00  0.00    +0.000 OA
ATOM     26  C   UNL     1     111.946 129.802 138.484  0.00  0.00    +0.000 C 
ATOM     27  C   UNL     1     112.280 130.478 138.149  0.00  0.00    +0.000 C 
ATOM     28  C   UNL     1     112.871 130.405 137.578  0.00  0.00    +0.000 C 
ATOM     29  C   UNL     1     112.203 129.054 138.248  0.00  0.00    +0.000 C 
ATOM     30  C   UNL     1     113.128 129.657 137.342  0.00  0.00    +0.000 C 
ATOM     31  C   UNL     1     113.719 129.586 136.771  0.00  0.00    +0.000 C 
BRANCH  26  32
ATOM     32  O   UNL     1     111.354 129.874 139.055  0.00  0.00    +0.000 OA
BRANCH  32  37
ATOM     33  O   UNL     1     112.346 130.132 140.050  0.00  0.00    +0.000 OA
ATOM     34  O   UNL     1     110.167 130.092 140.180  0.00  0.00    +0.000 OA
ATOM     35  O   UNL     1     110.565 130.458 141.739  0.00  0.00    +0.000 OA
ATOM     36  O   UNL     1     112.150 130.607 142.172  0.00  0.00    +0.000 OA
ATOM     37  C   UNL     1     111.553 130.057 139.834  0.00  0.00    +0.000 C 
ATOM     38  C   UNL     1     110.960 130.166 140.396  0.00  0.00    +0.000 C 
ATOM     39  C   UNL     1     111.159 130.349 141.176  0.00  0.00    +0.000 C 
ATOM     40  C   UNL     1     111.951 130.424 141.393  0.00  0.00    +0.000 C 
ATOM     41  C   UNL     1     112.545 130.315 140.830  0.00  0.00    +0.000 C 
ATOM     42  C   UNL     1     113.337 130.390 141.047  0.00  0.00    +0.000 C 
ENDBRANCH  32  37
ENDBRANCH  26  32
ENDBRANCH  22  29
ENDBRANCH   5  22
BRANCH  10  43
ATOM     43  C   UNL     1     111.644 124.956 136.924  0.00  0.00    +0.000 C 
BRANCH  43  44
ATOM     44  C   UNL     1     112.187 124.582 136.428  0.00  0.00    +0.000 C 
BRANCH  44  46
ATOM     45  O   UNL     1     113.097 123.328 136.995  0.00  0.00    +0.000 OA
ATOM     46  C   UNL     1     112.642 123.955 136.711  0.00  0.00    +0.000 C 
ATOM     47  C   UNL     1     111.963 123.602 137.021  0.00  0.00    +0.000 C 
ATOM     48  C   UNL     1     113.320 124.308 136.402  0.00  0.00    +0.000 C 
ENDBRANCH  44  46
ENDBRANCH  43  44
ENDBRANCH  10  43
TORSDOF 9
ENDMDL
MODEL 4
REMARK VINA RESULT:      -9.9      1.841      5.703
REMARK  Name = 44259081
REMARK  9 active torsions:
REMARK  status: ('A' for Active; 'I' for Inactive)
REMARK    1  A    between atoms: O_1  and  C_16
REMARK    2  A    between atoms: O_1  and  C_19
REMARK    3  A    between atoms: O_4  and  C_20
REMARK    4  A    between atoms: O_4  and  C_28
REMARK    5  A    between atoms: O_15  and  C_47
REMARK    6  A    between atoms: C_29  and  C_37
REMARK    7  A    between atoms: C_33  and  C_34
REMARK    8  A    between atoms: C_34  and  C_35
REMARK    9  A    between atoms: C_35  and  C_36
REMARK                            x       y       z     vdW  Elec       q    Type
REMARK                         _______ _______ _______ _____ _____    ______ ____
ROOT
ATOM      1  O   UNL     1     109.862 130.209 135.993  0.00  0.00    +0.000 OA
ATOM      2  O   UNL     1     111.784 130.155 137.551  0.00  0.00    +0.000 OA
ATOM      3  O   UNL     1     111.791 131.595 137.637  0.00  0.00    +0.000 OA
ATOM      4  O   UNL     1     109.817 133.119 136.117  0.00  0.00    +0.000 OA
ATOM      5  C   UNL     1     110.830 129.468 136.738  0.00  0.00    +0.000 A 
ATOM      6  C   UNL     1     110.190 129.487 136.219  0.00  0.00    +0.000 A 
ATOM      7  C   UNL     1     111.143 130.174 137.032  0.00  0.00    +0.000 A 
ATOM      8  C   UNL     1     110.816 130.896 136.806  0.00  0.00    +0.000 A 
ATOM      9  C   UNL     1     110.175 130.913 136.286  0.00  0.00    +0.000 A 
ATOM     10  C   UNL     1     109.825 131.659 136.043  0.00  0.00    +0.000 A 
ATOM     11  C   UNL     1     111.150 131.623 137.118  0.00  0.00    +0.000 A 
ATOM     12  C   UNL     1     110.146 132.397 136.345  0.00  0.00    +0.000 A 
ATOM     13  C   UNL     1     110.814 132.378 136.886  0.00  0.00    +0.000 A 
ENDROOT
BRANCH   6  14
ATOM     14  C   UNL     1     109.877 128.781 135.925  0.00  0.00    +0.000 A 
ATOM     15  C   UNL     1     109.332 128.353 136.373  0.00  0.00    +0.000 A 
ATOM     16  C   UNL     1     110.109 128.505 135.183  0.00  0.00    +0.000 A 
ATOM     17  C   UNL     1     109.020 127.649 136.080  0.00  0.00    +0.000 A 
ATOM     18  C   UNL     1     109.796 127.800 134.890  0.00  0.00    +0.000 A 
ATOM     19  C   UNL     1     109.252 127.372 135.338  0.00  0.00    +0.000 A 
BRANCH  19  20
ATOM     20  O   UNL     1     108.939 126.667 135.044  0.00  0.00    +0.000 OA
ATOM     21  C   UNL     1     109.443 126.078 134.763  0.00  0.00    +0.000 C 
ENDBRANCH  19  20
ENDBRANCH   6  14
BRANCH   5  22
ATOM     22  O   UNL     1     111.158 128.746 136.964  0.00  0.00    +0.000 OA
BRANCH  22  29
ATOM     23  O   UNL     1     112.300 128.853 136.113  0.00  0.00    +0.000 OA
ATOM     24  O   UNL     1     113.646 127.585 137.757  0.00  0.00    +0.000 OA
ATOM     25  O   UNL     1     114.340 128.115 136.357  0.00  0.00    +0.000 OA
ATOM     26  C   UNL     1     112.402 128.166 137.360  0.00  0.00    +0.000 C 
ATOM     27  C   UNL     1     113.198 128.008 137.209  0.00  0.00    +0.000 C 
ATOM     28  C   UNL     1     113.544 128.273 136.509  0.00  0.00    +0.000 C 
ATOM     29  C   UNL     1     111.954 128.588 136.812  0.00  0.00    +0.000 C 
ATOM     30  C   UNL     1     113.095 128.696 135.961  0.00  0.00    +0.000 C 
ATOM     31  C   UNL     1     113.443 128.961 135.261  0.00  0.00    +0.000 C 
BRANCH  26  32
ATOM     32  O   UNL     1     112.055 127.900 138.061  0.00  0.00    +0.000 OA
BRANCH  32  37
ATOM     33  O   UNL     1     111.966 126.582 137.517  0.00  0.00    +0.000 OA
ATOM     34  O   UNL     1     111.345 127.374 139.454  0.00  0.00    +0.000 OA
ATOM     35  O   UNL     1     110.900 125.792 139.607  0.00  0.00    +0.000 OA
ATOM     36  O   UNL     1     111.165 124.737 138.367  0.00  0.00    +0.000 OA
ATOM     37  C   UNL     1     111.833 127.109 138.137  0.00  0.00    +0.000 C 
ATOM     38  C   UNL     1     111.478 126.847 138.833  0.00  0.00    +0.000 C 
ATOM     39  C   UNL     1     111.255 126.056 138.910  0.00  0.00    +0.000 C 
ATOM     40  C   UNL     1     111.388 125.528 138.290  0.00  0.00    +0.000 C 
ATOM     41  C   UNL     1     111.743 125.791 137.593  0.00  0.00    +0.000 C 
ATOM     42  C   UNL     1     111.876 125.263 136.973  0.00  0.00    +0.000 C 
ENDBRANCH  32  37
ENDBRANCH  26  32
ENDBRANCH  22  29
ENDBRANCH   5  22
BRANCH  10  43
ATOM     43  C   UNL     1     109.185 131.668 135.523  0.00  0.00    +0.000 C 
BRANCH  43  44
ATOM     44  C   UNL     1     108.477 132.030 135.745  0.00  0.00    +0.000 C 
BRANCH  44  46
ATOM     45  O   UNL     1     107.122 131.825 134.826  0.00  0.00    +0.000 OA
ATOM     46  C   UNL     1     107.799 131.927 135.285  0.00  0.00    +0.000 C 
ATOM     47  C   UNL     1     108.220 132.154 134.614  0.00  0.00    +0.000 C 
ATOM     48  C   UNL     1     107.378 131.701 135.957  0.00  0.00    +0.000 C 
ENDBRANCH  44  46
ENDBRANCH  43  44
ENDBRANCH  10  43
TORSDOF 9
ENDMDL
MODEL 5
REMARK VINA RESULT:      -9.7      2.181      2.944
REMARK  Name = 44259081
REMARK  9 active torsions:
REMARK  status: ('A' for Active; 'I' for Inactive)
REMARK    1  A    between atoms: O_1  and  C_16
REMARK    2  A    between atoms: O_1  and  C_19
REMARK    3  A    between atoms: O_4  and  C_20
REMARK    4  A    between atoms: O_4  and  C_28
REMARK    5  A    between atoms: O_15  and  C_47
REMARK    6  A    between atoms: C_29  and  C_37
REMARK    7  A    between atoms: C_33  and  C_34
REMARK    8  A    between atoms: C_34  and  C_35
REMARK    9  A    between atoms: C_35  and  C_36
REMARK                            x       y       z     vdW  Elec       q    Type
REMARK                         _______ _______ _______ _____ _____    ______ ____
ROOT
ATOM      1  O   UNL     1     111.496 126.265 137.897  0.00  0.00    +0.000 OA
ATOM      2  O   UNL     1     109.336 127.471 137.851  0.00  0.00    +0.000 OA
ATOM      3  O   UNL     1     109.010 126.896 136.568  0.00  0.00    +0.000 OA
ATOM      4  O   UNL     1     110.906 125.067 135.309  0.00  0.00    +0.000 OA
ATOM      5  C   UNL     1     110.565 127.159 138.509  0.00  0.00    +0.000 A 
ATOM      6  C   UNL     1     111.285 126.757 138.524  0.00  0.00    +0.000 A 
ATOM      7  C   UNL     1     110.056 127.068 137.866  0.00  0.00    +0.000 A 
ATOM      8  C   UNL     1     110.267 126.576 137.238  0.00  0.00    +0.000 A 
ATOM      9  C   UNL     1     110.987 126.174 137.255  0.00  0.00    +0.000 A 
ATOM     10  C   UNL     1     111.218 125.659 136.607  0.00  0.00    +0.000 A 
ATOM     11  C   UNL     1     109.728 126.490 136.575  0.00  0.00    +0.000 A 
ATOM     12  C   UNL     1     110.692 125.560 135.934  0.00  0.00    +0.000 A 
ATOM     13  C   UNL     1     109.942 125.979 135.919  0.00  0.00    +0.000 A 
ENDROOT
BRANCH   6  14
ATOM     14  C   UNL     1     111.795 126.848 139.167  0.00  0.00    +0.000 A 
ATOM     15  C   UNL     1     112.418 127.387 139.128  0.00  0.00    +0.000 A 
ATOM     16  C   UNL     1     111.680 126.399 139.850  0.00  0.00    +0.000 A 
ATOM     17  C   UNL     1     112.926 127.477 139.770  0.00  0.00    +0.000 A 
ATOM     18  C   UNL     1     112.189 126.489 140.493  0.00  0.00    +0.000 A 
ATOM     19  C   UNL     1     112.813 127.029 140.453  0.00  0.00    +0.000 A 
BRANCH  19  20
ATOM     20  O   UNL     1     113.321 127.119 141.096  0.00  0.00    +0.000 OA
ATOM     21  C   UNL     1     114.128 127.240 140.971  0.00  0.00    +0.000 C 
ENDBRANCH  19  20
ENDBRANCH   6  14
BRANCH   5  22
ATOM     22  O   UNL     1     110.354 127.652 139.137  0.00  0.00    +0.000 OA
BRANCH  22  29
ATOM     23  O   UNL     1     110.600 128.882 138.452  0.00  0.00    +0.000 OA
ATOM     24  O   UNL     1     108.705 129.928 139.651  0.00  0.00    +0.000 OA
ATOM     25  O   UNL     1     109.583 130.809 138.567  0.00  0.00    +0.000 OA
ATOM     26  C   UNL     1     109.530 128.790 139.393  0.00  0.00    +0.000 C 
ATOM     27  C   UNL     1     109.337 129.579 139.251  0.00  0.00    +0.000 C 
ATOM     28  C   UNL     1     109.776 130.019 138.709  0.00  0.00    +0.000 C 
ATOM     29  C   UNL     1     110.162 128.441 138.994  0.00  0.00    +0.000 C 
ATOM     30  C   UNL     1     110.408 129.671 138.310  0.00  0.00    +0.000 C 
ATOM     31  C   UNL     1     110.847 130.112 137.768  0.00  0.00    +0.000 C 
BRANCH  26  32
ATOM     32  O   UNL     1     109.090 128.349 139.936  0.00  0.00    +0.000 OA
BRANCH  32  37
ATOM     33  O   UNL     1     109.838 128.925 141.009  0.00  0.00    +0.000 OA
ATOM     34  O   UNL     1     108.202 127.478 141.020  0.00  0.00    +0.000 OA
ATOM     35  O   UNL     1     108.506 127.618 142.636  0.00  0.00    +0.000 OA
ATOM     36  O   UNL     1     109.697 128.629 143.167  0.00  0.00    +0.000 OA
ATOM     37  C   UNL     1     109.242 128.419 140.744  0.00  0.00    +0.000 C 
ATOM     38  C   UNL     1     108.798 127.984 141.285  0.00  0.00    +0.000 C 
ATOM     39  C   UNL     1     108.950 128.054 142.093  0.00  0.00    +0.000 C 
ATOM     40  C   UNL     1     109.545 128.559 142.359  0.00  0.00    +0.000 C 
ATOM     41  C   UNL     1     109.990 128.995 141.817  0.00  0.00    +0.000 C 
ATOM     42  C   UNL     1     110.585 129.500 142.083  0.00  0.00    +0.000 C 
ENDBRANCH  32  37
ENDBRANCH  26  32
ENDBRANCH  22  29
ENDBRANCH   5  22
BRANCH  10  43
ATOM     43  C   UNL     1     111.941 125.260 136.631  0.00  0.00    +0.000 C 
BRANCH  43  44
ATOM     44  C   UNL     1     111.959 124.436 136.602  0.00  0.00    +0.000 C 
BRANCH  44  46
ATOM     45  O   UNL     1     113.331 123.626 137.029  0.00  0.00    +0.000 OA
ATOM     46  C   UNL     1     112.645 124.031 136.815  0.00  0.00    +0.000 C 
ATOM     47  C   UNL     1     112.192 123.486 137.238  0.00  0.00    +0.000 C 
ATOM     48  C   UNL     1     113.098 124.575 136.393  0.00  0.00    +0.000 C 
ENDBRANCH  44  46
ENDBRANCH  43  44
ENDBRANCH  10  43
TORSDOF 9
ENDMDL
MODEL 6
REMARK VINA RESULT:      -9.6      1.683      5.871
REMARK  Name = 44259081
REMARK  9 active torsions:
REMARK  status: ('A' for Active; 'I' for Inactive)
REMARK    1  A    between atoms: O_1  and  C_16
REMARK    2  A    between atoms: O_1  and  C_19
REMARK    3  A    between atoms: O_4  and  C_20
REMARK    4  A    between atoms: O_4  and  C_28
REMARK    5  A    between atoms: O_15  and  C_47
REMARK    6  A    between atoms: C_29  and  C_37
REMARK    7  A    between atoms: C_33  and  C_34
REMARK    8  A    between atoms: C_34  and  C_35
REMARK    9  A    between atoms: C_35  and  C_36
REMARK                            x       y       z     vdW  Elec       q    Type
REMARK                         _______ _______ _______ _____ _____    ______ ____
ROOT
ATOM      1  O   UNL     1     110.103 130.044 136.130  0.00  0.00    +0.000 OA
ATOM      2  O   UNL     1     111.889 129.939 137.839  0.00  0.00    +0.000 OA
ATOM      3  O   UNL     1     111.904 131.377 137.953  0.00  0.00    +0.000 OA
ATOM      4  O   UNL     1     110.076 132.951 136.306  0.00  0.00    +0.000 OA
ATOM      5  C   UNL     1     110.999 129.278 136.938  0.00  0.00    +0.000 A 
ATOM      6  C   UNL     1     110.404 129.314 136.368  0.00  0.00    +0.000 A 
ATOM      7  C   UNL     1     111.294 129.975 137.270  0.00  0.00    +0.000 A 
ATOM      8  C   UNL     1     110.993 130.705 137.031  0.00  0.00    +0.000 A 
ATOM      9  C   UNL     1     110.398 130.739 136.461  0.00  0.00    +0.000 A 
ATOM     10  C   UNL     1     110.076 131.493 136.205  0.00  0.00    +0.000 A 
ATOM     11  C   UNL     1     111.308 131.422 137.384  0.00  0.00    +0.000 A 
ATOM     12  C   UNL     1     110.379 132.222 136.546  0.00  0.00    +0.000 A 
ATOM     13  C   UNL     1     110.999 132.185 137.140  0.00  0.00    +0.000 A 
ENDROOT
BRANCH   6  14
ATOM     14  C   UNL     1     110.109 128.618 136.036  0.00  0.00    +0.000 A 
ATOM     15  C   UNL     1     109.421 128.276 136.337  0.00  0.00    +0.000 A 
ATOM     16  C   UNL     1     110.503 128.264 135.404  0.00  0.00    +0.000 A 
ATOM     17  C   UNL     1     109.127 127.581 136.005  0.00  0.00    +0.000 A 
ATOM     18  C   UNL     1     110.209 127.567 135.072  0.00  0.00    +0.000 A 
ATOM     19  C   UNL     1     109.520 127.226 135.373  0.00  0.00    +0.000 A 
BRANCH  19  20
ATOM     20  O   UNL     1     109.226 126.531 135.041  0.00  0.00    +0.000 OA
ATOM     21  C   UNL     1     109.741 125.991 134.689  0.00  0.00    +0.000 C 
ENDBRANCH  19  20
ENDBRANCH   6  14
BRANCH   5  22
ATOM     22  O   UNL     1     111.300 128.548 137.176  0.00  0.00    +0.000 OA
BRANCH  22  29
ATOM     23  O   UNL     1     110.643 128.548 138.445  0.00  0.00    +0.000 OA
ATOM     24  O   UNL     1     112.530 127.279 139.422  0.00  0.00    +0.000 OA
ATOM     25  O   UNL     1     111.243 127.702 140.365  0.00  0.00    +0.000 OA
ATOM     26  C   UNL     1     111.914 127.914 138.299  0.00  0.00    +0.000 C 
ATOM     27  C   UNL     1     111.901 127.702 139.096  0.00  0.00    +0.000 C 
ATOM     28  C   UNL     1     111.257 127.914 139.567  0.00  0.00    +0.000 C 
ATOM     29  C   UNL     1     111.285 128.337 137.974  0.00  0.00    +0.000 C 
ATOM     30  C   UNL     1     110.628 128.337 139.242  0.00  0.00    +0.000 C 
ATOM     31  C   UNL     1     109.985 128.548 139.714  0.00  0.00    +0.000 C 
BRANCH  26  32
ATOM     32  O   UNL     1     112.558 127.702 137.828  0.00  0.00    +0.000 OA
BRANCH  32  37
ATOM     33  O   UNL     1     112.050 126.370 137.733  0.00  0.00    +0.000 OA
ATOM     34  O   UNL     1     113.836 127.283 136.872  0.00  0.00    +0.000 OA
ATOM     35  O   UNL     1     113.968 125.741 136.300  0.00  0.00    +0.000 OA
ATOM     36  O   UNL     1     112.822 124.618 136.683  0.00  0.00    +0.000 OA
ATOM     37  C   UNL     1     112.624 126.931 137.541  0.00  0.00    +0.000 C 
ATOM     38  C   UNL     1     113.263 126.722 137.064  0.00  0.00    +0.000 C 
ATOM     39  C   UNL     1     113.329 125.951 136.778  0.00  0.00    +0.000 C 
ATOM     40  C   UNL     1     112.756 125.389 136.969  0.00  0.00    +0.000 C 
ATOM     41  C   UNL     1     112.116 125.599 137.447  0.00  0.00    +0.000 C 
ATOM     42  C   UNL     1     111.543 125.037 137.638  0.00  0.00    +0.000 C 
ENDBRANCH  32  37
ENDBRANCH  26  32
ENDBRANCH  22  29
ENDBRANCH   5  22
BRANCH  10  43
ATOM     43  C   UNL     1     109.481 131.519 135.634  0.00  0.00    +0.000 C 
BRANCH  43  44
ATOM     44  C   UNL     1     108.775 131.916 135.791  0.00  0.00    +0.000 C 
BRANCH  44  46
ATOM     45  O   UNL     1     107.479 131.724 134.788  0.00  0.00    +0.000 OA
ATOM     46  C   UNL     1     108.127 131.820 135.290  0.00  0.00    +0.000 C 
ATOM     47  C   UNL     1     108.597 132.024 134.643  0.00  0.00    +0.000 C 
ATOM     48  C   UNL     1     107.657 131.615 135.936  0.00  0.00    +0.000 C 
ENDBRANCH  44  46
ENDBRANCH  43  44
ENDBRANCH  10  43
TORSDOF 9
ENDMDL
MODEL 7
REMARK VINA RESULT:      -9.6      1.741      3.464
REMARK  Name = 44259081
REMARK  9 active torsions:
REMARK  status: ('A' for Active; 'I' for Inactive)
REMARK    1  A    between atoms: O_1  and  C_16
REMARK    2  A    between atoms: O_1  and  C_19
REMARK    3  A    between atoms: O_4  and  C_20
REMARK    4  A    between atoms: O_4  and  C_28
REMARK    5  A    between atoms: O_15  and  C_47
REMARK    6  A    between atoms: C_29  and  C_37
REMARK    7  A    between atoms: C_33  and  C_34
REMARK    8  A    between atoms: C_34  and  C_35
REMARK    9  A    between atoms: C_35  and  C_36
REMARK                            x       y       z     vdW  Elec       q    Type
REMARK                         _______ _______ _______ _____ _____    ______ ____
ROOT
ATOM      1  O   UNL     1     112.222 126.240 137.861  0.00  0.00    +0.000 OA
ATOM      2  O   UNL     1     112.863 128.554 137.262  0.00  0.00    +0.000 OA
ATOM      3  O   UNL     1     113.912 128.070 136.398  0.00  0.00    +0.000 OA
ATOM      4  O   UNL     1     114.320 125.190 136.135  0.00  0.00    +0.000 OA
ATOM      5  C   UNL     1     112.026 127.650 137.986  0.00  0.00    +0.000 A 
ATOM      6  C   UNL     1     111.813 126.878 138.186  0.00  0.00    +0.000 A 
ATOM      7  C   UNL     1     112.650 127.782 137.462  0.00  0.00    +0.000 A 
ATOM      8  C   UNL     1     113.059 127.144 137.137  0.00  0.00    +0.000 A 
ATOM      9  C   UNL     1     112.844 126.372 137.337  0.00  0.00    +0.000 A 
ATOM     10  C   UNL     1     113.262 125.699 137.005  0.00  0.00    +0.000 A 
ATOM     11  C   UNL     1     113.705 127.295 136.592  0.00  0.00    +0.000 A 
ATOM     12  C   UNL     1     113.912 125.831 136.458  0.00  0.00    +0.000 A 
ATOM     13  C   UNL     1     114.135 126.634 136.250  0.00  0.00    +0.000 A 
ENDROOT
BRANCH   6  14
ATOM     14  C   UNL     1     111.189 126.746 138.711  0.00  0.00    +0.000 A 
ATOM     15  C   UNL     1     111.345 126.608 139.509  0.00  0.00    +0.000 A 
ATOM     16  C   UNL     1     110.412 126.751 138.436  0.00  0.00    +0.000 A 
ATOM     17  C   UNL     1     110.722 126.475 140.033  0.00  0.00    +0.000 A 
ATOM     18  C   UNL     1     109.788 126.618 138.961  0.00  0.00    +0.000 A 
ATOM     19  C   UNL     1     109.943 126.480 139.759  0.00  0.00    +0.000 A 
BRANCH  19  20
ATOM     20  O   UNL     1     109.321 126.348 140.283  0.00  0.00    +0.000 OA
ATOM     21  C   UNL     1     109.434 126.451 141.094  0.00  0.00    +0.000 C 
ENDBRANCH  19  20
ENDBRANCH   6  14
BRANCH   5  22
ATOM     22  O   UNL     1     111.617 128.288 138.311  0.00  0.00    +0.000 OA
BRANCH  22  29
ATOM     23  O   UNL     1     112.655 128.670 139.217  0.00  0.00    +0.000 OA
ATOM     24  O   UNL     1     112.003 131.044 138.962  0.00  0.00    +0.000 OA
ATOM     25  O   UNL     1     113.258 130.635 139.953  0.00  0.00    +0.000 OA
ATOM     26  C   UNL     1     111.811 129.666 138.637  0.00  0.00    +0.000 C 
ATOM     27  C   UNL     1     112.220 130.253 139.047  0.00  0.00    +0.000 C 
ATOM     28  C   UNL     1     112.847 130.048 139.542  0.00  0.00    +0.000 C 
ATOM     29  C   UNL     1     112.028 128.875 138.722  0.00  0.00    +0.000 C 
ATOM     30  C   UNL     1     113.064 129.256 139.627  0.00  0.00    +0.000 C 
ATOM     31  C   UNL     1     113.692 129.052 140.123  0.00  0.00    +0.000 C 
BRANCH  26  32
ATOM     32  O   UNL     1     111.183 129.871 138.141  0.00  0.00    +0.000 OA
BRANCH  32  37
ATOM     33  O   UNL     1     110.318 129.969 139.274  0.00  0.00    +0.000 OA
ATOM     34  O   UNL     1     109.966 130.407 137.164  0.00  0.00    +0.000 OA
ATOM     35  O   UNL     1     108.492 130.773 137.808  0.00  0.00    +0.000 OA
ATOM     36  O   UNL     1     108.234 130.604 139.429  0.00  0.00    +0.000 OA
ATOM     37  C   UNL     1     110.446 130.054 138.463  0.00  0.00    +0.000 C 
ATOM     38  C   UNL     1     109.838 130.322 137.975  0.00  0.00    +0.000 C 
ATOM     39  C   UNL     1     109.101 130.505 138.297  0.00  0.00    +0.000 C 
ATOM     40  C   UNL     1     108.971 130.421 139.107  0.00  0.00    +0.000 C 
ATOM     41  C   UNL     1     109.581 130.153 139.596  0.00  0.00    +0.000 C 
ATOM     42  C   UNL     1     109.451 130.068 140.406  0.00  0.00    +0.000 C 
ENDBRANCH  32  37
ENDBRANCH  26  32
ENDBRANCH  22  29
ENDBRANCH   5  22
BRANCH  10  43
ATOM     43  C   UNL     1     113.042 124.931 137.210  0.00  0.00    +0.000 C 
BRANCH  43  44
ATOM     44  C   UNL     1     112.774 124.409 136.630  0.00  0.00    +0.000 C 
BRANCH  44  46
ATOM     45  O   UNL     1     112.018 123.009 137.065  0.00  0.00    +0.000 OA
ATOM     46  C   UNL     1     112.396 123.709 136.848  0.00  0.00    +0.000 C 
ATOM     47  C   UNL     1     113.019 123.531 137.358  0.00  0.00    +0.000 C 
ATOM     48  C   UNL     1     111.774 123.886 136.337  0.00  0.00    +0.000 C 
ENDBRANCH  44  46
ENDBRANCH  43  44
ENDBRANCH  10  43
TORSDOF 9
ENDMDL
MODEL 8
REMARK VINA RESULT:      -9.6      1.591      5.550
REMARK  Name = 44259081
REMARK  9 active torsions:
REMARK  status: ('A' for Active; 'I' for Inactive)
REMARK    1  A    between atoms: O_1  and  C_16
REMARK    2  A    between atoms: O_1  and  C_19
REMARK    3  A    between atoms: O_4  and  C_20
REMARK    4  A    between atoms: O_4  and  C_28
REMARK    5  A    between atoms: O_15  and  C_47
REMARK    6  A    between atoms: C_29  and  C_37
REMARK    7  A    between atoms: C_33  and  C_34
REMARK    8  A    between atoms: C_34  and  C_35
REMARK    9  A    between atoms: C_35  and  C_36
REMARK                            x       y       z     vdW  Elec       q    Type
REMARK                         _______ _______ _______ _____ _____    ______ ____
ROOT
ATOM      1  O   UNL     1     110.950 130.285 137.646  0.00  0.00    +0.000 OA
ATOM      2  O   UNL     1     110.068 128.383 138.961  0.00  0.00    +0.000 OA
ATOM      3  O   UNL     1     109.028 129.213 139.518  0.00  0.00    +0.000 OA
ATOM      4  O   UNL     1     108.878 132.021 138.729  0.00  0.00    +0.000 OA
ATOM      5  C   UNL     1     111.019 128.911 138.035  0.00  0.00    +0.000 A 
ATOM      6  C   UNL     1     111.313 129.546 137.597  0.00  0.00    +0.000 A 
ATOM      7  C   UNL     1     110.361 129.017 138.523  0.00  0.00    +0.000 A 
ATOM      8  C   UNL     1     109.998 129.756 138.572  0.00  0.00    +0.000 A 
ATOM      9  C   UNL     1     110.293 130.390 138.133  0.00  0.00    +0.000 A 
ATOM     10  C   UNL     1     109.924 131.164 138.176  0.00  0.00    +0.000 A 
ATOM     11  C   UNL     1     109.315 129.853 139.083  0.00  0.00    +0.000 A 
ATOM     12  C   UNL     1     109.239 131.281 138.682  0.00  0.00    +0.000 A 
ATOM     13  C   UNL     1     108.932 130.620 139.138  0.00  0.00    +0.000 A 
ENDROOT
BRANCH   6  14
ATOM     14  C   UNL     1     111.970 129.440 137.109  0.00  0.00    +0.000 A 
ATOM     15  C   UNL     1     111.876 129.130 136.350  0.00  0.00    +0.000 A 
ATOM     16  C   UNL     1     112.722 129.645 137.381  0.00  0.00    +0.000 A 
ATOM     17  C   UNL     1     112.533 129.025 135.863  0.00  0.00    +0.000 A 
ATOM     18  C   UNL     1     113.379 129.539 136.893  0.00  0.00    +0.000 A 
ATOM     19  C   UNL     1     113.285 129.229 136.134  0.00  0.00    +0.000 A 
BRANCH  19  20
ATOM     20  O   UNL     1     113.942 129.124 135.647  0.00  0.00    +0.000 OA
ATOM     21  C   UNL     1     114.030 129.583 134.967  0.00  0.00    +0.000 C 
ENDBRANCH  19  20
ENDBRANCH   6  14
BRANCH   5  22
ATOM     22  O   UNL     1     111.382 128.172 137.986  0.00  0.00    +0.000 OA
BRANCH  22  29
ATOM     23  O   UNL     1     112.026 128.244 139.259  0.00  0.00    +0.000 OA
ATOM     24  O   UNL     1     111.740 125.802 139.542  0.00  0.00    +0.000 OA
ATOM     25  O   UNL     1     112.479 126.688 140.722  0.00  0.00    +0.000 OA
ATOM     26  C   UNL     1     111.561 126.988 138.765  0.00  0.00    +0.000 C 
ATOM     27  C   UNL     1     111.835 126.616 139.448  0.00  0.00    +0.000 C 
ATOM     28  C   UNL     1     112.205 127.060 140.037  0.00  0.00    +0.000 C 
ATOM     29  C   UNL     1     111.657 127.802 138.670  0.00  0.00    +0.000 C 
ATOM     30  C   UNL     1     112.300 127.874 139.943  0.00  0.00    +0.000 C 
ATOM     31  C   UNL     1     112.670 128.316 140.533  0.00  0.00    +0.000 C 
BRANCH  26  32
ATOM     32  O   UNL     1     111.191 126.544 138.174  0.00  0.00    +0.000 OA
BRANCH  32  37
ATOM     33  O   UNL     1     112.467 126.129 137.682  0.00  0.00    +0.000 OA
ATOM     34  O   UNL     1     110.448 125.539 137.098  0.00  0.00    +0.000 OA
ATOM     35  O   UNL     1     111.351 124.620 136.067  0.00  0.00    +0.000 OA
ATOM     36  O   UNL     1     112.998 124.707 136.113  0.00  0.00    +0.000 OA
ATOM     37  C   UNL     1     111.643 126.085 137.659  0.00  0.00    +0.000 C 
ATOM     38  C   UNL     1     111.271 125.582 137.121  0.00  0.00    +0.000 C 
ATOM     39  C   UNL     1     111.723 125.123 136.606  0.00  0.00    +0.000 C 
ATOM     40  C   UNL     1     112.547 125.166 136.628  0.00  0.00    +0.000 C 
ATOM     41  C   UNL     1     112.919 125.669 137.167  0.00  0.00    +0.000 C 
ATOM     42  C   UNL     1     113.742 125.712 137.189  0.00  0.00    +0.000 C 
ENDBRANCH  32  37
ENDBRANCH  26  32
ENDBRANCH  22  29
ENDBRANCH   5  22
BRANCH  10  43
ATOM     43  C   UNL     1     110.224 131.793 137.734  0.00  0.00    +0.000 C 
BRANCH  43  44
ATOM     44  C   UNL     1     109.727 132.223 137.236  0.00  0.00    +0.000 C 
BRANCH  44  46
ATOM     45  O   UNL     1     110.365 133.305 136.166  0.00  0.00    +0.000 OA
ATOM     46  C   UNL     1     110.046 132.764 136.701  0.00  0.00    +0.000 C 
ATOM     47  C   UNL     1     109.629 132.404 136.088  0.00  0.00    +0.000 C 
ATOM     48  C   UNL     1     110.464 133.124 137.314  0.00  0.00    +0.000 C 
ENDBRANCH  44  46
ENDBRANCH  43  44
ENDBRANCH  10  43
TORSDOF 9
ENDMDL
MODEL 9
REMARK VINA RESULT:      -9.6      1.371      5.231
REMARK  Name = 44259081
REMARK  9 active torsions:
REMARK  status: ('A' for Active; 'I' for Inactive)
REMARK    1  A    between atoms: O_1  and  C_16
REMARK    2  A    between atoms: O_1  and  C_19
REMARK    3  A    between atoms: O_4  and  C_20
REMARK    4  A    between atoms: O_4  and  C_28
REMARK    5  A    between atoms: O_15  and  C_47
REMARK    6  A    between atoms: C_29  and  C_37
REMARK    7  A    between atoms: C_33  and  C_34
REMARK    8  A    between atoms: C_34  and  C_35
REMARK    9  A    between atoms: C_35  and  C_36
REMARK                            x       y       z     vdW  Elec       q    Type
REMARK                         _______ _______ _______ _____ _____    ______ ____
ROOT
ATOM      1  O   UNL     1     110.592 129.627 136.909  0.00  0.00    +0.000 OA
ATOM      2  O   UNL     1     109.911 127.255 136.724  0.00  0.00    +0.000 OA
ATOM      3  O   UNL     1     108.682 127.629 136.068  0.00  0.00    +0.000 OA
ATOM      4  O   UNL     1     108.131 130.457 135.591  0.00  0.00    +0.000 OA
ATOM      5  C   UNL     1     110.857 128.242 137.140  0.00  0.00    +0.000 A 
ATOM      6  C   UNL     1     111.084 129.032 137.202  0.00  0.00    +0.000 A 
ATOM      7  C   UNL     1     110.138 128.045 136.785  0.00  0.00    +0.000 A 
ATOM      8  C   UNL     1     109.646 128.640 136.493  0.00  0.00    +0.000 A 
ATOM      9  C   UNL     1     109.874 129.431 136.555  0.00  0.00    +0.000 A 
ATOM     10  C   UNL     1     109.371 130.059 136.254  0.00  0.00    +0.000 A 
ATOM     11  C   UNL     1     108.901 128.423 136.126  0.00  0.00    +0.000 A 
ATOM     12  C   UNL     1     108.621 129.861 135.883  0.00  0.00    +0.000 A 
ATOM     13  C   UNL     1     108.385 129.037 135.819  0.00  0.00    +0.000 A 
ENDROOT
BRANCH   6  14
ATOM     14  C   UNL     1     111.803 129.229 137.557  0.00  0.00    +0.000 A 
ATOM     15  C   UNL     1     111.824 129.449 138.351  0.00  0.00    +0.000 A 
ATOM     16  C   UNL     1     112.500 129.204 137.116  0.00  0.00    +0.000 A 
ATOM     17  C   UNL     1     112.543 129.645 138.705  0.00  0.00    +0.000 A 
ATOM     18  C   UNL     1     113.219 129.400 137.471  0.00  0.00    +0.000 A 
ATOM     19  C   UNL     1     113.240 129.621 138.265  0.00  0.00    +0.000 A 
BRANCH  19  20
ATOM     20  O   UNL     1     113.959 129.817 138.619  0.00  0.00    +0.000 OA
ATOM     21  C   UNL     1     114.190 130.607 138.676  0.00  0.00    +0.000 C 
ENDBRANCH  19  20
ENDBRANCH   6  14
BRANCH   5  22
ATOM     22  O   UNL     1     111.349 127.647 137.433  0.00  0.00    +0.000 OA
BRANCH  22  29
ATOM     23  O   UNL     1     110.575 127.375 138.603  0.00  0.00    +0.000 OA
ATOM     24  O   UNL     1     111.169 124.978 138.438  0.00  0.00    +0.000 OA
ATOM     25  O   UNL     1     110.198 125.505 139.664  0.00  0.00    +0.000 OA
ATOM     26  C   UNL     1     111.258 126.313 137.936  0.00  0.00    +0.000 C 
ATOM     27  C   UNL     1     110.971 125.777 138.493  0.00  0.00    +0.000 C 
ATOM     28  C   UNL     1     110.486 126.041 139.106  0.00  0.00    +0.000 C 
ATOM     29  C   UNL     1     111.061 127.112 137.991  0.00  0.00    +0.000 C 
ATOM     30  C   UNL     1     110.288 126.840 139.161  0.00  0.00    +0.000 C 
ATOM     31  C   UNL     1     109.802 127.103 139.774  0.00  0.00    +0.000 C 
BRANCH  26  32
ATOM     32  O   UNL     1     111.744 126.049 137.323  0.00  0.00    +0.000 OA
BRANCH  32  37
ATOM     33  O   UNL     1     112.884 126.102 138.183  0.00  0.00    +0.000 OA
ATOM     34  O   UNL     1     112.632 125.232 136.197  0.00  0.00    +0.000 OA
ATOM     35  O   UNL     1     114.215 124.876 136.493  0.00  0.00    +0.000 OA
ATOM     36  O   UNL     1     114.911 125.337 137.917  0.00  0.00    +0.000 OA
ATOM     37  C   UNL     1     112.536 125.871 137.471  0.00  0.00    +0.000 C 
ATOM     38  C   UNL     1     112.979 125.463 136.908  0.00  0.00    +0.000 C 
ATOM     39  C   UNL     1     113.771 125.285 137.057  0.00  0.00    +0.000 C 
ATOM     40  C   UNL     1     114.120 125.515 137.768  0.00  0.00    +0.000 C 
ATOM     41  C   UNL     1     113.676 125.924 138.332  0.00  0.00    +0.000 C 
ATOM     42  C   UNL     1     114.024 126.154 139.043  0.00  0.00    +0.000 C 
ENDBRANCH  32  37
ENDBRANCH  26  32
ENDBRANCH  22  29
ENDBRANCH   5  22
BRANCH  10  43
ATOM     43  C   UNL     1     109.606 130.847 136.320  0.00  0.00    +0.000 C 
BRANCH  43  44
ATOM     44  C   UNL     1     109.121 131.392 136.706  0.00  0.00    +0.000 C 
BRANCH  44  46
ATOM     45  O   UNL     1     109.714 132.874 137.121  0.00  0.00    +0.000 OA
ATOM     46  C   UNL     1     109.418 132.133 136.914  0.00  0.00    +0.000 C 
ATOM     47  C   UNL     1     109.152 132.023 137.687  0.00  0.00    +0.000 C 
ATOM     48  C   UNL     1     109.683 132.243 136.141  0.00  0.00    +0.000 C 
ENDBRANCH  44  46
ENDBRANCH  43  44
ENDBRANCH  10  43
TORSDOF 9
ENDMDL
MODEL 10
REMARK VINA RESULT:      -9.6      2.005      2.857
REMARK  Name = 44259081
REMARK  9 active torsions:
REMARK  status: ('A' for Active; 'I' for Inactive)
REMARK    1  A    between atoms: O_1  and  C_16
REMARK    2  A    between atoms: O_1  and  C_19
REMARK    3  A    between atoms: O_4  and  C_20
REMARK    4  A    between atoms: O_4  and  C_28
REMARK    5  A    between atoms: O_15  and  C_47
REMARK    6  A    between atoms: C_29  and  C_37
REMARK    7  A    between atoms: C_33  and  C_34
REMARK    8  A    between atoms: C_34  and  C_35
REMARK    9  A    between atoms: C_35  and  C_36
REMARK                            x       y       z     vdW  Elec       q    Type
REMARK                         _______ _______ _______ _____ _____    ______ ____
ROOT
ATOM      1  O   UNL     1     112.520 126.363 138.349  0.00  0.00    +0.000 OA
ATOM      2  O   UNL     1     110.140 126.998 138.105  0.00  0.00    +0.000 OA
ATOM      3  O   UNL     1     109.941 125.975 137.107  0.00  0.00    +0.000 OA
ATOM      4  O   UNL     1     112.192 124.279 136.342  0.00  0.00    +0.000 OA
ATOM      5  C   UNL     1     111.416 127.191 138.721  0.00  0.00    +0.000 A 
ATOM      6  C   UNL     1     112.209 126.979 138.802  0.00  0.00    +0.000 A 
ATOM      7  C   UNL     1     110.933 126.786 138.186  0.00  0.00    +0.000 A 
ATOM      8  C   UNL     1     111.245 126.170 137.734  0.00  0.00    +0.000 A 
ATOM      9  C   UNL     1     112.038 125.959 137.816  0.00  0.00    +0.000 A 
ATOM     10  C   UNL     1     112.374 125.320 137.351  0.00  0.00    +0.000 A 
ATOM     11  C   UNL     1     110.733 125.757 137.182  0.00  0.00    +0.000 A 
ATOM     12  C   UNL     1     111.877 124.894 136.793  0.00  0.00    +0.000 A 
ATOM     13  C   UNL     1     111.051 125.114 136.708  0.00  0.00    +0.000 A 
ENDROOT
BRANCH   6  14
ATOM     14  C   UNL     1     112.691 127.384 139.336  0.00  0.00    +0.000 A 
ATOM     15  C   UNL     1     113.035 128.101 139.119  0.00  0.00    +0.000 A 
ATOM     16  C   UNL     1     112.828 127.070 140.086  0.00  0.00    +0.000 A 
ATOM     17  C   UNL     1     113.517 128.505 139.652  0.00  0.00    +0.000 A 
ATOM     18  C   UNL     1     113.310 127.475 140.620  0.00  0.00    +0.000 A 
ATOM     19  C   UNL     1     113.654 128.193 140.403  0.00  0.00    +0.000 A 
BRANCH  19  20
ATOM     20  O   UNL     1     114.136 128.597 140.937  0.00  0.00    +0.000 OA
ATOM     21  C   UNL     1     114.240 129.412 140.865  0.00  0.00    +0.000 C 
ENDBRANCH  19  20
ENDBRANCH   6  14
BRANCH   5  22
ATOM     22  O   UNL     1     111.104 127.806 139.173  0.00  0.00    +0.000 OA
BRANCH  22  29
ATOM     23  O   UNL     1     110.369 126.963 140.061  0.00  0.00    +0.000 OA
ATOM     24  O   UNL     1     108.620 128.702 140.265  0.00  0.00    +0.000 OA
ATOM     25  O   UNL     1     108.468 127.278 141.086  0.00  0.00    +0.000 OA
ATOM     26  C   UNL     1     109.862 128.253 139.719  0.00  0.00    +0.000 C 
ATOM     27  C   UNL     1     109.203 128.122 140.197  0.00  0.00    +0.000 C 
ATOM     28  C   UNL     1     109.128 127.410 140.607  0.00  0.00    +0.000 C 
ATOM     29  C   UNL     1     110.445 127.674 139.651  0.00  0.00    +0.000 C 
ATOM     30  C   UNL     1     109.711 126.831 140.539  0.00  0.00    +0.000 C 
ATOM     31  C   UNL     1     109.634 126.119 140.950  0.00  0.00    +0.000 C 
BRANCH  26  32
ATOM     32  O   UNL     1     109.938 128.966 139.309  0.00  0.00    +0.000 OA
BRANCH  32  37
ATOM     33  O   UNL     1     110.381 129.611 140.504  0.00  0.00    +0.000 OA
ATOM     34  O   UNL     1     109.943 130.416 138.522  0.00  0.00    +0.000 OA
ATOM     35  O   UNL     1     110.389 131.788 139.324  0.00  0.00    +0.000 OA
ATOM     36  O   UNL     1     110.830 131.709 140.912  0.00  0.00    +0.000 OA
ATOM     37  C   UNL     1     110.161 129.651 139.710  0.00  0.00    +0.000 C 
ATOM     38  C   UNL     1     110.164 130.376 139.317  0.00  0.00    +0.000 C 
ATOM     39  C   UNL     1     110.386 131.062 139.718  0.00  0.00    +0.000 C 
ATOM     40  C   UNL     1     110.607 131.023 140.511  0.00  0.00    +0.000 C 
ATOM     41  C   UNL     1     110.604 130.297 140.905  0.00  0.00    +0.000 C 
ATOM     42  C   UNL     1     110.825 130.258 141.699  0.00  0.00    +0.000 C 
ENDBRANCH  32  37
ENDBRANCH  26  32
ENDBRANCH  22  29
ENDBRANCH   5  22
BRANCH  10  43
ATOM     43  C   UNL     1     113.169 125.114 137.439  0.00  0.00    +0.000 C 
BRANCH  43  44
ATOM     44  C   UNL     1     113.676 125.140 136.789  0.00  0.00    +0.000 C 
BRANCH  44  46
ATOM     45  O   UNL     1     115.308 125.038 137.011  0.00  0.00    +0.000 OA
ATOM     46  C   UNL     1     114.492 125.089 136.900  0.00  0.00    +0.000 C 
ATOM     47  C   UNL     1     114.384 124.439 137.397  0.00  0.00    +0.000 C 
ATOM     48  C   UNL     1     114.600 125.739 136.404  0.00  0.00    +0.000 C 
ENDBRANCH  44  46
ENDBRANCH  43  44
ENDBRANCH  10  43
TORSDOF 9
ENDMDL
