MODEL 1
REMARK VINA RESULT:      -9.9      0.000      0.000
REMARK  Name = 11802256
REMARK  8 active torsions:
REMARK  status: ('A' for Active; 'I' for Inactive)
REMARK    1  A    between atoms: O_3  and  C_26
REMARK    2  A    between atoms: O_3  and  C_30
REMARK    3  A    between atoms: O_6  and  C_27
REMARK    4  A    between atoms: O_6  and  C_31
REMARK    5  A    between atoms: O_14  and  C_34
REMARK    6  A    between atoms: C_23  and  C_28
REMARK    7  A    between atoms: C_25  and  C_29
REMARK    8  A    between atoms: C_32  and  C_33
REMARK                            x       y       z     vdW  Elec       q    Type
REMARK                         _______ _______ _______ _____ _____    ______ ____
ROOT
ATOM      1  O   UNL     1     113.452 126.786 136.844  0.00  0.00    +0.000 OA
ATOM      2  O   UNL     1     111.596 125.404 135.964  0.00  0.00    +0.000 OA
ATOM      3  O   UNL     1     112.299 124.191 136.306  0.00  0.00    +0.000 OA
ATOM      4  O   UNL     1     114.929 124.382 137.563  0.00  0.00    +0.000 OA
ATOM      5  C   UNL     1     112.165 126.688 136.229  0.00  0.00    +0.000 A 
ATOM      6  C   UNL     1     112.783 127.149 136.522  0.00  0.00    +0.000 A 
ATOM      7  C   UNL     1     112.214 125.865 136.257  0.00  0.00    +0.000 A 
ATOM      8  C   UNL     1     112.883 125.503 136.579  0.00  0.00    +0.000 A 
ATOM      9  C   UNL     1     113.501 125.963 136.872  0.00  0.00    +0.000 A 
ATOM     10  C   UNL     1     112.923 124.644 136.602  0.00  0.00    +0.000 A 
ATOM     11  C   UNL     1     114.202 125.599 137.209  0.00  0.00    +0.000 A 
ATOM     12  C   UNL     1     113.616 124.262 136.936  0.00  0.00    +0.000 A 
ATOM     13  C   UNL     1     114.260 124.741 137.241  0.00  0.00    +0.000 A 
ENDROOT
BRANCH   6  15
ATOM     14  C   UNL     1     112.635 129.618 136.439  0.00  0.00    +0.000 A 
ATOM     15  C   UNL     1     112.734 127.972 136.494  0.00  0.00    +0.000 A 
ATOM     16  C   UNL     1     112.868 129.196 135.769  0.00  0.00    +0.000 A 
ATOM     17  C   UNL     1     112.450 129.217 137.136  0.00  0.00    +0.000 A 
ATOM     18  C   UNL     1     112.918 128.373 135.797  0.00  0.00    +0.000 A 
ATOM     19  C   UNL     1     112.500 128.394 137.164  0.00  0.00    +0.000 A 
BRANCH  16  20
ATOM     20  O   UNL     1     113.052 129.597 135.072  0.00  0.00    +0.000 OA
ATOM     21  C   UNL     1     113.700 129.360 134.618  0.00  0.00    +0.000 C 
ENDBRANCH  16  20
BRANCH  14  22
ATOM     22  O   UNL     1     112.585 130.441 136.411  0.00  0.00    +0.000 OA
BRANCH  22  31
ATOM     23  O   UNL     1     111.166 130.546 136.293  0.00  0.00    +0.000 OA
ATOM     24  O   UNL     1     111.183 132.497 137.815  0.00  0.00    +0.000 OA
ATOM     25  O   UNL     1     109.757 131.951 137.189  0.00  0.00    +0.000 OA
ATOM     26  O   UNL     1     112.597 131.742 137.426  0.00  0.00    +0.000 OA
ATOM     27  C   UNL     1     111.177 131.847 137.308  0.00  0.00    +0.000 C 
ATOM     28  C   UNL     1     110.464 131.574 136.995  0.00  0.00    +0.000 C 
ATOM     29  C   UNL     1     111.884 131.470 137.113  0.00  0.00    +0.000 C 
ATOM     30  C   UNL     1     110.458 130.924 136.487  0.00  0.00    +0.000 C 
ATOM     31  C   UNL     1     111.879 130.819 136.605  0.00  0.00    +0.000 C 
BRANCH  30  33
ATOM     32  O   UNL     1     109.691 130.466 135.372  0.00  0.00    +0.000 OA
ATOM     33  C   UNL     1     109.746 130.650 136.174  0.00  0.00    +0.000 C 
ENDBRANCH  30  33
ENDBRANCH  22  31
ENDBRANCH  14  22
ENDBRANCH   6  15
BRANCH   5  34
ATOM     34  O   UNL     1     111.497 127.050 135.908  0.00  0.00    +0.000 OA
BRANCH  34  43
ATOM     35  O   UNL     1     110.689 126.760 137.051  0.00  0.00    +0.000 OA
ATOM     36  O   UNL     1     108.659 126.844 135.637  0.00  0.00    +0.000 OA
ATOM     37  O   UNL     1     108.529 126.527 137.250  0.00  0.00    +0.000 OA
ATOM     38  O   UNL     1     110.144 127.106 134.966  0.00  0.00    +0.000 OA
ATOM     39  C   UNL     1     109.336 126.816 136.108  0.00  0.00    +0.000 C 
ATOM     40  C   UNL     1     109.271 126.657 136.915  0.00  0.00    +0.000 C 
ATOM     41  C   UNL     1     110.079 126.947 135.772  0.00  0.00    +0.000 C 
ATOM     42  C   UNL     1     109.947 126.629 137.386  0.00  0.00    +0.000 C 
ATOM     43  C   UNL     1     110.755 126.919 136.243  0.00  0.00    +0.000 C 
BRANCH  42  45
ATOM     44  O   UNL     1     110.065 127.057 138.744  0.00  0.00    +0.000 OA
ATOM     45  C   UNL     1     109.882 126.471 138.193  0.00  0.00    +0.000 C 
ENDBRANCH  42  45
ENDBRANCH  34  43
ENDBRANCH   5  34
TORSDOF 8
ENDMDL
MODEL 2
REMARK VINA RESULT:      -9.9      2.542      6.263
REMARK  Name = 11802256
REMARK  8 active torsions:
REMARK  status: ('A' for Active; 'I' for Inactive)
REMARK    1  A    between atoms: O_3  and  C_26
REMARK    2  A    between atoms: O_3  and  C_30
REMARK    3  A    between atoms: O_6  and  C_27
REMARK    4  A    between atoms: O_6  and  C_31
REMARK    5  A    between atoms: O_14  and  C_34
REMARK    6  A    between atoms: C_23  and  C_28
REMARK    7  A    between atoms: C_25  and  C_29
REMARK    8  A    between atoms: C_32  and  C_33
REMARK                            x       y       z     vdW  Elec       q    Type
REMARK                         _______ _______ _______ _____ _____    ______ ____
ROOT
ATOM      1  O   UNL     1     110.993 128.908 138.601  0.00  0.00    +0.000 OA
ATOM      2  O   UNL     1     112.188 131.049 138.945  0.00  0.00    +0.000 OA
ATOM      3  O   UNL     1     110.965 131.793 138.768  0.00  0.00    +0.000 OA
ATOM      4  O   UNL     1     108.486 130.344 138.234  0.00  0.00    +0.000 OA
ATOM      5  C   UNL     1     112.203 129.622 138.862  0.00  0.00    +0.000 A 
ATOM      6  C   UNL     1     111.805 128.908 138.748  0.00  0.00    +0.000 A 
ATOM      7  C   UNL     1     111.790 130.335 138.830  0.00  0.00    +0.000 A 
ATOM      8  C   UNL     1     110.978 130.335 138.683  0.00  0.00    +0.000 A 
ATOM      9  C   UNL     1     110.580 129.622 138.569  0.00  0.00    +0.000 A 
ATOM     10  C   UNL     1     110.558 131.084 138.652  0.00  0.00    +0.000 A 
ATOM     11  C   UNL     1     109.734 129.608 138.415  0.00  0.00    +0.000 A 
ATOM     12  C   UNL     1     109.713 131.090 138.500  0.00  0.00    +0.000 A 
ATOM     13  C   UNL     1     109.298 130.347 138.381  0.00  0.00    +0.000 A 
ENDROOT
BRANCH   6  15
ATOM     14  C   UNL     1     113.045 126.769 138.843  0.00  0.00    +0.000 A 
ATOM     15  C   UNL     1     112.218 128.196 138.780  0.00  0.00    +0.000 A 
ATOM     16  C   UNL     1     112.524 126.971 139.450  0.00  0.00    +0.000 A 
ATOM     17  C   UNL     1     113.154 127.280 138.205  0.00  0.00    +0.000 A 
ATOM     18  C   UNL     1     112.111 127.684 139.418  0.00  0.00    +0.000 A 
ATOM     19  C   UNL     1     112.740 127.994 138.173  0.00  0.00    +0.000 A 
BRANCH  16  20
ATOM     20  O   UNL     1     112.416 126.459 140.088  0.00  0.00    +0.000 OA
ATOM     21  C   UNL     1     111.861 126.640 140.672  0.00  0.00    +0.000 C 
ENDBRANCH  16  20
BRANCH  14  22
ATOM     22  O   UNL     1     113.459 126.055 138.875  0.00  0.00    +0.000 OA
BRANCH  22  31
ATOM     23  O   UNL     1     112.793 125.326 137.843  0.00  0.00    +0.000 OA
ATOM     24  O   UNL     1     114.979 124.581 136.957  0.00  0.00    +0.000 OA
ATOM     25  O   UNL     1     113.583 124.100 136.220  0.00  0.00    +0.000 OA
ATOM     26  O   UNL     1     114.917 125.559 138.285  0.00  0.00    +0.000 OA
ATOM     27  C   UNL     1     114.251 124.829 137.252  0.00  0.00    +0.000 C 
ATOM     28  C   UNL     1     113.552 124.589 136.884  0.00  0.00    +0.000 C 
ATOM     29  C   UNL     1     114.220 125.318 137.916  0.00  0.00    +0.000 C 
ATOM     30  C   UNL     1     112.824 124.838 137.179  0.00  0.00    +0.000 C 
ATOM     31  C   UNL     1     113.490 125.567 138.212  0.00  0.00    +0.000 C 
BRANCH  30  33
ATOM     32  O   UNL     1     111.482 124.352 137.265  0.00  0.00    +0.000 OA
ATOM     33  C   UNL     1     112.125 124.598 136.811  0.00  0.00    +0.000 C 
ENDBRANCH  30  33
ENDBRANCH  22  31
ENDBRANCH  14  22
ENDBRANCH   6  15
BRANCH   5  34
ATOM     34  O   UNL     1     113.015 129.622 139.009  0.00  0.00    +0.000 OA
BRANCH  34  43
ATOM     35  O   UNL     1     112.905 129.936 140.398  0.00  0.00    +0.000 OA
ATOM     36  O   UNL     1     115.020 131.215 140.278  0.00  0.00    +0.000 OA
ATOM     37  O   UNL     1     114.205 131.102 141.707  0.00  0.00    +0.000 OA
ATOM     38  O   UNL     1     114.425 130.475 138.928  0.00  0.00    +0.000 OA
ATOM     39  C   UNL     1     114.315 130.789 140.318  0.00  0.00    +0.000 C 
ATOM     40  C   UNL     1     113.907 130.732 141.032  0.00  0.00    +0.000 C 
ATOM     41  C   UNL     1     114.017 130.418 139.643  0.00  0.00    +0.000 C 
ATOM     42  C   UNL     1     113.203 130.306 141.073  0.00  0.00    +0.000 C 
ATOM     43  C   UNL     1     113.313 129.992 139.683  0.00  0.00    +0.000 C 
BRANCH  42  45
ATOM     44  O   UNL     1     112.683 129.511 142.141  0.00  0.00    +0.000 OA
ATOM     45  C   UNL     1     112.795 130.249 141.787  0.00  0.00    +0.000 C 
ENDBRANCH  42  45
ENDBRANCH  34  43
ENDBRANCH   5  34
TORSDOF 8
ENDMDL
MODEL 3
REMARK VINA RESULT:      -9.8      1.486      3.528
REMARK  Name = 11802256
REMARK  8 active torsions:
REMARK  status: ('A' for Active; 'I' for Inactive)
REMARK    1  A    between atoms: O_3  and  C_26
REMARK    2  A    between atoms: O_3  and  C_30
REMARK    3  A    between atoms: O_6  and  C_27
REMARK    4  A    between atoms: O_6  and  C_31
REMARK    5  A    between atoms: O_14  and  C_34
REMARK    6  A    between atoms: C_23  and  C_28
REMARK    7  A    between atoms: C_25  and  C_29
REMARK    8  A    between atoms: C_32  and  C_33
REMARK                            x       y       z     vdW  Elec       q    Type
REMARK                         _______ _______ _______ _____ _____    ______ ____
ROOT
ATOM      1  O   UNL     1     111.654 126.793 136.705  0.00  0.00    +0.000 OA
ATOM      2  O   UNL     1     113.834 127.900 136.317  0.00  0.00    +0.000 OA
ATOM      3  O   UNL     1     114.518 126.630 136.358  0.00  0.00    +0.000 OA
ATOM      4  O   UNL     1     112.967 124.195 136.801  0.00  0.00    +0.000 OA
ATOM      5  C   UNL     1     112.417 127.982 136.488  0.00  0.00    +0.000 A 
ATOM      6  C   UNL     1     111.690 127.614 136.618  0.00  0.00    +0.000 A 
ATOM      7  C   UNL     1     113.107 127.532 136.446  0.00  0.00    +0.000 A 
ATOM      8  C   UNL     1     113.070 126.711 136.534  0.00  0.00    +0.000 A 
ATOM      9  C   UNL     1     112.344 126.343 136.663  0.00  0.00    +0.000 A 
ATOM     10  C   UNL     1     113.795 126.253 136.488  0.00  0.00    +0.000 A 
ATOM     11  C   UNL     1     112.291 125.490 136.756  0.00  0.00    +0.000 A 
ATOM     12  C   UNL     1     113.763 125.399 136.578  0.00  0.00    +0.000 A 
ATOM     13  C   UNL     1     113.006 125.015 136.713  0.00  0.00    +0.000 A 
ENDROOT
BRANCH   6  15
ATOM     14  C   UNL     1     109.622 128.965 136.743  0.00  0.00    +0.000 A 
ATOM     15  C   UNL     1     111.001 128.064 136.660  0.00  0.00    +0.000 A 
ATOM     16  C   UNL     1     109.920 128.604 137.422  0.00  0.00    +0.000 A 
ATOM     17  C   UNL     1     110.012 128.876 136.022  0.00  0.00    +0.000 A 
ATOM     18  C   UNL     1     110.610 128.154 137.380  0.00  0.00    +0.000 A 
ATOM     19  C   UNL     1     110.702 128.425 135.980  0.00  0.00    +0.000 A 
BRANCH  16  20
ATOM     20  O   UNL     1     109.529 128.695 138.143  0.00  0.00    +0.000 OA
ATOM     21  C   UNL     1     109.710 128.196 138.776  0.00  0.00    +0.000 C 
ENDBRANCH  16  20
BRANCH  14  22
ATOM     22  O   UNL     1     108.931 129.416 136.785  0.00  0.00    +0.000 OA
BRANCH  22  31
ATOM     23  O   UNL     1     109.542 130.701 136.654  0.00  0.00    +0.000 OA
ATOM     24  O   UNL     1     107.652 131.455 135.246  0.00  0.00    +0.000 OA
ATOM     25  O   UNL     1     108.893 132.489 135.585  0.00  0.00    +0.000 OA
ATOM     26  O   UNL     1     107.671 129.919 135.846  0.00  0.00    +0.000 OA
ATOM     27  C   UNL     1     108.282 131.204 135.715  0.00  0.00    +0.000 C 
ATOM     28  C   UNL     1     108.903 131.721 135.885  0.00  0.00    +0.000 C 
ATOM     29  C   UNL     1     108.291 130.436 136.015  0.00  0.00    +0.000 C 
ATOM     30  C   UNL     1     109.532 131.469 136.354  0.00  0.00    +0.000 C 
ATOM     31  C   UNL     1     108.922 130.184 136.485  0.00  0.00    +0.000 C 
BRANCH  30  33
ATOM     32  O   UNL     1     110.485 131.998 137.279  0.00  0.00    +0.000 OA
ATOM     33  C   UNL     1     110.153 131.986 136.524  0.00  0.00    +0.000 C 
ENDBRANCH  30  33
ENDBRANCH  22  31
ENDBRANCH  14  22
ENDBRANCH   6  15
BRANCH   5  34
ATOM     34  O   UNL     1     112.454 128.801 136.401  0.00  0.00    +0.000 OA
BRANCH  34  43
ATOM     35  O   UNL     1     112.960 129.030 137.718  0.00  0.00    +0.000 OA
ATOM     36  O   UNL     1     114.141 131.051 136.913  0.00  0.00    +0.000 OA
ATOM     37  O   UNL     1     114.252 130.606 138.497  0.00  0.00    +0.000 OA
ATOM     38  O   UNL     1     113.242 130.148 135.864  0.00  0.00    +0.000 OA
ATOM     39  C   UNL     1     113.747 130.377 137.181  0.00  0.00    +0.000 C 
ATOM     40  C   UNL     1     113.803 130.154 137.974  0.00  0.00    +0.000 C 
ATOM     41  C   UNL     1     113.297 129.925 136.657  0.00  0.00    +0.000 C 
ATOM     42  C   UNL     1     113.409 129.482 138.241  0.00  0.00    +0.000 C 
ATOM     43  C   UNL     1     112.904 129.253 136.924  0.00  0.00    +0.000 C 
BRANCH  42  45
ATOM     44  O   UNL     1     112.799 129.298 139.520  0.00  0.00    +0.000 OA
ATOM     45  C   UNL     1     113.465 129.259 139.034  0.00  0.00    +0.000 C 
ENDBRANCH  42  45
ENDBRANCH  34  43
ENDBRANCH   5  34
TORSDOF 8
ENDMDL
MODEL 4
REMARK VINA RESULT:      -9.8      1.883      5.110
REMARK  Name = 11802256
REMARK  8 active torsions:
REMARK  status: ('A' for Active; 'I' for Inactive)
REMARK    1  A    between atoms: O_3  and  C_26
REMARK    2  A    between atoms: O_3  and  C_30
REMARK    3  A    between atoms: O_6  and  C_27
REMARK    4  A    between atoms: O_6  and  C_31
REMARK    5  A    between atoms: O_14  and  C_34
REMARK    6  A    between atoms: C_23  and  C_28
REMARK    7  A    between atoms: C_25  and  C_29
REMARK    8  A    between atoms: C_32  and  C_33
REMARK                            x       y       z     vdW  Elec       q    Type
REMARK                         _______ _______ _______ _____ _____    ______ ____
ROOT
ATOM      1  O   UNL     1     111.360 129.443 139.306  0.00  0.00    +0.000 OA
ATOM      2  O   UNL     1     108.999 129.094 138.648  0.00  0.00    +0.000 OA
ATOM      3  O   UNL     1     108.574 130.190 139.484  0.00  0.00    +0.000 OA
ATOM      4  O   UNL     1     110.576 131.668 141.014  0.00  0.00    +0.000 OA
ATOM      5  C   UNL     1     110.377 128.723 138.559  0.00  0.00    +0.000 A 
ATOM      6  C   UNL     1     111.164 128.839 138.778  0.00  0.00    +0.000 A 
ATOM      7  C   UNL     1     109.787 129.210 138.867  0.00  0.00    +0.000 A 
ATOM      8  C   UNL     1     109.983 129.814 139.395  0.00  0.00    +0.000 A 
ATOM      9  C   UNL     1     110.769 129.930 139.614  0.00  0.00    +0.000 A 
ATOM     10  C   UNL     1     109.359 130.314 139.709  0.00  0.00    +0.000 A 
ATOM     11  C   UNL     1     110.987 130.554 140.162  0.00  0.00    +0.000 A 
ATOM     12  C   UNL     1     109.557 130.944 140.258  0.00  0.00    +0.000 A 
ATOM     13  C   UNL     1     110.377 131.065 140.487  0.00  0.00    +0.000 A 
ENDROOT
BRANCH   6  15
ATOM     14  C   UNL     1     112.935 127.379 137.854  0.00  0.00    +0.000 A 
ATOM     15  C   UNL     1     111.754 128.353 138.470  0.00  0.00    +0.000 A 
ATOM     16  C   UNL     1     112.851 128.152 137.577  0.00  0.00    +0.000 A 
ATOM     17  C   UNL     1     112.429 127.093 138.440  0.00  0.00    +0.000 A 
ATOM     18  C   UNL     1     112.261 128.638 137.884  0.00  0.00    +0.000 A 
ATOM     19  C   UNL     1     111.838 127.581 138.748  0.00  0.00    +0.000 A 
BRANCH  16  20
ATOM     20  O   UNL     1     113.358 128.437 136.991  0.00  0.00    +0.000 OA
ATOM     21  C   UNL     1     113.525 129.244 136.948  0.00  0.00    +0.000 C 
ENDBRANCH  16  20
BRANCH  14  22
ATOM     22  O   UNL     1     113.526 126.892 137.546  0.00  0.00    +0.000 OA
BRANCH  22  31
ATOM     23  O   UNL     1     112.660 126.004 136.839  0.00  0.00    +0.000 OA
ATOM     24  O   UNL     1     114.144 124.106 137.402  0.00  0.00    +0.000 OA
ATOM     25  O   UNL     1     112.782 123.851 136.507  0.00  0.00    +0.000 OA
ATOM     26  O   UNL     1     114.516 125.627 137.922  0.00  0.00    +0.000 OA
ATOM     27  C   UNL     1     113.649 124.738 137.215  0.00  0.00    +0.000 C 
ATOM     28  C   UNL     1     112.968 124.611 136.767  0.00  0.00    +0.000 C 
ATOM     29  C   UNL     1     113.835 125.499 137.474  0.00  0.00    +0.000 C 
ATOM     30  C   UNL     1     112.473 125.244 136.579  0.00  0.00    +0.000 C 
ATOM     31  C   UNL     1     113.340 126.132 137.286  0.00  0.00    +0.000 C 
BRANCH  30  33
ATOM     32  O   UNL     1     111.584 125.648 135.536  0.00  0.00    +0.000 OA
ATOM     33  C   UNL     1     111.792 125.117 136.131  0.00  0.00    +0.000 C 
ENDBRANCH  30  33
ENDBRANCH  22  31
ENDBRANCH  14  22
ENDBRANCH   6  15
BRANCH   5  34
ATOM     34  O   UNL     1     110.180 128.120 138.031  0.00  0.00    +0.000 OA
BRANCH  34  43
ATOM     35  O   UNL     1     109.951 129.014 136.940  0.00  0.00    +0.000 OA
ATOM     36  O   UNL     1     108.336 127.411 135.967  0.00  0.00    +0.000 OA
ATOM     37  O   UNL     1     108.646 128.838 135.200  0.00  0.00    +0.000 OA
ATOM     38  O   UNL     1     109.104 127.052 137.383  0.00  0.00    +0.000 OA
ATOM     39  C   UNL     1     108.875 127.945 136.291  0.00  0.00    +0.000 C 
ATOM     40  C   UNL     1     109.030 128.659 135.908  0.00  0.00    +0.000 C 
ATOM     41  C   UNL     1     109.259 127.765 137.000  0.00  0.00    +0.000 C 
ATOM     42  C   UNL     1     109.567 129.192 136.232  0.00  0.00    +0.000 C 
ATOM     43  C   UNL     1     109.797 128.299 137.324  0.00  0.00    +0.000 C 
BRANCH  42  45
ATOM     44  O   UNL     1     110.471 130.049 135.531  0.00  0.00    +0.000 OA
ATOM     45  C   UNL     1     109.723 129.906 135.849  0.00  0.00    +0.000 C 
ENDBRANCH  42  45
ENDBRANCH  34  43
ENDBRANCH   5  34
TORSDOF 8
ENDMDL
MODEL 5
REMARK VINA RESULT:      -9.8      1.767      3.552
REMARK  Name = 11802256
REMARK  8 active torsions:
REMARK  status: ('A' for Active; 'I' for Inactive)
REMARK    1  A    between atoms: O_3  and  C_26
REMARK    2  A    between atoms: O_3  and  C_30
REMARK    3  A    between atoms: O_6  and  C_27
REMARK    4  A    between atoms: O_6  and  C_31
REMARK    5  A    between atoms: O_14  and  C_34
REMARK    6  A    between atoms: C_23  and  C_28
REMARK    7  A    between atoms: C_25  and  C_29
REMARK    8  A    between atoms: C_32  and  C_33
REMARK                            x       y       z     vdW  Elec       q    Type
REMARK                         _______ _______ _______ _____ _____    ______ ____
ROOT
ATOM      1  O   UNL     1     111.166 126.333 137.256  0.00  0.00    +0.000 OA
ATOM      2  O   UNL     1     113.538 127.013 137.048  0.00  0.00    +0.000 OA
ATOM      3  O   UNL     1     113.905 125.696 136.589  0.00  0.00    +0.000 OA
ATOM      4  O   UNL     1     111.834 123.652 136.336  0.00  0.00    +0.000 OA
ATOM      5  C   UNL     1     112.184 127.330 137.378  0.00  0.00    +0.000 A 
ATOM      6  C   UNL     1     111.393 127.104 137.448  0.00  0.00    +0.000 A 
ATOM      7  C   UNL     1     112.747 126.787 137.118  0.00  0.00    +0.000 A 
ATOM      8  C   UNL     1     112.520 126.017 136.926  0.00  0.00    +0.000 A 
ATOM      9  C   UNL     1     111.730 125.790 136.995  0.00  0.00    +0.000 A 
ATOM     10  C   UNL     1     113.117 125.460 136.655  0.00  0.00    +0.000 A 
ATOM     11  C   UNL     1     111.481 124.992 136.799  0.00  0.00    +0.000 A 
ATOM     12  C   UNL     1     112.886 124.658 136.454  0.00  0.00    +0.000 A 
ATOM     13  C   UNL     1     112.063 124.421 136.527  0.00  0.00    +0.000 A 
ENDROOT
BRANCH   6  15
ATOM     14  C   UNL     1     109.703 128.732 138.231  0.00  0.00    +0.000 A 
ATOM     15  C   UNL     1     110.830 127.646 137.709  0.00  0.00    +0.000 A 
ATOM     16  C   UNL     1     109.696 128.476 137.447  0.00  0.00    +0.000 A 
ATOM     17  C   UNL     1     110.273 128.446 138.755  0.00  0.00    +0.000 A 
ATOM     18  C   UNL     1     110.259 127.933 137.186  0.00  0.00    +0.000 A 
ATOM     19  C   UNL     1     110.837 127.903 138.493  0.00  0.00    +0.000 A 
BRANCH  16  20
ATOM     20  O   UNL     1     109.125 128.763 136.925  0.00  0.00    +0.000 OA
ATOM     21  C   UNL     1     108.967 128.356 136.224  0.00  0.00    +0.000 C 
ENDBRANCH  16  20
BRANCH  14  22
ATOM     22  O   UNL     1     109.139 129.276 138.493  0.00  0.00    +0.000 OA
BRANCH  22  31
ATOM     23  O   UNL     1     109.995 130.418 138.541  0.00  0.00    +0.000 OA
ATOM     24  O   UNL     1     108.863 131.179 140.606  0.00  0.00    +0.000 OA
ATOM     25  O   UNL     1     110.097 132.069 139.965  0.00  0.00    +0.000 OA
ATOM     26  O   UNL     1     108.384 129.782 139.869  0.00  0.00    +0.000 OA
ATOM     27  C   UNL     1     109.240 130.926 139.918  0.00  0.00    +0.000 C 
ATOM     28  C   UNL     1     109.857 131.370 139.597  0.00  0.00    +0.000 C 
ATOM     29  C   UNL     1     109.001 130.227 139.550  0.00  0.00    +0.000 C 
ATOM     30  C   UNL     1     110.234 131.117 138.909  0.00  0.00    +0.000 C 
ATOM     31  C   UNL     1     109.378 129.973 138.860  0.00  0.00    +0.000 C 
BRANCH  30  33
ATOM     32  O   UNL     1     110.896 131.677 137.773  0.00  0.00    +0.000 OA
ATOM     33  C   UNL     1     110.851 131.561 138.588  0.00  0.00    +0.000 C 
ENDBRANCH  30  33
ENDBRANCH  22  31
ENDBRANCH  14  22
ENDBRANCH   6  15
BRANCH   5  34
ATOM     34  O   UNL     1     112.410 128.100 137.570  0.00  0.00    +0.000 OA
BRANCH  34  43
ATOM     35  O   UNL     1     112.543 128.511 136.208  0.00  0.00    +0.000 OA
ATOM     36  O   UNL     1     114.266 130.158 136.872  0.00  0.00    +0.000 OA
ATOM     37  O   UNL     1     113.824 130.020 135.289  0.00  0.00    +0.000 OA
ATOM     38  O   UNL     1     113.560 129.198 138.013  0.00  0.00    +0.000 OA
ATOM     39  C   UNL     1     113.692 129.609 136.650  0.00  0.00    +0.000 C 
ATOM     40  C   UNL     1     113.470 129.539 135.859  0.00  0.00    +0.000 C 
ATOM     41  C   UNL     1     113.338 129.128 137.221  0.00  0.00    +0.000 C 
ATOM     42  C   UNL     1     112.896 128.991 135.638  0.00  0.00    +0.000 C 
ATOM     43  C   UNL     1     112.764 128.580 137.000  0.00  0.00    +0.000 C 
BRANCH  42  45
ATOM     44  O   UNL     1     111.904 129.109 134.616  0.00  0.00    +0.000 OA
ATOM     45  C   UNL     1     112.675 128.921 134.846  0.00  0.00    +0.000 C 
ENDBRANCH  42  45
ENDBRANCH  34  43
ENDBRANCH   5  34
TORSDOF 8
ENDMDL
MODEL 6
REMARK VINA RESULT:      -9.7      1.748      3.499
REMARK  Name = 11802256
REMARK  8 active torsions:
REMARK  status: ('A' for Active; 'I' for Inactive)
REMARK    1  A    between atoms: O_3  and  C_26
REMARK    2  A    between atoms: O_3  and  C_30
REMARK    3  A    between atoms: O_6  and  C_27
REMARK    4  A    between atoms: O_6  and  C_31
REMARK    5  A    between atoms: O_14  and  C_34
REMARK    6  A    between atoms: C_23  and  C_28
REMARK    7  A    between atoms: C_25  and  C_29
REMARK    8  A    between atoms: C_32  and  C_33
REMARK                            x       y       z     vdW  Elec       q    Type
REMARK                         _______ _______ _______ _____ _____    ______ ____
ROOT
ATOM      1  O   UNL     1     112.644 127.004 136.927  0.00  0.00    +0.000 OA
ATOM      2  O   UNL     1     113.106 127.535 139.301  0.00  0.00    +0.000 OA
ATOM      3  O   UNL     1     114.036 126.436 139.395  0.00  0.00    +0.000 OA
ATOM      4  O   UNL     1     114.507 124.769 137.044  0.00  0.00    +0.000 OA
ATOM      5  C   UNL     1     112.417 127.817 138.081  0.00  0.00    +0.000 A 
ATOM      6  C   UNL     1     112.263 127.641 137.290  0.00  0.00    +0.000 A 
ATOM      7  C   UNL     1     112.952 127.359 138.510  0.00  0.00    +0.000 A 
ATOM      8  C   UNL     1     113.333 126.722 138.147  0.00  0.00    +0.000 A 
ATOM      9  C   UNL     1     113.179 126.546 137.357  0.00  0.00    +0.000 A 
ATOM     10  C   UNL     1     113.888 126.251 138.605  0.00  0.00    +0.000 A 
ATOM     11  C   UNL     1     113.569 125.886 136.968  0.00  0.00    +0.000 A 
ATOM     12  C   UNL     1     114.288 125.588 138.232  0.00  0.00    +0.000 A 
ATOM     13  C   UNL     1     114.127 125.404 137.408  0.00  0.00    +0.000 A 
ENDROOT
BRANCH   6  15
ATOM     14  C   UNL     1     110.658 129.017 136.004  0.00  0.00    +0.000 A 
ATOM     15  C   UNL     1     111.728 128.100 136.862  0.00  0.00    +0.000 A 
ATOM     16  C   UNL     1     111.461 129.038 135.818  0.00  0.00    +0.000 A 
ATOM     17  C   UNL     1     110.389 128.538 136.620  0.00  0.00    +0.000 A 
ATOM     18  C   UNL     1     111.996 128.579 136.246  0.00  0.00    +0.000 A 
ATOM     19  C   UNL     1     110.925 128.079 137.048  0.00  0.00    +0.000 A 
BRANCH  16  20
ATOM     20  O   UNL     1     111.729 129.518 135.202  0.00  0.00    +0.000 OA
ATOM     21  C   UNL     1     112.419 129.318 134.794  0.00  0.00    +0.000 C 
ENDBRANCH  16  20
BRANCH  14  22
ATOM     22  O   UNL     1     110.123 129.477 135.575  0.00  0.00    +0.000 OA
BRANCH  22  31
ATOM     23  O   UNL     1     109.887 130.477 136.567  0.00  0.00    +0.000 OA
ATOM     24  O   UNL     1     107.489 130.515 135.959  0.00  0.00    +0.000 OA
ATOM     25  O   UNL     1     108.053 131.503 137.154  0.00  0.00    +0.000 OA
ATOM     26  O   UNL     1     108.524 129.501 135.170  0.00  0.00    +0.000 OA
ATOM     27  C   UNL     1     108.288 130.502 136.162  0.00  0.00    +0.000 C 
ATOM     28  C   UNL     1     108.570 130.997 136.759  0.00  0.00    +0.000 C 
ATOM     29  C   UNL     1     108.805 129.996 135.767  0.00  0.00    +0.000 C 
ATOM     30  C   UNL     1     109.369 130.984 136.962  0.00  0.00    +0.000 C 
ATOM     31  C   UNL     1     109.606 129.983 135.970  0.00  0.00    +0.000 C 
BRANCH  30  33
ATOM     32  O   UNL     1     110.393 131.832 137.486  0.00  0.00    +0.000 OA
ATOM     33  C   UNL     1     109.652 131.478 137.559  0.00  0.00    +0.000 C 
ENDBRANCH  30  33
ENDBRANCH  22  31
ENDBRANCH  14  22
ENDBRANCH   6  15
BRANCH   5  34
ATOM     34  O   UNL     1     112.036 128.453 138.444  0.00  0.00    +0.000 OA
BRANCH  34  43
ATOM     35  O   UNL     1     113.168 129.323 138.373  0.00  0.00    +0.000 OA
ATOM     36  O   UNL     1     112.427 130.455 140.445  0.00  0.00    +0.000 OA
ATOM     37  O   UNL     1     113.805 130.947 139.683  0.00  0.00    +0.000 OA
ATOM     38  O   UNL     1     111.543 129.208 139.826  0.00  0.00    +0.000 OA
ATOM     39  C   UNL     1     112.674 130.078 139.754  0.00  0.00    +0.000 C 
ATOM     40  C   UNL     1     113.363 130.324 139.373  0.00  0.00    +0.000 C 
ATOM     41  C   UNL     1     112.232 129.454 139.444  0.00  0.00    +0.000 C 
ATOM     42  C   UNL     1     113.609 129.947 138.683  0.00  0.00    +0.000 C 
ATOM     43  C   UNL     1     112.478 129.077 138.754  0.00  0.00    +0.000 C 
BRANCH  42  45
ATOM     44  O   UNL     1     114.254 130.532 137.550  0.00  0.00    +0.000 OA
ATOM     45  C   UNL     1     114.298 130.193 138.301  0.00  0.00    +0.000 C 
ENDBRANCH  42  45
ENDBRANCH  34  43
ENDBRANCH   5  34
TORSDOF 8
ENDMDL
MODEL 7
REMARK VINA RESULT:      -9.7      1.676      2.157
REMARK  Name = 11802256
REMARK  8 active torsions:
REMARK  status: ('A' for Active; 'I' for Inactive)
REMARK    1  A    between atoms: O_3  and  C_26
REMARK    2  A    between atoms: O_3  and  C_30
REMARK    3  A    between atoms: O_6  and  C_27
REMARK    4  A    between atoms: O_6  and  C_31
REMARK    5  A    between atoms: O_14  and  C_34
REMARK    6  A    between atoms: C_23  and  C_28
REMARK    7  A    between atoms: C_25  and  C_29
REMARK    8  A    between atoms: C_32  and  C_33
REMARK                            x       y       z     vdW  Elec       q    Type
REMARK                         _______ _______ _______ _____ _____    ______ ____
ROOT
ATOM      1  O   UNL     1     113.143 126.731 137.925  0.00  0.00    +0.000 OA
ATOM      2  O   UNL     1     111.176 125.363 137.301  0.00  0.00    +0.000 OA
ATOM      3  O   UNL     1     112.022 124.236 136.991  0.00  0.00    +0.000 OA
ATOM      4  O   UNL     1     114.913 124.499 137.317  0.00  0.00    +0.000 OA
ATOM      5  C   UNL     1     111.729 126.597 137.763  0.00  0.00    +0.000 A 
ATOM      6  C   UNL     1     112.384 127.053 137.971  0.00  0.00    +0.000 A 
ATOM      7  C   UNL     1     111.831 125.819 137.509  0.00  0.00    +0.000 A 
ATOM      8  C   UNL     1     112.590 125.497 137.463  0.00  0.00    +0.000 A 
ATOM      9  C   UNL     1     113.245 125.952 137.671  0.00  0.00    +0.000 A 
ATOM     10  C   UNL     1     112.684 124.685 137.197  0.00  0.00    +0.000 A 
ATOM     11  C   UNL     1     114.040 125.629 137.627  0.00  0.00    +0.000 A 
ATOM     12  C   UNL     1     113.471 124.344 137.146  0.00  0.00    +0.000 A 
ATOM     13  C   UNL     1     114.154 124.819 137.363  0.00  0.00    +0.000 A 
ENDROOT
BRANCH   6  15
ATOM     14  C   UNL     1     112.077 129.387 138.734  0.00  0.00    +0.000 A 
ATOM     15  C   UNL     1     112.282 127.831 138.225  0.00  0.00    +0.000 A 
ATOM     16  C   UNL     1     112.404 129.235 137.992  0.00  0.00    +0.000 A 
ATOM     17  C   UNL     1     111.852 128.761 139.222  0.00  0.00    +0.000 A 
ATOM     18  C   UNL     1     112.506 128.458 137.738  0.00  0.00    +0.000 A 
ATOM     19  C   UNL     1     111.955 127.983 138.967  0.00  0.00    +0.000 A 
BRANCH  16  20
ATOM     20  O   UNL     1     112.629 129.862 137.505  0.00  0.00    +0.000 OA
ATOM     21  C   UNL     1     113.233 129.759 136.952  0.00  0.00    +0.000 C 
ENDBRANCH  16  20
BRANCH  14  22
ATOM     22  O   UNL     1     111.975 130.166 138.989  0.00  0.00    +0.000 OA
BRANCH  22  31
ATOM     23  O   UNL     1     110.556 130.234 138.841  0.00  0.00    +0.000 OA
ATOM     24  O   UNL     1     110.399 131.531 140.942  0.00  0.00    +0.000 OA
ATOM     25  O   UNL     1     109.031 131.167 140.093  0.00  0.00    +0.000 OA
ATOM     26  O   UNL     1     111.871 131.031 140.390  0.00  0.00    +0.000 OA
ATOM     27  C   UNL     1     110.451 131.099 140.242  0.00  0.00    +0.000 C 
ATOM     28  C   UNL     1     109.767 130.916 139.817  0.00  0.00    +0.000 C 
ATOM     29  C   UNL     1     111.187 130.849 139.966  0.00  0.00    +0.000 C 
ATOM     30  C   UNL     1     109.820 130.484 139.117  0.00  0.00    +0.000 C 
ATOM     31  C   UNL     1     111.239 130.416 139.265  0.00  0.00    +0.000 C 
BRANCH  30  33
ATOM     32  O   UNL     1     109.140 130.337 137.868  0.00  0.00    +0.000 OA
ATOM     33  C   UNL     1     109.136 130.302 138.692  0.00  0.00    +0.000 C 
ENDBRANCH  30  33
ENDBRANCH  22  31
ENDBRANCH  14  22
ENDBRANCH   6  15
BRANCH   5  34
ATOM     34  O   UNL     1     110.971 126.919 137.810  0.00  0.00    +0.000 OA
BRANCH  34  43
ATOM     35  O   UNL     1     110.850 127.075 136.394  0.00  0.00    +0.000 OA
ATOM     36  O   UNL     1     108.389 126.884 136.584  0.00  0.00    +0.000 OA
ATOM     37  O   UNL     1     109.088 127.104 135.107  0.00  0.00    +0.000 OA
ATOM     38  O   UNL     1     109.331 126.792 137.936  0.00  0.00    +0.000 OA
ATOM     39  C   UNL     1     109.209 126.948 136.521  0.00  0.00    +0.000 C 
ATOM     40  C   UNL     1     109.559 127.058 135.782  0.00  0.00    +0.000 C 
ATOM     41  C   UNL     1     109.681 126.902 137.197  0.00  0.00    +0.000 C 
ATOM     42  C   UNL     1     110.378 127.121 135.719  0.00  0.00    +0.000 C 
ATOM     43  C   UNL     1     110.500 126.965 137.134  0.00  0.00    +0.000 C 
BRANCH  42  45
ATOM     44  O   UNL     1     111.129 127.934 134.814  0.00  0.00    +0.000 OA
ATOM     45  C   UNL     1     110.728 127.231 134.980  0.00  0.00    +0.000 C 
ENDBRANCH  42  45
ENDBRANCH  34  43
ENDBRANCH   5  34
TORSDOF 8
ENDMDL
MODEL 8
REMARK VINA RESULT:      -9.7      1.759      5.827
REMARK  Name = 11802256
REMARK  8 active torsions:
REMARK  status: ('A' for Active; 'I' for Inactive)
REMARK    1  A    between atoms: O_3  and  C_26
REMARK    2  A    between atoms: O_3  and  C_30
REMARK    3  A    between atoms: O_6  and  C_27
REMARK    4  A    between atoms: O_6  and  C_31
REMARK    5  A    between atoms: O_14  and  C_34
REMARK    6  A    between atoms: C_23  and  C_28
REMARK    7  A    between atoms: C_25  and  C_29
REMARK    8  A    between atoms: C_32  and  C_33
REMARK                            x       y       z     vdW  Elec       q    Type
REMARK                         _______ _______ _______ _____ _____    ______ ____
ROOT
ATOM      1  O   UNL     1     110.888 130.641 136.578  0.00  0.00    +0.000 OA
ATOM      2  O   UNL     1     111.092 131.088 139.004  0.00  0.00    +0.000 OA
ATOM      3  O   UNL     1     110.624 132.441 138.823  0.00  0.00    +0.000 OA
ATOM      4  O   UNL     1     109.936 133.357 136.136  0.00  0.00    +0.000 OA
ATOM      5  C   UNL     1     111.223 130.197 137.895  0.00  0.00    +0.000 A 
ATOM      6  C   UNL     1     111.155 130.047 137.086  0.00  0.00    +0.000 A 
ATOM      7  C   UNL     1     111.024 130.938 138.196  0.00  0.00    +0.000 A 
ATOM      8  C   UNL     1     110.757 131.532 137.687  0.00  0.00    +0.000 A 
ATOM      9  C   UNL     1     110.689 131.383 136.879  0.00  0.00    +0.000 A 
ATOM     10  C   UNL     1     110.552 132.301 138.013  0.00  0.00    +0.000 A 
ATOM     11  C   UNL     1     110.412 131.991 136.340  0.00  0.00    +0.000 A 
ATOM     12  C   UNL     1     110.274 132.922 137.489  0.00  0.00    +0.000 A 
ATOM     13  C   UNL     1     110.203 132.766 136.647  0.00  0.00    +0.000 A 
ENDROOT
BRANCH   6  15
ATOM     14  C   UNL     1     111.752 127.822 136.184  0.00  0.00    +0.000 A 
ATOM     15  C   UNL     1     111.354 129.306 136.786  0.00  0.00    +0.000 A 
ATOM     16  C   UNL     1     112.250 128.466 136.055  0.00  0.00    +0.000 A 
ATOM     17  C   UNL     1     111.055 127.918 136.614  0.00  0.00    +0.000 A 
ATOM     18  C   UNL     1     112.051 129.208 136.355  0.00  0.00    +0.000 A 
ATOM     19  C   UNL     1     110.856 128.661 136.915  0.00  0.00    +0.000 A 
BRANCH  16  20
ATOM     20  O   UNL     1     112.947 128.368 135.624  0.00  0.00    +0.000 OA
ATOM     21  C   UNL     1     113.262 129.003 135.199  0.00  0.00    +0.000 C 
ENDBRANCH  16  20
BRANCH  14  22
ATOM     22  O   UNL     1     111.951 127.079 135.883  0.00  0.00    +0.000 OA
BRANCH  22  31
ATOM     23  O   UNL     1     112.252 126.445 137.127  0.00  0.00    +0.000 OA
ATOM     24  O   UNL     1     111.180 124.364 136.325  0.00  0.00    +0.000 OA
ATOM     25  O   UNL     1     111.839 124.423 137.837  0.00  0.00    +0.000 OA
ATOM     26  O   UNL     1     111.236 125.692 135.348  0.00  0.00    +0.000 OA
ATOM     27  C   UNL     1     111.537 125.057 136.592  0.00  0.00    +0.000 C 
ATOM     28  C   UNL     1     111.867 125.087 137.348  0.00  0.00    +0.000 C 
ATOM     29  C   UNL     1     111.565 125.721 136.104  0.00  0.00    +0.000 C 
ATOM     30  C   UNL     1     112.225 125.780 137.615  0.00  0.00    +0.000 C 
ATOM     31  C   UNL     1     111.923 126.416 136.371  0.00  0.00    +0.000 C 
BRANCH  30  33
ATOM     32  O   UNL     1     113.282 126.180 138.489  0.00  0.00    +0.000 OA
ATOM     33  C   UNL     1     112.555 125.811 138.371  0.00  0.00    +0.000 C 
ENDBRANCH  30  33
ENDBRANCH  22  31
ENDBRANCH  14  22
ENDBRANCH   6  15
BRANCH   5  34
ATOM     34  O   UNL     1     111.490 129.604 138.403  0.00  0.00    +0.000 OA
BRANCH  34  43
ATOM     35  O   UNL     1     112.792 130.173 138.555  0.00  0.00    +0.000 OA
ATOM     36  O   UNL     1     112.959 129.186 140.818  0.00  0.00    +0.000 OA
ATOM     37  O   UNL     1     114.205 130.084 140.216  0.00  0.00    +0.000 OA
ATOM     38  O   UNL     1     111.602 128.946 139.912  0.00  0.00    +0.000 OA
ATOM     39  C   UNL     1     112.904 129.515 140.064  0.00  0.00    +0.000 C 
ATOM     40  C   UNL     1     113.526 129.964 139.762  0.00  0.00    +0.000 C 
ATOM     41  C   UNL     1     112.224 129.395 139.610  0.00  0.00    +0.000 C 
ATOM     42  C   UNL     1     113.470 130.293 139.008  0.00  0.00    +0.000 C 
ATOM     43  C   UNL     1     112.168 129.724 138.856  0.00  0.00    +0.000 C 
BRANCH  42  45
ATOM     44  O   UNL     1     114.460 130.517 138.002  0.00  0.00    +0.000 OA
ATOM     45  C   UNL     1     114.093 130.742 138.707  0.00  0.00    +0.000 C 
ENDBRANCH  42  45
ENDBRANCH  34  43
ENDBRANCH   5  34
TORSDOF 8
ENDMDL
MODEL 9
REMARK VINA RESULT:      -9.6      2.761      3.833
REMARK  Name = 11802256
REMARK  8 active torsions:
REMARK  status: ('A' for Active; 'I' for Inactive)
REMARK    1  A    between atoms: O_3  and  C_26
REMARK    2  A    between atoms: O_3  and  C_30
REMARK    3  A    between atoms: O_6  and  C_27
REMARK    4  A    between atoms: O_6  and  C_31
REMARK    5  A    between atoms: O_14  and  C_34
REMARK    6  A    between atoms: C_23  and  C_28
REMARK    7  A    between atoms: C_25  and  C_29
REMARK    8  A    between atoms: C_32  and  C_33
REMARK                            x       y       z     vdW  Elec       q    Type
REMARK                         _______ _______ _______ _____ _____    ______ ____
ROOT
ATOM      1  O   UNL     1     113.491 126.175 138.596  0.00  0.00    +0.000 OA
ATOM      2  O   UNL     1     111.535 125.008 137.624  0.00  0.00    +0.000 OA
ATOM      3  O   UNL     1     112.389 124.260 136.732  0.00  0.00    +0.000 OA
ATOM      4  O   UNL     1     115.274 124.702 136.826  0.00  0.00    +0.000 OA
ATOM      5  C   UNL     1     112.079 125.955 138.546  0.00  0.00    +0.000 A 
ATOM      6  C   UNL     1     112.730 126.344 138.870  0.00  0.00    +0.000 A 
ATOM      7  C   UNL     1     112.187 125.397 137.948  0.00  0.00    +0.000 A 
ATOM      8  C   UNL     1     112.947 125.228 137.674  0.00  0.00    +0.000 A 
ATOM      9  C   UNL     1     113.598 125.616 137.997  0.00  0.00    +0.000 A 
ATOM     10  C   UNL     1     113.046 124.644 137.050  0.00  0.00    +0.000 A 
ATOM     11  C   UNL     1     114.394 125.450 137.721  0.00  0.00    +0.000 A 
ATOM     12  C   UNL     1     113.835 124.464 136.761  0.00  0.00    +0.000 A 
ATOM     13  C   UNL     1     114.514 124.869 137.098  0.00  0.00    +0.000 A 
ENDROOT
BRANCH   6  15
ATOM     14  C   UNL     1     112.407 128.018 140.664  0.00  0.00    +0.000 A 
ATOM     15  C   UNL     1     112.622 126.902 139.467  0.00  0.00    +0.000 A 
ATOM     16  C   UNL     1     112.620 128.262 139.905  0.00  0.00    +0.000 A 
ATOM     17  C   UNL     1     112.301 127.216 140.825  0.00  0.00    +0.000 A 
ATOM     18  C   UNL     1     112.728 127.704 139.308  0.00  0.00    +0.000 A 
ATOM     19  C   UNL     1     112.409 126.657 140.226  0.00  0.00    +0.000 A 
BRANCH  16  20
ATOM     20  O   UNL     1     112.726 129.065 139.745  0.00  0.00    +0.000 OA
ATOM     21  C   UNL     1     113.242 129.301 139.145  0.00  0.00    +0.000 C 
ENDBRANCH  16  20
BRANCH  14  22
ATOM     22  O   UNL     1     112.299 128.576 141.262  0.00  0.00    +0.000 OA
BRANCH  22  31
ATOM     23  O   UNL     1     110.873 128.519 141.315  0.00  0.00    +0.000 OA
ATOM     24  O   UNL     1     110.956 128.726 143.780  0.00  0.00    +0.000 OA
ATOM     25  O   UNL     1     109.501 128.600 143.011  0.00  0.00    +0.000 OA
ATOM     26  O   UNL     1     112.355 128.714 142.905  0.00  0.00    +0.000 OA
ATOM     27  C   UNL     1     110.928 128.657 142.959  0.00  0.00    +0.000 C 
ATOM     28  C   UNL     1     110.201 128.594 142.574  0.00  0.00    +0.000 C 
ATOM     29  C   UNL     1     111.628 128.651 142.521  0.00  0.00    +0.000 C 
ATOM     30  C   UNL     1     110.173 128.525 141.753  0.00  0.00    +0.000 C 
ATOM     31  C   UNL     1     111.600 128.582 141.699  0.00  0.00    +0.000 C 
BRANCH  30  33
ATOM     32  O   UNL     1     109.311 128.879 140.669  0.00  0.00    +0.000 OA
ATOM     33  C   UNL     1     109.446 128.462 141.368  0.00  0.00    +0.000 C 
ENDBRANCH  30  33
ENDBRANCH  22  31
ENDBRANCH  14  22
ENDBRANCH   6  15
BRANCH   5  34
ATOM     34  O   UNL     1     111.319 126.124 138.820  0.00  0.00    +0.000 OA
BRANCH  34  43
ATOM     35  O   UNL     1     110.972 126.887 137.662  0.00  0.00    +0.000 OA
ATOM     36  O   UNL     1     108.586 126.334 138.013  0.00  0.00    +0.000 OA
ATOM     37  O   UNL     1     109.034 127.281 136.740  0.00  0.00    +0.000 OA
ATOM     38  O   UNL     1     109.728 125.755 139.054  0.00  0.00    +0.000 OA
ATOM     39  C   UNL     1     109.381 126.519 137.896  0.00  0.00    +0.000 C 
ATOM     40  C   UNL     1     109.606 126.992 137.260  0.00  0.00    +0.000 C 
ATOM     41  C   UNL     1     109.953 126.229 138.417  0.00  0.00    +0.000 C 
ATOM     42  C   UNL     1     110.401 127.176 137.143  0.00  0.00    +0.000 C 
ATOM     43  C   UNL     1     110.748 126.413 138.300  0.00  0.00    +0.000 C 
BRANCH  42  45
ATOM     44  O   UNL     1     110.956 128.395 136.642  0.00  0.00    +0.000 OA
ATOM     45  C   UNL     1     110.626 127.650 136.506  0.00  0.00    +0.000 C 
ENDBRANCH  42  45
ENDBRANCH  34  43
ENDBRANCH   5  34
TORSDOF 8
ENDMDL
MODEL 10
REMARK VINA RESULT:      -9.6      1.290      1.924
REMARK  Name = 11802256
REMARK  8 active torsions:
REMARK  status: ('A' for Active; 'I' for Inactive)
REMARK    1  A    between atoms: O_3  and  C_26
REMARK    2  A    between atoms: O_3  and  C_30
REMARK    3  A    between atoms: O_6  and  C_27
REMARK    4  A    between atoms: O_6  and  C_31
REMARK    5  A    between atoms: O_14  and  C_34
REMARK    6  A    between atoms: C_23  and  C_28
REMARK    7  A    between atoms: C_25  and  C_29
REMARK    8  A    between atoms: C_32  and  C_33
REMARK                            x       y       z     vdW  Elec       q    Type
REMARK                         _______ _______ _______ _____ _____    ______ ____
ROOT
ATOM      1  O   UNL     1     113.215 127.667 136.692  0.00  0.00    +0.000 OA
ATOM      2  O   UNL     1     112.313 126.328 138.569  0.00  0.00    +0.000 OA
ATOM      3  O   UNL     1     113.236 125.256 138.286  0.00  0.00    +0.000 OA
ATOM      4  O   UNL     1     115.108 125.545 136.063  0.00  0.00    +0.000 OA
ATOM      5  C   UNL     1     112.301 127.520 137.782  0.00  0.00    +0.000 A 
ATOM      6  C   UNL     1     112.601 127.967 137.156  0.00  0.00    +0.000 A 
ATOM      7  C   UNL     1     112.613 126.775 137.944  0.00  0.00    +0.000 A 
ATOM      8  C   UNL     1     113.227 126.474 137.480  0.00  0.00    +0.000 A 
ATOM      9  C   UNL     1     113.527 126.920 136.855  0.00  0.00    +0.000 A 
ATOM     10  C   UNL     1     113.544 125.696 137.658  0.00  0.00    +0.000 A 
ATOM     11  C   UNL     1     114.165 126.620 136.364  0.00  0.00    +0.000 A 
ATOM     12  C   UNL     1     114.182 125.378 137.179  0.00  0.00    +0.000 A 
ATOM     13  C   UNL     1     114.495 125.843 136.528  0.00  0.00    +0.000 A 
ENDROOT
BRANCH   6  15
ATOM     14  C   UNL     1     111.665 130.206 136.671  0.00  0.00    +0.000 A 
ATOM     15  C   UNL     1     112.289 128.713 136.995  0.00  0.00    +0.000 A 
ATOM     16  C   UNL     1     111.563 129.590 136.131  0.00  0.00    +0.000 A 
ATOM     17  C   UNL     1     112.079 130.076 137.372  0.00  0.00    +0.000 A 
ATOM     18  C   UNL     1     111.875 128.844 136.293  0.00  0.00    +0.000 A 
ATOM     19  C   UNL     1     112.391 129.328 137.534  0.00  0.00    +0.000 A 
BRANCH  16  20
ATOM     20  O   UNL     1     111.149 129.721 135.430  0.00  0.00    +0.000 OA
ATOM     21  C   UNL     1     111.247 129.207 134.791  0.00  0.00    +0.000 C 
ENDBRANCH  16  20
BRANCH  14  22
ATOM     22  O   UNL     1     111.353 130.953 136.509  0.00  0.00    +0.000 OA
BRANCH  22  31
ATOM     23  O   UNL     1     110.225 130.855 137.380  0.00  0.00    +0.000 OA
ATOM     24  O   UNL     1     110.452 133.253 137.944  0.00  0.00    +0.000 OA
ATOM     25  O   UNL     1     109.247 132.355 138.627  0.00  0.00    +0.000 OA
ATOM     26  O   UNL     1     111.505 132.552 136.885  0.00  0.00    +0.000 OA
ATOM     27  C   UNL     1     110.376 132.454 137.756  0.00  0.00    +0.000 C 
ATOM     28  C   UNL     1     109.774 132.004 138.097  0.00  0.00    +0.000 C 
ATOM     29  C   UNL     1     110.902 132.103 137.226  0.00  0.00    +0.000 C 
ATOM     30  C   UNL     1     109.698 131.205 137.909  0.00  0.00    +0.000 C 
ATOM     31  C   UNL     1     110.827 131.303 137.038  0.00  0.00    +0.000 C 
BRANCH  30  33
ATOM     32  O   UNL     1     108.645 130.247 137.784  0.00  0.00    +0.000 OA
ATOM     33  C   UNL     1     109.096 130.756 138.250  0.00  0.00    +0.000 C 
ENDBRANCH  30  33
ENDBRANCH  22  31
ENDBRANCH  14  22
ENDBRANCH   6  15
BRANCH   5  34
ATOM     34  O   UNL     1     111.688 127.820 138.245  0.00  0.00    +0.000 OA
BRANCH  34  43
ATOM     35  O   UNL     1     110.687 127.016 137.617  0.00  0.00    +0.000 OA
ATOM     36  O   UNL     1     109.346 127.060 139.697  0.00  0.00    +0.000 OA
ATOM     37  O   UNL     1     108.794 126.242 138.376  0.00  0.00    +0.000 OA
ATOM     38  O   UNL     1     110.794 127.849 139.632  0.00  0.00    +0.000 OA
ATOM     39  C   UNL     1     109.793 127.046 139.004  0.00  0.00    +0.000 C 
ATOM     40  C   UNL     1     109.517 126.637 138.343  0.00  0.00    +0.000 C 
ATOM     41  C   UNL     1     110.518 127.440 138.971  0.00  0.00    +0.000 C 
ATOM     42  C   UNL     1     109.964 126.622 137.650  0.00  0.00    +0.000 C 
ATOM     43  C   UNL     1     110.964 127.426 138.278  0.00  0.00    +0.000 C 
BRANCH  42  45
ATOM     44  O   UNL     1     109.478 126.627 136.306  0.00  0.00    +0.000 OA
ATOM     45  C   UNL     1     109.688 126.213 136.989  0.00  0.00    +0.000 C 
ENDBRANCH  42  45
ENDBRANCH  34  43
ENDBRANCH   5  34
TORSDOF 8
ENDMDL
