MODEL 1
REMARK VINA RESULT:      -9.9      0.000      0.000
REMARK  Name = 44257153
REMARK  4 active torsions:
REMARK  status: ('A' for Active; 'I' for Inactive)
REMARK    1  A    between atoms: O_1  and  C_13
REMARK    2  A    between atoms: O_1  and  C_15
REMARK    3  A    between atoms: C_18  and  C_22
REMARK    4  A    between atoms: C_19  and  C_23
REMARK                            x       y       z     vdW  Elec       q    Type
REMARK                         _______ _______ _______ _____ _____    ______ ____
ROOT
ATOM      1  O   UNL     1     105.638 124.414 147.748  0.00  0.00    +0.000 OA
ATOM      2  O   UNL     1     107.032 125.605 146.085  0.00  0.00    +0.000 OA
ATOM      3  O   UNL     1     108.162 125.594 146.983  0.00  0.00    +0.000 OA
ATOM      4  O   UNL     1     107.875 124.355 149.612  0.00  0.00    +0.000 OA
ATOM      5  C   UNL     1     105.784 125.021 146.462  0.00  0.00    +0.000 C 
ATOM      6  C   UNL     1     105.319 124.624 147.017  0.00  0.00    +0.000 C 
ATOM      7  C   UNL     1     106.567 125.207 146.640  0.00  0.00    +0.000 C 
ATOM      8  C   UNL     1     106.887 124.997 147.371  0.00  0.00    +0.000 A 
ATOM      9  C   UNL     1     106.422 124.600 147.925  0.00  0.00    +0.000 A 
ATOM     10  C   UNL     1     107.705 125.197 147.543  0.00  0.00    +0.000 A 
ATOM     11  C   UNL     1     106.742 124.375 148.689  0.00  0.00    +0.000 A 
ATOM     12  C   UNL     1     108.042 124.980 148.303  0.00  0.00    +0.000 A 
ATOM     13  C   UNL     1     107.558 124.567 148.880  0.00  0.00    +0.000 A 
ENDROOT
BRANCH   6  16
ATOM     14  O   UNL     1     102.522 125.068 147.404  0.00  0.00    +0.000 OA
ATOM     15  O   UNL     1     102.182 123.882 146.309  0.00  0.00    +0.000 OA
ATOM     16  C   UNL     1     104.535 124.438 146.840  0.00  0.00    +0.000 A 
ATOM     17  C   UNL     1     103.920 124.846 147.210  0.00  0.00    +0.000 A 
ATOM     18  C   UNL     1     104.365 123.845 146.292  0.00  0.00    +0.000 A 
ATOM     19  C   UNL     1     103.136 124.660 147.033  0.00  0.00    +0.000 A 
ATOM     20  C   UNL     1     103.580 123.660 146.116  0.00  0.00    +0.000 A 
ATOM     21  C   UNL     1     102.967 124.067 146.485  0.00  0.00    +0.000 A 
ENDBRANCH   6  16
BRANCH   5  22
ATOM     22  O   UNL     1     105.464 125.232 145.731  0.00  0.00    +0.000 OA
BRANCH  22  27
ATOM     23  O   UNL     1     105.357 126.622 146.047  0.00  0.00    +0.000 OA
ATOM     24  O   UNL     1     105.694 125.610 144.142  0.00  0.00    +0.000 OA
ATOM     25  O   UNL     1     105.702 127.189 143.662  0.00  0.00    +0.000 OA
ATOM     26  O   UNL     1     105.480 128.389 144.772  0.00  0.00    +0.000 OA
ATOM     27  C   UNL     1     105.468 126.021 145.492  0.00  0.00    +0.000 C 
ATOM     28  C   UNL     1     105.583 126.210 144.697  0.00  0.00    +0.000 C 
ATOM     29  C   UNL     1     105.587 127.000 144.457  0.00  0.00    +0.000 C 
ATOM     30  C   UNL     1     105.476 127.600 145.012  0.00  0.00    +0.000 C 
ATOM     31  C   UNL     1     105.361 127.410 145.807  0.00  0.00    +0.000 C 
BRANCH  31  33
ATOM     32  O   UNL     1     104.551 128.045 146.799  0.00  0.00    +0.000 OA
ATOM     33  C   UNL     1     105.250 128.010 146.361  0.00  0.00    +0.000 C 
ENDBRANCH  31  33
ENDBRANCH  22  27
ENDBRANCH   5  22
TORSDOF 4
ENDMDL
MODEL 2
REMARK VINA RESULT:      -9.3      1.483      4.074
REMARK  Name = 44257153
REMARK  4 active torsions:
REMARK  status: ('A' for Active; 'I' for Inactive)
REMARK    1  A    between atoms: O_1  and  C_13
REMARK    2  A    between atoms: O_1  and  C_15
REMARK    3  A    between atoms: C_18  and  C_22
REMARK    4  A    between atoms: C_19  and  C_23
REMARK                            x       y       z     vdW  Elec       q    Type
REMARK                         _______ _______ _______ _____ _____    ______ ____
ROOT
ATOM      1  O   UNL     1     103.758 125.826 147.285  0.00  0.00    +0.000 OA
ATOM      2  O   UNL     1     105.659 124.464 146.473  0.00  0.00    +0.000 OA
ATOM      3  O   UNL     1     104.773 123.374 146.140  0.00  0.00    +0.000 OA
ATOM      4  O   UNL     1     101.910 123.669 146.638  0.00  0.00    +0.000 OA
ATOM      5  C   UNL     1     105.158 125.677 147.039  0.00  0.00    +0.000 C 
ATOM      6  C   UNL     1     104.524 126.131 147.310  0.00  0.00    +0.000 C 
ATOM      7  C   UNL     1     105.025 124.918 146.743  0.00  0.00    +0.000 C 
ATOM      8  C   UNL     1     104.259 124.613 146.719  0.00  0.00    +0.000 A 
ATOM      9  C   UNL     1     103.626 125.067 146.989  0.00  0.00    +0.000 A 
ATOM     10  C   UNL     1     104.134 123.821 146.408  0.00  0.00    +0.000 A 
ATOM     11  C   UNL     1     102.823 124.761 146.969  0.00  0.00    +0.000 A 
ATOM     12  C   UNL     1     103.338 123.499 146.380  0.00  0.00    +0.000 A 
ATOM     13  C   UNL     1     102.678 123.972 146.662  0.00  0.00    +0.000 A 
ENDROOT
BRANCH   6  16
ATOM     14  O   UNL     1     104.691 127.929 149.524  0.00  0.00    +0.000 OA
ATOM     15  O   UNL     1     105.057 129.165 148.494  0.00  0.00    +0.000 OA
ATOM     16  C   UNL     1     104.657 126.889 147.605  0.00  0.00    +0.000 A 
ATOM     17  C   UNL     1     104.607 127.030 148.417  0.00  0.00    +0.000 A 
ATOM     18  C   UNL     1     104.840 127.507 147.089  0.00  0.00    +0.000 A 
ATOM     19  C   UNL     1     104.741 127.789 148.712  0.00  0.00    +0.000 A 
ATOM     20  C   UNL     1     104.974 128.265 147.386  0.00  0.00    +0.000 A 
ATOM     21  C   UNL     1     104.924 128.406 148.197  0.00  0.00    +0.000 A 
ENDBRANCH   6  16
BRANCH   5  22
ATOM     22  O   UNL     1     105.924 125.981 147.064  0.00  0.00    +0.000 OA
BRANCH  22  27
ATOM     23  O   UNL     1     106.301 125.268 148.243  0.00  0.00    +0.000 OA
ATOM     24  O   UNL     1     107.483 125.915 146.526  0.00  0.00    +0.000 OA
ATOM     25  O   UNL     1     108.639 125.168 147.436  0.00  0.00    +0.000 OA
ATOM     26  O   UNL     1     108.236 124.488 148.883  0.00  0.00    +0.000 OA
ATOM     27  C   UNL     1     106.502 125.608 147.518  0.00  0.00    +0.000 C 
ATOM     28  C   UNL     1     107.281 125.575 147.249  0.00  0.00    +0.000 C 
ATOM     29  C   UNL     1     107.859 125.201 147.705  0.00  0.00    +0.000 C 
ATOM     30  C   UNL     1     107.657 124.861 148.429  0.00  0.00    +0.000 C 
ATOM     31  C   UNL     1     106.878 124.894 148.698  0.00  0.00    +0.000 C 
BRANCH  31  33
ATOM     32  O   UNL     1     106.158 123.914 149.447  0.00  0.00    +0.000 OA
ATOM     33  C   UNL     1     106.677 124.554 149.421  0.00  0.00    +0.000 C 
ENDBRANCH  31  33
ENDBRANCH  22  27
ENDBRANCH   5  22
TORSDOF 4
ENDMDL
MODEL 3
REMARK VINA RESULT:      -9.2      0.924      3.536
REMARK  Name = 44257153
REMARK  4 active torsions:
REMARK  status: ('A' for Active; 'I' for Inactive)
REMARK    1  A    between atoms: O_1  and  C_13
REMARK    2  A    between atoms: O_1  and  C_15
REMARK    3  A    between atoms: C_18  and  C_22
REMARK    4  A    between atoms: C_19  and  C_23
REMARK                            x       y       z     vdW  Elec       q    Type
REMARK                         _______ _______ _______ _____ _____    ______ ____
ROOT
ATOM      1  O   UNL     1     106.722 125.498 146.817  0.00  0.00    +0.000 OA
ATOM      2  O   UNL     1     104.768 124.777 148.154  0.00  0.00    +0.000 OA
ATOM      3  O   UNL     1     105.630 124.288 149.203  0.00  0.00    +0.000 OA
ATOM      4  O   UNL     1     108.523 124.534 148.893  0.00  0.00    +0.000 OA
ATOM      5  C   UNL     1     105.307 125.376 146.974  0.00  0.00    +0.000 C 
ATOM      6  C   UNL     1     105.959 125.616 146.528  0.00  0.00    +0.000 C 
ATOM      7  C   UNL     1     105.420 125.018 147.709  0.00  0.00    +0.000 C 
ATOM      8  C   UNL     1     106.183 124.900 147.998  0.00  0.00    +0.000 A 
ATOM      9  C   UNL     1     106.834 125.140 147.552  0.00  0.00    +0.000 A 
ATOM     10  C   UNL     1     106.287 124.525 148.764  0.00  0.00    +0.000 A 
ATOM     11  C   UNL     1     107.635 125.023 147.842  0.00  0.00    +0.000 A 
ATOM     12  C   UNL     1     107.080 124.400 149.070  0.00  0.00    +0.000 A 
ATOM     13  C   UNL     1     107.759 124.651 148.606  0.00  0.00    +0.000 A 
ENDROOT
BRANCH   6  16
ATOM     14  O   UNL     1     106.160 125.534 143.679  0.00  0.00    +0.000 OA
ATOM     15  O   UNL     1     105.508 127.047 143.589  0.00  0.00    +0.000 OA
ATOM     16  C   UNL     1     105.846 125.974 145.794  0.00  0.00    +0.000 A 
ATOM     17  C   UNL     1     106.060 125.575 145.103  0.00  0.00    +0.000 A 
ATOM     18  C   UNL     1     105.519 126.731 145.749  0.00  0.00    +0.000 A 
ATOM     19  C   UNL     1     105.947 125.933 144.369  0.00  0.00    +0.000 A 
ATOM     20  C   UNL     1     105.407 127.088 145.014  0.00  0.00    +0.000 A 
ATOM     21  C   UNL     1     105.620 126.690 144.324  0.00  0.00    +0.000 A 
ENDBRANCH   6  16
BRANCH   5  22
ATOM     22  O   UNL     1     104.543 125.494 146.685  0.00  0.00    +0.000 OA
BRANCH  22  27
ATOM     23  O   UNL     1     104.301 124.153 146.254  0.00  0.00    +0.000 OA
ATOM     24  O   UNL     1     102.981 125.610 147.203  0.00  0.00    +0.000 OA
ATOM     25  O   UNL     1     101.957 124.327 147.030  0.00  0.00    +0.000 OA
ATOM     26  O   UNL     1     102.496 122.929 146.340  0.00  0.00    +0.000 OA
ATOM     27  C   UNL     1     104.032 124.853 146.599  0.00  0.00    +0.000 C 
ATOM     28  C   UNL     1     103.251 124.911 146.858  0.00  0.00    +0.000 C 
ATOM     29  C   UNL     1     102.738 124.269 146.772  0.00  0.00    +0.000 C 
ATOM     30  C   UNL     1     103.008 123.570 146.426  0.00  0.00    +0.000 C 
ATOM     31  C   UNL     1     103.789 123.512 146.167  0.00  0.00    +0.000 C 
BRANCH  31  33
ATOM     32  O   UNL     1     104.362 122.821 145.055  0.00  0.00    +0.000 OA
ATOM     33  C   UNL     1     104.058 122.813 145.822  0.00  0.00    +0.000 C 
ENDBRANCH  31  33
ENDBRANCH  22  27
ENDBRANCH   5  22
TORSDOF 4
ENDMDL
MODEL 4
REMARK VINA RESULT:      -9.2     11.780     13.012
REMARK  Name = 44257153
REMARK  4 active torsions:
REMARK  status: ('A' for Active; 'I' for Inactive)
REMARK    1  A    between atoms: O_1  and  C_13
REMARK    2  A    between atoms: O_1  and  C_15
REMARK    3  A    between atoms: C_18  and  C_22
REMARK    4  A    between atoms: C_19  and  C_23
REMARK                            x       y       z     vdW  Elec       q    Type
REMARK                         _______ _______ _______ _____ _____    ______ ____
ROOT
ATOM      1  O   UNL     1     111.942 125.827 136.144  0.00  0.00    +0.000 OA
ATOM      2  O   UNL     1     111.423 128.160 136.790  0.00  0.00    +0.000 OA
ATOM      3  O   UNL     1     110.190 128.123 136.042  0.00  0.00    +0.000 OA
ATOM      4  O   UNL     1     109.469 125.680 134.612  0.00  0.00    +0.000 OA
ATOM      5  C   UNL     1     112.290 127.025 136.842  0.00  0.00    +0.000 C 
ATOM      6  C   UNL     1     112.463 126.247 136.626  0.00  0.00    +0.000 C 
ATOM      7  C   UNL     1     111.596 127.382 136.575  0.00  0.00    +0.000 C 
ATOM      8  C   UNL     1     111.075 126.962 136.093  0.00  0.00    +0.000 A 
ATOM      9  C   UNL     1     111.248 126.185 135.878  0.00  0.00    +0.000 A 
ATOM     10  C   UNL     1     110.355 127.345 135.821  0.00  0.00    +0.000 A 
ATOM     11  C   UNL     1     110.714 125.736 135.376  0.00  0.00    +0.000 A 
ATOM     12  C   UNL     1     109.809 126.913 135.319  0.00  0.00    +0.000 A 
ATOM     13  C   UNL     1     109.989 126.103 135.094  0.00  0.00    +0.000 A 
ENDROOT
BRANCH   6  16
ATOM     14  O   UNL     1     115.106 125.286 136.115  0.00  0.00    +0.000 OA
ATOM     15  O   UNL     1     115.241 124.820 137.692  0.00  0.00    +0.000 OA
ATOM     16  C   UNL     1     113.157 125.890 136.893  0.00  0.00    +0.000 A 
ATOM     17  C   UNL     1     113.784 125.767 136.371  0.00  0.00    +0.000 A 
ATOM     18  C   UNL     1     113.225 125.657 137.682  0.00  0.00    +0.000 A 
ATOM     19  C   UNL     1     114.479 125.410 136.638  0.00  0.00    +0.000 A 
ATOM     20  C   UNL     1     113.920 125.301 137.948  0.00  0.00    +0.000 A 
ATOM     21  C   UNL     1     114.546 125.177 137.426  0.00  0.00    +0.000 A 
ENDBRANCH   6  16
BRANCH   5  22
ATOM     22  O   UNL     1     112.811 127.445 137.324  0.00  0.00    +0.000 OA
BRANCH  22  27
ATOM     23  O   UNL     1     113.344 128.261 136.279  0.00  0.00    +0.000 OA
ATOM     24  O   UNL     1     112.987 128.694 138.388  0.00  0.00    +0.000 OA
ATOM     25  O   UNL     1     113.607 130.134 137.874  0.00  0.00    +0.000 OA
ATOM     26  O   UNL     1     114.051 130.325 136.298  0.00  0.00    +0.000 OA
ATOM     27  C   UNL     1     113.121 128.165 137.067  0.00  0.00    +0.000 C 
ATOM     28  C   UNL     1     113.209 128.789 137.599  0.00  0.00    +0.000 C 
ATOM     29  C   UNL     1     113.519 129.510 137.342  0.00  0.00    +0.000 C 
ATOM     30  C   UNL     1     113.741 129.605 136.554  0.00  0.00    +0.000 C 
ATOM     31  C   UNL     1     113.654 128.980 136.022  0.00  0.00    +0.000 C 
BRANCH  31  33
ATOM     32  O   UNL     1     114.516 128.654 134.931  0.00  0.00    +0.000 OA
ATOM     33  C   UNL     1     113.876 129.076 135.234  0.00  0.00    +0.000 C 
ENDBRANCH  31  33
ENDBRANCH  22  27
ENDBRANCH   5  22
TORSDOF 4
ENDMDL
MODEL 5
REMARK VINA RESULT:      -9.2     10.636     11.996
REMARK  Name = 44257153
REMARK  4 active torsions:
REMARK  status: ('A' for Active; 'I' for Inactive)
REMARK    1  A    between atoms: O_1  and  C_13
REMARK    2  A    between atoms: O_1  and  C_15
REMARK    3  A    between atoms: C_18  and  C_22
REMARK    4  A    between atoms: C_19  and  C_23
REMARK                            x       y       z     vdW  Elec       q    Type
REMARK                         _______ _______ _______ _____ _____    ______ ____
ROOT
ATOM      1  O   UNL     1     110.998 125.255 136.483  0.00  0.00    +0.000 OA
ATOM      2  O   UNL     1     113.216 126.294 136.124  0.00  0.00    +0.000 OA
ATOM      3  O   UNL     1     113.881 125.064 136.479  0.00  0.00    +0.000 OA
ATOM      4  O   UNL     1     112.271 122.739 137.211  0.00  0.00    +0.000 OA
ATOM      5  C   UNL     1     111.790 126.390 136.126  0.00  0.00    +0.000 C 
ATOM      6  C   UNL     1     111.050 126.043 136.246  0.00  0.00    +0.000 C 
ATOM      7  C   UNL     1     112.476 125.947 136.244  0.00  0.00    +0.000 C 
ATOM      8  C   UNL     1     112.423 125.159 136.482  0.00  0.00    +0.000 A 
ATOM      9  C   UNL     1     111.685 124.813 136.601  0.00  0.00    +0.000 A 
ATOM     10  C   UNL     1     113.146 124.709 136.601  0.00  0.00    +0.000 A 
ATOM     11  C   UNL     1     111.616 123.994 136.849  0.00  0.00    +0.000 A 
ATOM     12  C   UNL     1     113.097 123.888 136.849  0.00  0.00    +0.000 A 
ATOM     13  C   UNL     1     112.327 123.527 136.973  0.00  0.00    +0.000 A 
ENDROOT
BRANCH   6  16
ATOM     14  O   UNL     1     108.815 127.474 137.307  0.00  0.00    +0.000 OA
ATOM     15  O   UNL     1     108.306 127.814 135.775  0.00  0.00    +0.000 OA
ATOM     16  C   UNL     1     110.364 126.486 136.127  0.00  0.00    +0.000 A 
ATOM     17  C   UNL     1     109.933 126.759 136.776  0.00  0.00    +0.000 A 
ATOM     18  C   UNL     1     110.109 126.656 135.361  0.00  0.00    +0.000 A 
ATOM     19  C   UNL     1     109.247 127.201 136.658  0.00  0.00    +0.000 A 
ATOM     20  C   UNL     1     109.423 127.099 135.245  0.00  0.00    +0.000 A 
ATOM     21  C   UNL     1     108.992 127.371 135.892  0.00  0.00    +0.000 A 
ENDBRANCH   6  16
BRANCH   5  22
ATOM     22  O   UNL     1     111.843 127.178 135.888  0.00  0.00    +0.000 OA
BRANCH  22  27
ATOM     23  O   UNL     1     112.251 127.652 137.173  0.00  0.00    +0.000 OA
ATOM     24  O   UNL     1     112.682 128.404 135.169  0.00  0.00    +0.000 OA
ATOM     25  O   UNL     1     113.509 129.491 136.095  0.00  0.00    +0.000 OA
ATOM     26  O   UNL     1     113.498 129.352 137.738  0.00  0.00    +0.000 OA
ATOM     27  C   UNL     1     112.256 127.721 136.351  0.00  0.00    +0.000 C 
ATOM     28  C   UNL     1     112.676 128.334 135.991  0.00  0.00    +0.000 C 
ATOM     29  C   UNL     1     113.090 128.878 136.454  0.00  0.00    +0.000 C 
ATOM     30  C   UNL     1     113.084 128.808 137.276  0.00  0.00    +0.000 C 
ATOM     31  C   UNL     1     112.664 128.195 137.635  0.00  0.00    +0.000 C 
BRANCH  31  33
ATOM     32  O   UNL     1     111.950 128.199 138.873  0.00  0.00    +0.000 OA
ATOM     33  C   UNL     1     112.659 128.126 138.457  0.00  0.00    +0.000 C 
ENDBRANCH  31  33
ENDBRANCH  22  27
ENDBRANCH   5  22
TORSDOF 4
ENDMDL
MODEL 6
REMARK VINA RESULT:      -9.1     10.098     12.307
REMARK  Name = 44257153
REMARK  4 active torsions:
REMARK  status: ('A' for Active; 'I' for Inactive)
REMARK    1  A    between atoms: O_1  and  C_13
REMARK    2  A    between atoms: O_1  and  C_15
REMARK    3  A    between atoms: C_18  and  C_22
REMARK    4  A    between atoms: C_19  and  C_23
REMARK                            x       y       z     vdW  Elec       q    Type
REMARK                         _______ _______ _______ _____ _____    ______ ____
ROOT
ATOM      1  O   UNL     1     113.544 126.805 136.784  0.00  0.00    +0.000 OA
ATOM      2  O   UNL     1     111.593 125.492 136.011  0.00  0.00    +0.000 OA
ATOM      3  O   UNL     1     112.258 124.255 136.341  0.00  0.00    +0.000 OA
ATOM      4  O   UNL     1     114.947 124.348 137.476  0.00  0.00    +0.000 OA
ATOM      5  C   UNL     1     112.228 126.754 136.229  0.00  0.00    +0.000 C 
ATOM      6  C   UNL     1     112.879 127.191 136.487  0.00  0.00    +0.000 C 
ATOM      7  C   UNL     1     112.244 125.930 136.269  0.00  0.00    +0.000 C 
ATOM      8  C   UNL     1     112.909 125.543 136.566  0.00  0.00    +0.000 A 
ATOM      9  C   UNL     1     113.559 125.981 136.823  0.00  0.00    +0.000 A 
ATOM     10  C   UNL     1     112.913 124.685 136.602  0.00  0.00    +0.000 A 
ATOM     11  C   UNL     1     114.258 125.590 137.135  0.00  0.00    +0.000 A 
ATOM     12  C   UNL     1     113.603 124.277 136.910  0.00  0.00    +0.000 A 
ATOM     13  C   UNL     1     114.280 124.732 137.179  0.00  0.00    +0.000 A 
ENDROOT
BRANCH   6  16
ATOM     14  O   UNL     1     112.663 129.727 137.788  0.00  0.00    +0.000 OA
ATOM     15  O   UNL     1     112.815 130.487 136.331  0.00  0.00    +0.000 OA
ATOM     16  C   UNL     1     112.863 128.015 136.448  0.00  0.00    +0.000 A 
ATOM     17  C   UNL     1     112.771 128.459 137.138  0.00  0.00    +0.000 A 
ATOM     18  C   UNL     1     112.939 128.395 135.719  0.00  0.00    +0.000 A 
ATOM     19  C   UNL     1     112.755 129.283 137.098  0.00  0.00    +0.000 A 
ATOM     20  C   UNL     1     112.923 129.219 135.681  0.00  0.00    +0.000 A 
ATOM     21  C   UNL     1     112.831 129.663 136.370  0.00  0.00    +0.000 A 
ENDBRANCH   6  16
BRANCH   5  22
ATOM     22  O   UNL     1     111.562 127.140 135.932  0.00  0.00    +0.000 OA
BRANCH  22  27
ATOM     23  O   UNL     1     110.770 126.914 137.100  0.00  0.00    +0.000 OA
ATOM     24  O   UNL     1     110.199 127.120 135.003  0.00  0.00    +0.000 OA
ATOM     25  O   UNL     1     108.725 126.884 135.707  0.00  0.00    +0.000 OA
ATOM     26  O   UNL     1     108.615 126.668 137.338  0.00  0.00    +0.000 OA
ATOM     27  C   UNL     1     110.826 127.022 136.283  0.00  0.00    +0.000 C 
ATOM     28  C   UNL     1     110.144 127.012 135.819  0.00  0.00    +0.000 C 
ATOM     29  C   UNL     1     109.407 126.894 136.171  0.00  0.00    +0.000 C 
ATOM     30  C   UNL     1     109.352 126.786 136.987  0.00  0.00    +0.000 C 
ATOM     31  C   UNL     1     110.034 126.796 137.451  0.00  0.00    +0.000 C 
BRANCH  31  33
ATOM     32  O   UNL     1     110.221 127.287 138.780  0.00  0.00    +0.000 OA
ATOM     33  C   UNL     1     109.979 126.688 138.267  0.00  0.00    +0.000 C 
ENDBRANCH  31  33
ENDBRANCH  22  27
ENDBRANCH   5  22
TORSDOF 4
ENDMDL
MODEL 7
REMARK VINA RESULT:      -9.1      9.798     11.818
REMARK  Name = 44257153
REMARK  4 active torsions:
REMARK  status: ('A' for Active; 'I' for Inactive)
REMARK    1  A    between atoms: O_1  and  C_13
REMARK    2  A    between atoms: O_1  and  C_15
REMARK    3  A    between atoms: C_18  and  C_22
REMARK    4  A    between atoms: C_19  and  C_23
REMARK                            x       y       z     vdW  Elec       q    Type
REMARK                         _______ _______ _______ _____ _____    ______ ____
ROOT
ATOM      1  O   UNL     1     112.886 126.054 138.597  0.00  0.00    +0.000 OA
ATOM      2  O   UNL     1     110.579 125.679 137.781  0.00  0.00    +0.000 OA
ATOM      3  O   UNL     1     110.031 126.138 139.035  0.00  0.00    +0.000 OA
ATOM      4  O   UNL     1     111.852 126.992 141.152  0.00  0.00    +0.000 OA
ATOM      5  C   UNL     1     111.990 125.637 137.563  0.00  0.00    +0.000 C 
ATOM      6  C   UNL     1     112.760 125.762 137.835  0.00  0.00    +0.000 C 
ATOM      7  C   UNL     1     111.348 125.804 138.053  0.00  0.00    +0.000 C 
ATOM      8  C   UNL     1     111.474 126.096 138.815  0.00  0.00    +0.000 A 
ATOM      9  C   UNL     1     112.243 126.220 139.086  0.00  0.00    +0.000 A 
ATOM     10  C   UNL     1     110.797 126.266 139.315  0.00  0.00    +0.000 A 
ATOM     11  C   UNL     1     112.388 126.524 139.876  0.00  0.00    +0.000 A 
ATOM     12  C   UNL     1     110.922 126.570 140.108  0.00  0.00    +0.000 A 
ATOM     13  C   UNL     1     111.723 126.700 140.392  0.00  0.00    +0.000 A 
ENDROOT
BRANCH   6  16
ATOM     14  O   UNL     1     114.853 126.658 136.107  0.00  0.00    +0.000 OA
ATOM     15  O   UNL     1     115.329 125.096 135.874  0.00  0.00    +0.000 OA
ATOM     16  C   UNL     1     113.402 125.595 137.345  0.00  0.00    +0.000 A 
ATOM     17  C   UNL     1     113.806 126.210 136.971  0.00  0.00    +0.000 A 
ATOM     18  C   UNL     1     113.640 124.813 137.229  0.00  0.00    +0.000 A 
ATOM     19  C   UNL     1     114.448 126.043 136.481  0.00  0.00    +0.000 A 
ATOM     20  C   UNL     1     114.283 124.648 136.738  0.00  0.00    +0.000 A 
ATOM     21  C   UNL     1     114.687 125.262 136.365  0.00  0.00    +0.000 A 
ENDBRANCH   6  16
BRANCH   5  22
ATOM     22  O   UNL     1     111.864 125.345 136.802  0.00  0.00    +0.000 OA
BRANCH  22  27
ATOM     23  O   UNL     1     111.447 126.601 136.264  0.00  0.00    +0.000 OA
ATOM     24  O   UNL     1     110.888 124.561 135.727  0.00  0.00    +0.000 OA
ATOM     25  O   UNL     1     109.983 125.426 134.652  0.00  0.00    +0.000 OA
ATOM     26  O   UNL     1     110.055 127.073 134.652  0.00  0.00    +0.000 OA
ATOM     27  C   UNL     1     111.412 125.777 136.265  0.00  0.00    +0.000 C 
ATOM     28  C   UNL     1     110.924 125.385 135.728  0.00  0.00    +0.000 C 
ATOM     29  C   UNL     1     110.471 125.818 135.189  0.00  0.00    +0.000 C 
ATOM     30  C   UNL     1     110.507 126.642 135.189  0.00  0.00    +0.000 C 
ATOM     31  C   UNL     1     110.995 127.034 135.727  0.00  0.00    +0.000 C 
BRANCH  31  33
ATOM     32  O   UNL     1     111.748 128.240 135.581  0.00  0.00    +0.000 OA
ATOM     33  C   UNL     1     111.031 127.857 135.726  0.00  0.00    +0.000 C 
ENDBRANCH  31  33
ENDBRANCH  22  27
ENDBRANCH   5  22
TORSDOF 4
ENDMDL
MODEL 8
REMARK VINA RESULT:      -9.1     11.008     12.558
REMARK  Name = 44257153
REMARK  4 active torsions:
REMARK  status: ('A' for Active; 'I' for Inactive)
REMARK    1  A    between atoms: O_1  and  C_13
REMARK    2  A    between atoms: O_1  and  C_15
REMARK    3  A    between atoms: C_18  and  C_22
REMARK    4  A    between atoms: C_19  and  C_23
REMARK                            x       y       z     vdW  Elec       q    Type
REMARK                         _______ _______ _______ _____ _____    ______ ____
ROOT
ATOM      1  O   UNL     1     111.802 129.558 135.866  0.00  0.00    +0.000 OA
ATOM      2  O   UNL     1     112.314 130.872 137.901  0.00  0.00    +0.000 OA
ATOM      3  O   UNL     1     113.709 130.944 137.538  0.00  0.00    +0.000 OA
ATOM      4  O   UNL     1     114.602 129.662 135.070  0.00  0.00    +0.000 OA
ATOM      5  C   UNL     1     111.370 130.187 137.075  0.00  0.00    +0.000 C 
ATOM      6  C   UNL     1     111.200 129.749 136.396  0.00  0.00    +0.000 C 
ATOM      7  C   UNL     1     112.144 130.434 137.222  0.00  0.00    +0.000 C 
ATOM      8  C   UNL     1     112.746 130.243 136.692  0.00  0.00    +0.000 A 
ATOM      9  C   UNL     1     112.575 129.805 136.014  0.00  0.00    +0.000 A 
ATOM     10  C   UNL     1     113.547 130.506 136.857  0.00  0.00    +0.000 A 
ATOM     11  C   UNL     1     113.194 129.600 135.454  0.00  0.00    +0.000 A 
ATOM     12  C   UNL     1     114.179 130.311 136.308  0.00  0.00    +0.000 A 
ATOM     13  C   UNL     1     114.001 129.854 135.602  0.00  0.00    +0.000 A 
ENDROOT
BRANCH   6  16
ATOM     14  O   UNL     1     108.752 130.014 134.945  0.00  0.00    +0.000 OA
ATOM     15  O   UNL     1     108.106 128.763 135.806  0.00  0.00    +0.000 OA
ATOM     16  C   UNL     1     110.427 129.502 136.249  0.00  0.00    +0.000 A 
ATOM     17  C   UNL     1     109.976 129.881 135.671  0.00  0.00    +0.000 A 
ATOM     18  C   UNL     1     110.104 128.877 136.680  0.00  0.00    +0.000 A 
ATOM     19  C   UNL     1     109.203 129.634 135.524  0.00  0.00    +0.000 A 
ATOM     20  C   UNL     1     109.330 128.631 136.532  0.00  0.00    +0.000 A 
ATOM     21  C   UNL     1     108.880 129.009 135.954  0.00  0.00    +0.000 A 
ENDBRANCH   6  16
BRANCH   5  22
ATOM     22  O   UNL     1     110.768 130.378 137.605  0.00  0.00    +0.000 OA
BRANCH  22  27
ATOM     23  O   UNL     1     110.669 131.744 137.199  0.00  0.00    +0.000 OA
ATOM     24  O   UNL     1     110.345 130.804 139.142  0.00  0.00    +0.000 OA
ATOM     25  O   UNL     1     110.035 132.384 139.504  0.00  0.00    +0.000 OA
ATOM     26  O   UNL     1     110.147 133.536 138.329  0.00  0.00    +0.000 OA
ATOM     27  C   UNL     1     110.613 131.167 137.786  0.00  0.00    +0.000 C 
ATOM     28  C   UNL     1     110.401 131.380 138.554  0.00  0.00    +0.000 C 
ATOM     29  C   UNL     1     110.246 132.171 138.736  0.00  0.00    +0.000 C 
ATOM     30  C   UNL     1     110.302 132.747 138.148  0.00  0.00    +0.000 C 
ATOM     31  C   UNL     1     110.514 132.533 137.379  0.00  0.00    +0.000 C 
BRANCH  31  33
ATOM     32  O   UNL     1     110.048 133.100 136.153  0.00  0.00    +0.000 OA
ATOM     33  C   UNL     1     110.569 133.110 136.793  0.00  0.00    +0.000 C 
ENDBRANCH  31  33
ENDBRANCH  22  27
ENDBRANCH   5  22
TORSDOF 4
ENDMDL
MODEL 9
REMARK VINA RESULT:      -9.1      9.053     11.087
REMARK  Name = 44257153
REMARK  4 active torsions:
REMARK  status: ('A' for Active; 'I' for Inactive)
REMARK    1  A    between atoms: O_1  and  C_13
REMARK    2  A    between atoms: O_1  and  C_15
REMARK    3  A    between atoms: C_18  and  C_22
REMARK    4  A    between atoms: C_19  and  C_23
REMARK                            x       y       z     vdW  Elec       q    Type
REMARK                         _______ _______ _______ _____ _____    ______ ____
ROOT
ATOM      1  O   UNL     1     113.803 126.204 138.372  0.00  0.00    +0.000 OA
ATOM      2  O   UNL     1     111.706 124.974 137.903  0.00  0.00    +0.000 OA
ATOM      3  O   UNL     1     112.325 124.284 136.797  0.00  0.00    +0.000 OA
ATOM      4  O   UNL     1     115.117 124.850 136.154  0.00  0.00    +0.000 OA
ATOM      5  C   UNL     1     112.436 125.923 138.683  0.00  0.00    +0.000 C 
ATOM      6  C   UNL     1     113.136 126.334 138.839  0.00  0.00    +0.000 C 
ATOM      7  C   UNL     1     112.406 125.384 138.059  0.00  0.00    +0.000 C 
ATOM      8  C   UNL     1     113.073 125.254 137.592  0.00  0.00    +0.000 A 
ATOM      9  C   UNL     1     113.772 125.664 137.749  0.00  0.00    +0.000 A 
ATOM     10  C   UNL     1     113.028 124.690 136.946  0.00  0.00    +0.000 A 
ATOM     11  C   UNL     1     114.474 125.538 137.270  0.00  0.00    +0.000 A 
ATOM     12  C   UNL     1     113.720 124.551 136.456  0.00  0.00    +0.000 A 
ATOM     13  C   UNL     1     114.448 124.977 136.619  0.00  0.00    +0.000 A 
ENDROOT
BRANCH   6  16
ATOM     14  O   UNL     1     113.223 129.033 139.772  0.00  0.00    +0.000 OA
ATOM     15  O   UNL     1     113.257 128.493 141.331  0.00  0.00    +0.000 OA
ATOM     16  C   UNL     1     113.166 126.873 139.462  0.00  0.00    +0.000 A 
ATOM     17  C   UNL     1     113.179 127.684 139.306  0.00  0.00    +0.000 A 
ATOM     18  C   UNL     1     113.183 126.603 140.242  0.00  0.00    +0.000 A 
ATOM     19  C   UNL     1     113.210 128.223 139.929  0.00  0.00    +0.000 A 
ATOM     20  C   UNL     1     113.214 127.144 140.864  0.00  0.00    +0.000 A 
ATOM     21  C   UNL     1     113.227 127.953 140.708  0.00  0.00    +0.000 A 
ENDBRANCH   6  16
BRANCH   5  22
ATOM     22  O   UNL     1     111.769 126.053 139.150  0.00  0.00    +0.000 OA
BRANCH  22  27
ATOM     23  O   UNL     1     111.089 126.827 138.159  0.00  0.00    +0.000 OA
ATOM     24  O   UNL     1     110.318 125.537 139.742  0.00  0.00    +0.000 OA
ATOM     25  O   UNL     1     108.912 126.052 139.047  0.00  0.00    +0.000 OA
ATOM     26  O   UNL     1     108.959 127.084 137.761  0.00  0.00    +0.000 OA
ATOM     27  C   UNL     1     111.067 126.311 138.802  0.00  0.00    +0.000 C 
ATOM     28  C   UNL     1     110.341 126.053 139.098  0.00  0.00    +0.000 C 
ATOM     29  C   UNL     1     109.638 126.311 138.751  0.00  0.00    +0.000 C 
ATOM     30  C   UNL     1     109.662 126.826 138.108  0.00  0.00    +0.000 C 
ATOM     31  C   UNL     1     110.387 127.084 137.811  0.00  0.00    +0.000 C 
BRANCH  31  33
ATOM     32  O   UNL     1     110.756 128.345 137.248  0.00  0.00    +0.000 OA
ATOM     33  C   UNL     1     110.410 127.600 137.169  0.00  0.00    +0.000 C 
ENDBRANCH  31  33
ENDBRANCH  22  27
ENDBRANCH   5  22
TORSDOF 4
ENDMDL
MODEL 10
REMARK VINA RESULT:      -9.1      9.900     12.077
REMARK  Name = 44257153
REMARK  4 active torsions:
REMARK  status: ('A' for Active; 'I' for Inactive)
REMARK    1  A    between atoms: O_1  and  C_13
REMARK    2  A    between atoms: O_1  and  C_15
REMARK    3  A    between atoms: C_18  and  C_22
REMARK    4  A    between atoms: C_19  and  C_23
REMARK                            x       y       z     vdW  Elec       q    Type
REMARK                         _______ _______ _______ _____ _____    ______ ____
ROOT
ATOM      1  O   UNL     1     113.549 127.288 136.630  0.00  0.00    +0.000 OA
ATOM      2  O   UNL     1     112.123 128.214 138.430  0.00  0.00    +0.000 OA
ATOM      3  O   UNL     1     112.344 129.557 137.953  0.00  0.00    +0.000 OA
ATOM      4  O   UNL     1     114.039 129.972 135.610  0.00  0.00    +0.000 OA
ATOM      5  C   UNL     1     112.718 127.091 137.777  0.00  0.00    +0.000 C 
ATOM      6  C   UNL     1     113.194 126.782 137.176  0.00  0.00    +0.000 C 
ATOM      7  C   UNL     1     112.599 127.905 137.829  0.00  0.00    +0.000 C 
ATOM      8  C   UNL     1     112.954 128.411 137.283  0.00  0.00    +0.000 A 
ATOM      9  C   UNL     1     113.428 128.103 136.684  0.00  0.00    +0.000 A 
ATOM     10  C   UNL     1     112.821 129.258 137.349  0.00  0.00    +0.000 A 
ATOM     11  C   UNL     1     113.803 128.618 136.108  0.00  0.00    +0.000 A 
ATOM     12  C   UNL     1     113.188 129.789 136.783  0.00  0.00    +0.000 A 
ATOM     13  C   UNL     1     113.682 129.468 136.158  0.00  0.00    +0.000 A 
ENDROOT
BRANCH   6  16
ATOM     14  O   UNL     1     114.892 124.505 137.494  0.00  0.00    +0.000 OA
ATOM     15  O   UNL     1     113.675 123.524 136.966  0.00  0.00    +0.000 OA
ATOM     16  C   UNL     1     113.313 125.968 137.124  0.00  0.00    +0.000 A 
ATOM     17  C   UNL     1     114.043 125.644 137.335  0.00  0.00    +0.000 A 
ATOM     18  C   UNL     1     112.705 125.477 136.860  0.00  0.00    +0.000 A 
ATOM     19  C   UNL     1     114.163 124.829 137.282  0.00  0.00    +0.000 A 
ATOM     20  C   UNL     1     112.826 124.662 136.807  0.00  0.00    +0.000 A 
ATOM     21  C   UNL     1     113.554 124.339 137.019  0.00  0.00    +0.000 A 
ENDBRANCH   6  16
BRANCH   5  22
ATOM     22  O   UNL     1     112.364 126.585 138.323  0.00  0.00    +0.000 OA
BRANCH  22  27
ATOM     23  O   UNL     1     113.258 126.928 139.384  0.00  0.00    +0.000 OA
ATOM     24  O   UNL     1     111.178 126.268 139.426  0.00  0.00    +0.000 OA
ATOM     25  O   UNL     1     111.479 126.453 141.038  0.00  0.00    +0.000 OA
ATOM     26  O   UNL     1     112.966 126.953 141.546  0.00  0.00    +0.000 OA
ATOM     27  C   UNL     1     112.514 126.677 139.129  0.00  0.00    +0.000 C 
ATOM     28  C   UNL     1     111.922 126.519 139.680  0.00  0.00    +0.000 C 
ATOM     29  C   UNL     1     112.072 126.611 140.486  0.00  0.00    +0.000 C 
ATOM     30  C   UNL     1     112.816 126.861 140.740  0.00  0.00    +0.000 C 
ATOM     31  C   UNL     1     113.409 127.020 140.189  0.00  0.00    +0.000 C 
BRANCH  31  33
ATOM     32  O   UNL     1     114.809 126.781 140.346  0.00  0.00    +0.000 OA
ATOM     33  C   UNL     1     114.152 127.270 140.443  0.00  0.00    +0.000 C 
ENDBRANCH  31  33
ENDBRANCH  22  27
ENDBRANCH   5  22
TORSDOF 4
ENDMDL
