MODEL 1
REMARK VINA RESULT:      -9.7      0.000      0.000
REMARK  Name = 44258953
REMARK  5 active torsions:
REMARK  status: ('A' for Active; 'I' for Inactive)
REMARK    1  A    between atoms: O_2  and  C_14
REMARK    2  A    between atoms: O_2  and  C_19
REMARK    3  A    between atoms: O_3  and  C_16
REMARK    4  A    between atoms: O_3  and  C_18
REMARK    5  A    between atoms: C_20  and  C_24
REMARK                            x       y       z     vdW  Elec       q    Type
REMARK                         _______ _______ _______ _____ _____    ______ ____
ROOT
ATOM      1  O   UNL     1     102.560 124.757 147.128  0.00  0.00    +0.000 OA
ATOM      2  O   UNL     1     104.619 123.640 146.329  0.00  0.00    +0.000 OA
ATOM      3  O   UNL     1     103.847 122.753 145.492  0.00  0.00    +0.000 OA
ATOM      4  O   UNL     1     100.938 123.001 145.464  0.00  0.00    +0.000 OA
ATOM      5  C   UNL     1     103.983 124.631 147.138  0.00  0.00    +0.000 A 
ATOM      6  C   UNL     1     103.297 125.003 147.404  0.00  0.00    +0.000 A 
ATOM      7  C   UNL     1     103.933 124.012 146.595  0.00  0.00    +0.000 A 
ATOM      8  C   UNL     1     103.196 123.765 146.318  0.00  0.00    +0.000 A 
ATOM      9  C   UNL     1     102.509 124.138 146.585  0.00  0.00    +0.000 A 
ATOM     10  C   UNL     1     103.156 123.120 145.753  0.00  0.00    +0.000 A 
ATOM     11  C   UNL     1     101.736 123.890 146.304  0.00  0.00    +0.000 A 
ATOM     12  C   UNL     1     102.391 122.858 145.461  0.00  0.00    +0.000 A 
ATOM     13  C   UNL     1     101.677 123.246 145.739  0.00  0.00    +0.000 A 
ENDROOT
BRANCH   6  15
ATOM     14  O   UNL     1     103.498 127.478 149.578  0.00  0.00    +0.000 OA
ATOM     15  C   UNL     1     103.348 125.623 147.947  0.00  0.00    +0.000 A 
ATOM     16  C   UNL     1     103.458 125.460 148.749  0.00  0.00    +0.000 A 
ATOM     17  C   UNL     1     103.287 126.403 147.690  0.00  0.00    +0.000 A 
ATOM     18  C   UNL     1     103.509 126.078 149.293  0.00  0.00    +0.000 A 
ATOM     19  C   UNL     1     103.337 127.023 148.233  0.00  0.00    +0.000 A 
ATOM     20  C   UNL     1     103.448 126.860 149.034  0.00  0.00    +0.000 A 
ENDBRANCH   6  15
BRANCH   5  21
ATOM     21  O   UNL     1     104.720 124.878 147.415  0.00  0.00    +0.000 OA
BRANCH  21  29
ATOM     22  O   UNL     1     105.066 125.561 146.208  0.00  0.00    +0.000 OA
ATOM     23  O   UNL     1     107.461 125.109 146.639  0.00  0.00    +0.000 OA
ATOM     24  O   UNL     1     107.009 125.942 145.289  0.00  0.00    +0.000 OA
ATOM     25  C   UNL     1     106.663 125.260 146.495  0.00  0.00    +0.000 C 
ATOM     26  C   UNL     1     106.437 125.676 145.821  0.00  0.00    +0.000 C 
ATOM     27  C   UNL     1     106.091 124.994 147.027  0.00  0.00    +0.000 C 
ATOM     28  C   UNL     1     105.639 125.826 145.677  0.00  0.00    +0.000 C 
ATOM     29  C   UNL     1     105.293 125.144 146.883  0.00  0.00    +0.000 C 
ATOM     30  C   UNL     1     105.412 126.243 145.001  0.00  0.00    +0.000 C 
BRANCH  27  31
ATOM     31  O   UNL     1     106.317 124.577 147.702  0.00  0.00    +0.000 OA
BRANCH  31  33
ATOM     32  O   UNL     1     106.732 125.744 148.416  0.00  0.00    +0.000 OA
ATOM     33  C   UNL     1     106.803 124.935 148.264  0.00  0.00    +0.000 C 
ATOM     34  C   UNL     1     107.360 124.487 148.675  0.00  0.00    +0.000 C 
ENDBRANCH  31  33
ENDBRANCH  27  31
ENDBRANCH  21  29
ENDBRANCH   5  21
TORSDOF 5
ENDMDL
MODEL 2
REMARK VINA RESULT:      -9.4      1.619      4.148
REMARK  Name = 44258953
REMARK  5 active torsions:
REMARK  status: ('A' for Active; 'I' for Inactive)
REMARK    1  A    between atoms: O_2  and  C_14
REMARK    2  A    between atoms: O_2  and  C_19
REMARK    3  A    between atoms: O_3  and  C_16
REMARK    4  A    between atoms: O_3  and  C_18
REMARK    5  A    between atoms: C_20  and  C_24
REMARK                            x       y       z     vdW  Elec       q    Type
REMARK                         _______ _______ _______ _____ _____    ______ ____
ROOT
ATOM      1  O   UNL     1     105.679 124.386 147.522  0.00  0.00    +0.000 OA
ATOM      2  O   UNL     1     107.202 125.549 145.957  0.00  0.00    +0.000 OA
ATOM      3  O   UNL     1     108.229 125.625 146.968  0.00  0.00    +0.000 OA
ATOM      4  O   UNL     1     107.705 124.503 149.612  0.00  0.00    +0.000 OA
ATOM      5  C   UNL     1     105.941 124.936 146.230  0.00  0.00    +0.000 A 
ATOM      6  C   UNL     1     105.433 124.549 146.752  0.00  0.00    +0.000 A 
ATOM      7  C   UNL     1     106.695 125.162 146.478  0.00  0.00    +0.000 A 
ATOM      8  C   UNL     1     106.941 124.999 147.249  0.00  0.00    +0.000 A 
ATOM      9  C   UNL     1     106.433 124.611 147.771  0.00  0.00    +0.000 A 
ATOM     10  C   UNL     1     107.728 125.238 147.496  0.00  0.00    +0.000 A 
ATOM     11  C   UNL     1     106.677 124.435 148.576  0.00  0.00    +0.000 A 
ATOM     12  C   UNL     1     107.990 125.071 148.298  0.00  0.00    +0.000 A 
ATOM     13  C   UNL     1     107.461 124.667 148.840  0.00  0.00    +0.000 A 
ENDROOT
BRANCH   6  15
ATOM     14  O   UNL     1     102.419 123.645 145.759  0.00  0.00    +0.000 OA
ATOM     15  C   UNL     1     104.679 124.323 146.504  0.00  0.00    +0.000 A 
ATOM     16  C   UNL     1     104.585 123.659 146.023  0.00  0.00    +0.000 A 
ATOM     17  C   UNL     1     104.020 124.761 146.736  0.00  0.00    +0.000 A 
ATOM     18  C   UNL     1     103.832 123.433 145.774  0.00  0.00    +0.000 A 
ATOM     19  C   UNL     1     103.266 124.535 146.488  0.00  0.00    +0.000 A 
ATOM     20  C   UNL     1     103.172 123.872 146.007  0.00  0.00    +0.000 A 
ENDBRANCH   6  15
BRANCH   5  21
ATOM     21  O   UNL     1     105.695 125.099 145.460  0.00  0.00    +0.000 OA
BRANCH  21  29
ATOM     22  O   UNL     1     105.427 126.490 145.649  0.00  0.00    +0.000 OA
ATOM     23  O   UNL     1     106.311 126.968 143.388  0.00  0.00    +0.000 OA
ATOM     24  O   UNL     1     105.748 128.200 144.331  0.00  0.00    +0.000 OA
ATOM     25  C   UNL     1     106.016 126.809 144.142  0.00  0.00    +0.000 C 
ATOM     26  C   UNL     1     105.735 127.424 144.613  0.00  0.00    +0.000 C 
ATOM     27  C   UNL     1     106.003 126.034 144.424  0.00  0.00    +0.000 C 
ATOM     28  C   UNL     1     105.440 127.265 145.367  0.00  0.00    +0.000 C 
ATOM     29  C   UNL     1     105.708 125.875 145.177  0.00  0.00    +0.000 C 
ATOM     30  C   UNL     1     105.158 127.881 145.839  0.00  0.00    +0.000 C 
BRANCH  27  31
ATOM     31  O   UNL     1     106.284 125.418 143.952  0.00  0.00    +0.000 OA
BRANCH  31  33
ATOM     32  O   UNL     1     105.148 125.137 143.132  0.00  0.00    +0.000 OA
ATOM     33  C   UNL     1     105.956 125.287 143.207  0.00  0.00    +0.000 C 
ATOM     34  C   UNL     1     106.435 125.306 142.536  0.00  0.00    +0.000 C 
ENDBRANCH  31  33
ENDBRANCH  27  31
ENDBRANCH  21  29
ENDBRANCH   5  21
TORSDOF 5
ENDMDL
MODEL 3
REMARK VINA RESULT:      -9.3     10.997     13.965
REMARK  Name = 44258953
REMARK  5 active torsions:
REMARK  status: ('A' for Active; 'I' for Inactive)
REMARK    1  A    between atoms: O_2  and  C_14
REMARK    2  A    between atoms: O_2  and  C_19
REMARK    3  A    between atoms: O_3  and  C_16
REMARK    4  A    between atoms: O_3  and  C_18
REMARK    5  A    between atoms: C_20  and  C_24
REMARK                            x       y       z     vdW  Elec       q    Type
REMARK                         _______ _______ _______ _____ _____    ______ ____
ROOT
ATOM      1  O   UNL     1     114.134 127.476 136.132  0.00  0.00    +0.000 OA
ATOM      2  O   UNL     1     111.854 128.259 136.689  0.00  0.00    +0.000 OA
ATOM      3  O   UNL     1     112.093 129.517 136.025  0.00  0.00    +0.000 OA
ATOM      4  O   UNL     1     114.688 129.992 134.774  0.00  0.00    +0.000 OA
ATOM      5  C   UNL     1     112.863 127.249 136.742  0.00  0.00    +0.000 A 
ATOM      6  C   UNL     1     113.623 126.988 136.557  0.00  0.00    +0.000 A 
ATOM      7  C   UNL     1     112.614 127.998 136.503  0.00  0.00    +0.000 A 
ATOM      8  C   UNL     1     113.125 128.486 136.078  0.00  0.00    +0.000 A 
ATOM      9  C   UNL     1     113.886 128.225 135.893  0.00  0.00    +0.000 A 
ATOM     10  C   UNL     1     112.855 129.264 135.835  0.00  0.00    +0.000 A 
ATOM     11  C   UNL     1     114.428 128.725 135.451  0.00  0.00    +0.000 A 
ATOM     12  C   UNL     1     113.383 129.778 135.392  0.00  0.00    +0.000 A 
ATOM     13  C   UNL     1     114.174 129.506 135.199  0.00  0.00    +0.000 A 
ENDROOT
BRANCH   6  15
ATOM     14  O   UNL     1     114.622 123.992 137.515  0.00  0.00    +0.000 OA
ATOM     15  C   UNL     1     113.873 126.238 136.796  0.00  0.00    +0.000 A 
ATOM     16  C   UNL     1     114.118 126.114 137.574  0.00  0.00    +0.000 A 
ATOM     17  C   UNL     1     113.877 125.614 136.258  0.00  0.00    +0.000 A 
ATOM     18  C   UNL     1     114.367 125.366 137.814  0.00  0.00    +0.000 A 
ATOM     19  C   UNL     1     114.127 124.864 136.497  0.00  0.00    +0.000 A 
ATOM     20  C   UNL     1     114.372 124.740 137.275  0.00  0.00    +0.000 A 
ENDBRANCH   6  15
BRANCH   5  21
ATOM     21  O   UNL     1     112.352 126.760 137.167  0.00  0.00    +0.000 OA
BRANCH  21  29
ATOM     22  O   UNL     1     111.538 126.439 136.037  0.00  0.00    +0.000 OA
ATOM     23  O   UNL     1     109.577 126.175 137.524  0.00  0.00    +0.000 OA
ATOM     24  O   UNL     1     109.418 125.942 135.899  0.00  0.00    +0.000 OA
ATOM     25  C   UNL     1     110.231 126.263 137.029  0.00  0.00    +0.000 C 
ATOM     26  C   UNL     1     110.151 126.146 136.217  0.00  0.00    +0.000 C 
ATOM     27  C   UNL     1     110.964 126.468 137.346  0.00  0.00    +0.000 C 
ATOM     28  C   UNL     1     110.805 126.234 135.721  0.00  0.00    +0.000 C 
ATOM     29  C   UNL     1     111.618 126.555 136.850  0.00  0.00    +0.000 C 
ATOM     30  C   UNL     1     110.725 126.117 134.907  0.00  0.00    +0.000 C 
BRANCH  27  31
ATOM     31  O   UNL     1     111.045 126.585 138.159  0.00  0.00    +0.000 OA
BRANCH  31  33
ATOM     32  O   UNL     1     111.097 125.212 138.554  0.00  0.00    +0.000 OA
ATOM     33  C   UNL     1     110.835 125.984 138.684  0.00  0.00    +0.000 C 
ATOM     34  C   UNL     1     110.364 126.154 139.339  0.00  0.00    +0.000 C 
ENDBRANCH  31  33
ENDBRANCH  27  31
ENDBRANCH  21  29
ENDBRANCH   5  21
TORSDOF 5
ENDMDL
MODEL 4
REMARK VINA RESULT:      -9.2     10.157     13.189
REMARK  Name = 44258953
REMARK  5 active torsions:
REMARK  status: ('A' for Active; 'I' for Inactive)
REMARK    1  A    between atoms: O_2  and  C_14
REMARK    2  A    between atoms: O_2  and  C_19
REMARK    3  A    between atoms: O_3  and  C_16
REMARK    4  A    between atoms: O_3  and  C_18
REMARK    5  A    between atoms: C_20  and  C_24
REMARK                            x       y       z     vdW  Elec       q    Type
REMARK                         _______ _______ _______ _____ _____    ______ ____
ROOT
ATOM      1  O   UNL     1     113.501 127.107 136.313  0.00  0.00    +0.000 OA
ATOM      2  O   UNL     1     112.268 128.308 138.091  0.00  0.00    +0.000 OA
ATOM      3  O   UNL     1     112.778 129.576 137.629  0.00  0.00    +0.000 OA
ATOM      4  O   UNL     1     114.569 129.630 135.324  0.00  0.00    +0.000 OA
ATOM      5  C   UNL     1     112.625 127.086 137.441  0.00  0.00    +0.000 A 
ATOM      6  C   UNL     1     113.036 126.686 136.849  0.00  0.00    +0.000 A 
ATOM      7  C   UNL     1     112.679 127.908 137.499  0.00  0.00    +0.000 A 
ATOM      8  C   UNL     1     113.144 128.329 136.963  0.00  0.00    +0.000 A 
ATOM      9  C   UNL     1     113.556 127.928 136.370  0.00  0.00    +0.000 A 
ATOM     10  C   UNL     1     113.192 129.183 137.033  0.00  0.00    +0.000 A 
ATOM     11  C   UNL     1     114.043 128.356 135.806  0.00  0.00    +0.000 A 
ATOM     12  C   UNL     1     113.675 129.628 136.478  0.00  0.00    +0.000 A 
ATOM     13  C   UNL     1     114.103 129.211 135.861  0.00  0.00    +0.000 A 
ENDROOT
BRANCH   6  15
ATOM     14  O   UNL     1     112.820 123.401 136.617  0.00  0.00    +0.000 OA
ATOM     15  C   UNL     1     112.983 125.865 136.791  0.00  0.00    +0.000 A 
ATOM     16  C   UNL     1     112.319 125.519 136.445  0.00  0.00    +0.000 A 
ATOM     17  C   UNL     1     113.592 125.390 137.079  0.00  0.00    +0.000 A 
ATOM     18  C   UNL     1     112.264 124.698 136.386  0.00  0.00    +0.000 A 
ATOM     19  C   UNL     1     113.538 124.569 137.022  0.00  0.00    +0.000 A 
ATOM     20  C   UNL     1     112.875 124.222 136.675  0.00  0.00    +0.000 A 
ENDBRANCH   6  15
BRANCH   5  21
ATOM     21  O   UNL     1     112.160 126.665 137.977  0.00  0.00    +0.000 OA
BRANCH  21  29
ATOM     22  O   UNL     1     113.089 126.786 139.055  0.00  0.00    +0.000 OA
ATOM     23  O   UNL     1     111.217 126.735 140.674  0.00  0.00    +0.000 OA
ATOM     24  O   UNL     1     112.770 126.874 141.213  0.00  0.00    +0.000 OA
ATOM     25  C   UNL     1     111.841 126.752 140.134  0.00  0.00    +0.000 C 
ATOM     26  C   UNL     1     112.617 126.821 140.404  0.00  0.00    +0.000 C 
ATOM     27  C   UNL     1     111.688 126.700 139.326  0.00  0.00    +0.000 C 
ATOM     28  C   UNL     1     113.241 126.838 139.864  0.00  0.00    +0.000 C 
ATOM     29  C   UNL     1     112.312 126.717 138.786  0.00  0.00    +0.000 C 
ATOM     30  C   UNL     1     114.018 126.908 140.134  0.00  0.00    +0.000 C 
BRANCH  27  31
ATOM     31  O   UNL     1     110.912 126.631 139.055  0.00  0.00    +0.000 OA
BRANCH  31  33
ATOM     32  O   UNL     1     110.742 125.238 139.326  0.00  0.00    +0.000 OA
ATOM     33  C   UNL     1     110.440 126.006 139.314  0.00  0.00    +0.000 C 
ATOM     34  C   UNL     1     109.665 126.147 139.560  0.00  0.00    +0.000 C 
ENDBRANCH  31  33
ENDBRANCH  27  31
ENDBRANCH  21  29
ENDBRANCH   5  21
TORSDOF 5
ENDMDL
MODEL 5
REMARK VINA RESULT:      -9.2     10.979     13.387
REMARK  Name = 44258953
REMARK  5 active torsions:
REMARK  status: ('A' for Active; 'I' for Inactive)
REMARK    1  A    between atoms: O_2  and  C_14
REMARK    2  A    between atoms: O_2  and  C_19
REMARK    3  A    between atoms: O_3  and  C_16
REMARK    4  A    between atoms: O_3  and  C_18
REMARK    5  A    between atoms: C_20  and  C_24
REMARK                            x       y       z     vdW  Elec       q    Type
REMARK                         _______ _______ _______ _____ _____    ______ ____
ROOT
ATOM      1  O   UNL     1     113.225 128.218 138.352  0.00  0.00    +0.000 OA
ATOM      2  O   UNL     1     111.868 126.157 138.541  0.00  0.00    +0.000 OA
ATOM      3  O   UNL     1     112.043 126.139 139.973  0.00  0.00    +0.000 OA
ATOM      4  O   UNL     1     113.620 128.246 141.237  0.00  0.00    +0.000 OA
ATOM      5  C   UNL     1     112.452 127.185 137.738  0.00  0.00    +0.000 A 
ATOM      6  C   UNL     1     112.904 127.872 137.675  0.00  0.00    +0.000 A 
ATOM      7  C   UNL     1     112.320 126.844 138.478  0.00  0.00    +0.000 A 
ATOM      8  C   UNL     1     112.640 127.190 139.155  0.00  0.00    +0.000 A 
ATOM      9  C   UNL     1     113.093 127.878 139.092  0.00  0.00    +0.000 A 
ATOM     10  C   UNL     1     112.496 126.826 139.919  0.00  0.00    +0.000 A 
ATOM     11  C   UNL     1     113.432 128.248 139.789  0.00  0.00    +0.000 A 
ATOM     12  C   UNL     1     112.828 127.182 140.628  0.00  0.00    +0.000 A 
ATOM     13  C   UNL     1     113.298 127.897 140.562  0.00  0.00    +0.000 A 
ENDROOT
BRANCH   6  15
ATOM     14  O   UNL     1     113.430 129.238 134.717  0.00  0.00    +0.000 OA
ATOM     15  C   UNL     1     113.036 128.213 136.936  0.00  0.00    +0.000 A 
ATOM     16  C   UNL     1     112.457 128.691 136.593  0.00  0.00    +0.000 A 
ATOM     17  C   UNL     1     113.746 128.077 136.539  0.00  0.00    +0.000 A 
ATOM     18  C   UNL     1     112.588 129.033 135.854  0.00  0.00    +0.000 A 
ATOM     19  C   UNL     1     113.878 128.418 135.799  0.00  0.00    +0.000 A 
ATOM     20  C   UNL     1     113.299 128.896 135.457  0.00  0.00    +0.000 A 
ENDBRANCH   6  15
BRANCH   5  21
ATOM     21  O   UNL     1     112.131 126.839 137.062  0.00  0.00    +0.000 OA
BRANCH  21  29
ATOM     22  O   UNL     1     113.058 125.752 137.039  0.00  0.00    +0.000 OA
ATOM     23  O   UNL     1     111.341 124.309 135.992  0.00  0.00    +0.000 OA
ATOM     24  O   UNL     1     112.841 123.703 136.319  0.00  0.00    +0.000 OA
ATOM     25  C   UNL     1     111.914 124.790 136.341  0.00  0.00    +0.000 C 
ATOM     26  C   UNL     1     112.663 124.487 136.504  0.00  0.00    +0.000 C 
ATOM     27  C   UNL     1     111.736 125.573 136.527  0.00  0.00    +0.000 C 
ATOM     28  C   UNL     1     113.235 124.968 136.853  0.00  0.00    +0.000 C 
ATOM     29  C   UNL     1     112.309 126.054 136.876  0.00  0.00    +0.000 C 
ATOM     30  C   UNL     1     113.985 124.664 137.017  0.00  0.00    +0.000 C 
BRANCH  27  31
ATOM     31  O   UNL     1     110.987 125.877 136.363  0.00  0.00    +0.000 OA
BRANCH  31  33
ATOM     32  O   UNL     1     111.213 126.086 134.967  0.00  0.00    +0.000 OA
ATOM     33  C   UNL     1     110.706 125.886 135.588  0.00  0.00    +0.000 C 
ATOM     34  C   UNL     1     109.919 125.697 135.431  0.00  0.00    +0.000 C 
ENDBRANCH  31  33
ENDBRANCH  27  31
ENDBRANCH  21  29
ENDBRANCH   5  21
TORSDOF 5
ENDMDL
MODEL 6
REMARK VINA RESULT:      -9.2     11.026     12.768
REMARK  Name = 44258953
REMARK  5 active torsions:
REMARK  status: ('A' for Active; 'I' for Inactive)
REMARK    1  A    between atoms: O_2  and  C_14
REMARK    2  A    between atoms: O_2  and  C_19
REMARK    3  A    between atoms: O_3  and  C_16
REMARK    4  A    between atoms: O_3  and  C_18
REMARK    5  A    between atoms: C_20  and  C_24
REMARK                            x       y       z     vdW  Elec       q    Type
REMARK                         _______ _______ _______ _____ _____    ______ ____
ROOT
ATOM      1  O   UNL     1     111.828 125.570 136.135  0.00  0.00    +0.000 OA
ATOM      2  O   UNL     1     110.848 127.041 137.866  0.00  0.00    +0.000 OA
ATOM      3  O   UNL     1     109.604 127.116 137.139  0.00  0.00    +0.000 OA
ATOM      4  O   UNL     1     109.348 125.675 134.613  0.00  0.00    +0.000 OA
ATOM      5  C   UNL     1     111.949 126.276 137.370  0.00  0.00    +0.000 A 
ATOM      6  C   UNL     1     112.275 125.786 136.794  0.00  0.00    +0.000 A 
ATOM      7  C   UNL     1     111.175 126.551 137.289  0.00  0.00    +0.000 A 
ATOM      8  C   UNL     1     110.728 126.334 136.631  0.00  0.00    +0.000 A 
ATOM      9  C   UNL     1     111.054 125.843 136.053  0.00  0.00    +0.000 A 
ATOM     10  C   UNL     1     109.923 126.626 136.557  0.00  0.00    +0.000 A 
ATOM     11  C   UNL     1     110.599 125.611 135.362  0.00  0.00    +0.000 A 
ATOM     12  C   UNL     1     109.452 126.404 135.873  0.00  0.00    +0.000 A 
ATOM     13  C   UNL     1     109.793 125.893 135.272  0.00  0.00    +0.000 A 
ENDROOT
BRANCH   6  15
ATOM     14  O   UNL     1     115.370 124.687 137.119  0.00  0.00    +0.000 OA
ATOM     15  C   UNL     1     113.049 125.512 136.874  0.00  0.00    +0.000 A 
ATOM     16  C   UNL     1     113.208 124.862 137.358  0.00  0.00    +0.000 A 
ATOM     17  C   UNL     1     113.664 125.886 136.473  0.00  0.00    +0.000 A 
ATOM     18  C   UNL     1     113.981 124.587 137.440  0.00  0.00    +0.000 A 
ATOM     19  C   UNL     1     114.438 125.612 136.554  0.00  0.00    +0.000 A 
ATOM     20  C   UNL     1     114.597 124.962 137.037  0.00  0.00    +0.000 A 
ENDBRANCH   6  15
BRANCH   5  21
ATOM     21  O   UNL     1     112.396 126.493 138.029  0.00  0.00    +0.000 OA
BRANCH  21  29
ATOM     22  O   UNL     1     112.637 127.823 137.566  0.00  0.00    +0.000 OA
ATOM     23  O   UNL     1     112.763 128.615 139.907  0.00  0.00    +0.000 OA
ATOM     24  O   UNL     1     112.962 129.681 138.663  0.00  0.00    +0.000 OA
ATOM     25  C   UNL     1     112.721 128.351 139.126  0.00  0.00    +0.000 C 
ATOM     26  C   UNL     1     112.821 128.884 138.505  0.00  0.00    +0.000 C 
ATOM     27  C   UNL     1     112.580 127.555 138.968  0.00  0.00    +0.000 C 
ATOM     28  C   UNL     1     112.779 128.620 137.725  0.00  0.00    +0.000 C 
ATOM     29  C   UNL     1     112.537 127.291 138.188  0.00  0.00    +0.000 C 
ATOM     30  C   UNL     1     112.878 129.153 137.102  0.00  0.00    +0.000 C 
BRANCH  27  31
ATOM     31  O   UNL     1     112.480 127.021 139.590  0.00  0.00    +0.000 OA
BRANCH  31  33
ATOM     32  O   UNL     1     113.858 126.864 139.935  0.00  0.00    +0.000 OA
ATOM     33  C   UNL     1     113.068 126.941 140.163  0.00  0.00    +0.000 C 
ATOM     34  C   UNL     1     112.868 126.939 140.963  0.00  0.00    +0.000 C 
ENDBRANCH  31  33
ENDBRANCH  27  31
ENDBRANCH  21  29
ENDBRANCH   5  21
TORSDOF 5
ENDMDL
MODEL 7
REMARK VINA RESULT:      -9.0     12.175     13.483
REMARK  Name = 44258953
REMARK  5 active torsions:
REMARK  status: ('A' for Active; 'I' for Inactive)
REMARK    1  A    between atoms: O_2  and  C_14
REMARK    2  A    between atoms: O_2  and  C_19
REMARK    3  A    between atoms: O_3  and  C_16
REMARK    4  A    between atoms: O_3  and  C_18
REMARK    5  A    between atoms: C_20  and  C_24
REMARK                            x       y       z     vdW  Elec       q    Type
REMARK                         _______ _______ _______ _____ _____    ______ ____
ROOT
ATOM      1  O   UNL     1     111.041 125.326 136.413  0.00  0.00    +0.000 OA
ATOM      2  O   UNL     1     113.310 126.311 136.350  0.00  0.00    +0.000 OA
ATOM      3  O   UNL     1     113.900 125.045 136.711  0.00  0.00    +0.000 OA
ATOM      4  O   UNL     1     112.162 122.740 137.145  0.00  0.00    +0.000 OA
ATOM      5  C   UNL     1     111.895 126.451 136.202  0.00  0.00    +0.000 A 
ATOM      6  C   UNL     1     111.139 126.123 136.223  0.00  0.00    +0.000 A 
ATOM      7  C   UNL     1     112.554 125.983 136.371  0.00  0.00    +0.000 A 
ATOM      8  C   UNL     1     112.455 125.186 136.561  0.00  0.00    +0.000 A 
ATOM      9  C   UNL     1     111.698 124.857 136.582  0.00  0.00    +0.000 A 
ATOM     10  C   UNL     1     113.147 124.709 136.735  0.00  0.00    +0.000 A 
ATOM     11  C   UNL     1     111.582 124.029 136.778  0.00  0.00    +0.000 A 
ATOM     12  C   UNL     1     113.052 123.878 136.933  0.00  0.00    +0.000 A 
ATOM     13  C   UNL     1     112.264 123.536 136.955  0.00  0.00    +0.000 A 
ENDROOT
BRANCH   6  15
ATOM     14  O   UNL     1     108.507 127.993 135.546  0.00  0.00    +0.000 OA
ATOM     15  C   UNL     1     110.481 126.590 136.054  0.00  0.00    +0.000 A 
ATOM     16  C   UNL     1     110.291 126.767 135.271  0.00  0.00    +0.000 A 
ATOM     17  C   UNL     1     110.013 126.881 136.667  0.00  0.00    +0.000 A 
ATOM     18  C   UNL     1     109.633 127.235 135.101  0.00  0.00    +0.000 A 
ATOM     19  C   UNL     1     109.354 127.349 136.499  0.00  0.00    +0.000 A 
ATOM     20  C   UNL     1     109.164 127.526 135.716  0.00  0.00    +0.000 A 
ENDBRANCH   6  15
BRANCH   5  21
ATOM     21  O   UNL     1     111.994 127.247 136.012  0.00  0.00    +0.000 OA
BRANCH  21  29
ATOM     22  O   UNL     1     112.256 127.667 137.353  0.00  0.00    +0.000 OA
ATOM     23  O   UNL     1     113.755 129.444 136.503  0.00  0.00    +0.000 OA
ATOM     24  O   UNL     1     113.518 129.271 138.127  0.00  0.00    +0.000 OA
ATOM     25  C   UNL     1     113.255 128.852 136.786  0.00  0.00    +0.000 C 
ATOM     26  C   UNL     1     113.137 128.766 137.598  0.00  0.00    +0.000 C 
ATOM     27  C   UNL     1     112.875 128.346 136.258  0.00  0.00    +0.000 C 
ATOM     28  C   UNL     1     112.637 128.173 137.881  0.00  0.00    +0.000 C 
ATOM     29  C   UNL     1     112.375 127.754 136.541  0.00  0.00    +0.000 C 
ATOM     30  C   UNL     1     112.519 128.087 138.693  0.00  0.00    +0.000 C 
BRANCH  27  31
ATOM     31  O   UNL     1     112.993 128.432 135.446  0.00  0.00    +0.000 OA
BRANCH  31  33
ATOM     32  O   UNL     1     112.112 129.528 135.187  0.00  0.00    +0.000 OA
ATOM     33  C   UNL     1     112.842 129.157 135.082  0.00  0.00    +0.000 C 
ATOM     34  C   UNL     1     113.420 129.512 134.613  0.00  0.00    +0.000 C 
ENDBRANCH  31  33
ENDBRANCH  27  31
ENDBRANCH  21  29
ENDBRANCH   5  21
TORSDOF 5
ENDMDL
MODEL 8
REMARK VINA RESULT:      -8.9     10.715     13.690
REMARK  Name = 44258953
REMARK  5 active torsions:
REMARK  status: ('A' for Active; 'I' for Inactive)
REMARK    1  A    between atoms: O_2  and  C_14
REMARK    2  A    between atoms: O_2  and  C_19
REMARK    3  A    between atoms: O_3  and  C_16
REMARK    4  A    between atoms: O_3  and  C_18
REMARK    5  A    between atoms: C_20  and  C_24
REMARK                            x       y       z     vdW  Elec       q    Type
REMARK                         _______ _______ _______ _____ _____    ______ ____
ROOT
ATOM      1  O   UNL     1     111.753 129.507 135.883  0.00  0.00    +0.000 OA
ATOM      2  O   UNL     1     112.233 130.850 137.905  0.00  0.00    +0.000 OA
ATOM      3  O   UNL     1     113.639 130.887 137.583  0.00  0.00    +0.000 OA
ATOM      4  O   UNL     1     114.577 129.538 135.169  0.00  0.00    +0.000 OA
ATOM      5  C   UNL     1     111.300 130.168 137.065  0.00  0.00    +0.000 A 
ATOM      6  C   UNL     1     111.140 129.720 136.392  0.00  0.00    +0.000 A 
ATOM      7  C   UNL     1     112.073 130.403 137.232  0.00  0.00    +0.000 A 
ATOM      8  C   UNL     1     112.687 130.189 136.723  0.00  0.00    +0.000 A 
ATOM      9  C   UNL     1     112.527 129.741 136.049  0.00  0.00    +0.000 A 
ATOM     10  C   UNL     1     113.487 130.439 136.907  0.00  0.00    +0.000 A 
ATOM     11  C   UNL     1     113.157 129.512 135.512  0.00  0.00    +0.000 A 
ATOM     12  C   UNL     1     114.132 130.220 136.381  0.00  0.00    +0.000 A 
ATOM     13  C   UNL     1     113.965 129.753 135.679  0.00  0.00    +0.000 A 
ENDROOT
BRANCH   6  15
ATOM     14  O   UNL     1     108.047 128.779 135.728  0.00  0.00    +0.000 OA
ATOM     15  C   UNL     1     110.366 129.485 136.225  0.00  0.00    +0.000 A 
ATOM     16  C   UNL     1     110.041 128.835 136.614  0.00  0.00    +0.000 A 
ATOM     17  C   UNL     1     109.919 129.900 135.671  0.00  0.00    +0.000 A 
ATOM     18  C   UNL     1     109.268 128.599 136.449  0.00  0.00    +0.000 A 
ATOM     19  C   UNL     1     109.146 129.666 135.504  0.00  0.00    +0.000 A 
ATOM     20  C   UNL     1     108.820 129.015 135.894  0.00  0.00    +0.000 A 
ENDBRANCH   6  15
BRANCH   5  21
ATOM     21  O   UNL     1     110.686 130.382 137.574  0.00  0.00    +0.000 OA
BRANCH  21  29
ATOM     22  O   UNL     1     110.660 131.748 137.157  0.00  0.00    +0.000 OA
ATOM     23  O   UNL     1     109.908 132.423 139.416  0.00  0.00    +0.000 OA
ATOM     24  O   UNL     1     110.133 133.565 138.246  0.00  0.00    +0.000 OA
ATOM     25  C   UNL     1     110.159 132.198 138.663  0.00  0.00    +0.000 C 
ATOM     26  C   UNL     1     110.271 132.769 138.078  0.00  0.00    +0.000 C 
ATOM     27  C   UNL     1     110.297 131.403 138.495  0.00  0.00    +0.000 C 
ATOM     28  C   UNL     1     110.521 132.544 137.325  0.00  0.00    +0.000 C 
ATOM     29  C   UNL     1     110.547 131.178 137.742  0.00  0.00    +0.000 C 
ATOM     30  C   UNL     1     110.634 133.115 136.740  0.00  0.00    +0.000 C 
BRANCH  27  31
ATOM     31  O   UNL     1     110.185 130.832 139.080  0.00  0.00    +0.000 OA
BRANCH  31  33
ATOM     32  O   UNL     1     108.761 130.729 138.998  0.00  0.00    +0.000 OA
ATOM     33  C   UNL     1     109.451 130.760 139.451  0.00  0.00    +0.000 C 
ATOM     34  C   UNL     1     109.407 130.720 140.273  0.00  0.00    +0.000 C 
ENDBRANCH  31  33
ENDBRANCH  27  31
ENDBRANCH  21  29
ENDBRANCH   5  21
TORSDOF 5
ENDMDL
MODEL 9
REMARK VINA RESULT:      -8.9      9.103     11.860
REMARK  Name = 44258953
REMARK  5 active torsions:
REMARK  status: ('A' for Active; 'I' for Inactive)
REMARK    1  A    between atoms: O_2  and  C_14
REMARK    2  A    between atoms: O_2  and  C_19
REMARK    3  A    between atoms: O_3  and  C_16
REMARK    4  A    between atoms: O_3  and  C_18
REMARK    5  A    between atoms: C_20  and  C_24
REMARK                            x       y       z     vdW  Elec       q    Type
REMARK                         _______ _______ _______ _____ _____    ______ ____
ROOT
ATOM      1  O   UNL     1     113.772 126.205 138.470  0.00  0.00    +0.000 OA
ATOM      2  O   UNL     1     111.660 125.039 137.923  0.00  0.00    +0.000 OA
ATOM      3  O   UNL     1     112.306 124.306 136.862  0.00  0.00    +0.000 OA
ATOM      4  O   UNL     1     115.143 124.762 136.344  0.00  0.00    +0.000 OA
ATOM      5  C   UNL     1     112.384 125.979 138.719  0.00  0.00    +0.000 A 
ATOM      6  C   UNL     1     113.088 126.367 138.902  0.00  0.00    +0.000 A 
ATOM      7  C   UNL     1     112.363 125.428 138.105  0.00  0.00    +0.000 A 
ATOM      8  C   UNL     1     113.048 125.266 137.674  0.00  0.00    +0.000 A 
ATOM      9  C   UNL     1     113.753 125.655 137.856  0.00  0.00    +0.000 A 
ATOM     10  C   UNL     1     113.014 124.690 137.037  0.00  0.00    +0.000 A 
ATOM     11  C   UNL     1     114.472 125.495 137.414  0.00  0.00    +0.000 A 
ATOM     12  C   UNL     1     113.724 124.517 136.584  0.00  0.00    +0.000 A 
ATOM     13  C   UNL     1     114.457 124.922 136.774  0.00  0.00    +0.000 A 
ENDROOT
BRANCH   6  15
ATOM     14  O   UNL     1     113.171 128.569 141.358  0.00  0.00    +0.000 OA
ATOM     15  C   UNL     1     113.109 126.919 139.515  0.00  0.00    +0.000 A 
ATOM     16  C   UNL     1     113.165 126.662 140.297  0.00  0.00    +0.000 A 
ATOM     17  C   UNL     1     113.074 127.725 139.348  0.00  0.00    +0.000 A 
ATOM     18  C   UNL     1     113.185 127.212 140.912  0.00  0.00    +0.000 A 
ATOM     19  C   UNL     1     113.095 128.276 139.961  0.00  0.00    +0.000 A 
ATOM     20  C   UNL     1     113.151 128.020 140.744  0.00  0.00    +0.000 A 
ENDBRANCH   6  15
BRANCH   5  21
ATOM     21  O   UNL     1     111.700 126.141 139.151  0.00  0.00    +0.000 OA
BRANCH  21  29
ATOM     22  O   UNL     1     111.089 126.904 138.108  0.00  0.00    +0.000 OA
ATOM     23  O   UNL     1     108.853 126.214 138.914  0.00  0.00    +0.000 OA
ATOM     24  O   UNL     1     108.987 127.207 137.603  0.00  0.00    +0.000 OA
ATOM     25  C   UNL     1     109.598 126.444 138.645  0.00  0.00    +0.000 C 
ATOM     26  C   UNL     1     109.665 126.940 137.991  0.00  0.00    +0.000 C 
ATOM     27  C   UNL     1     110.276 126.177 139.032  0.00  0.00    +0.000 C 
ATOM     28  C   UNL     1     110.411 127.170 137.722  0.00  0.00    +0.000 C 
ATOM     29  C   UNL     1     111.021 126.408 138.764  0.00  0.00    +0.000 C 
ATOM     30  C   UNL     1     110.478 127.667 137.066  0.00  0.00    +0.000 C 
BRANCH  27  31
ATOM     31  O   UNL     1     110.209 125.681 139.688  0.00  0.00    +0.000 OA
BRANCH  31  33
ATOM     32  O   UNL     1     109.884 126.659 140.678  0.00  0.00    +0.000 OA
ATOM     33  C   UNL     1     109.762 125.916 140.339  0.00  0.00    +0.000 C 
ATOM     34  C   UNL     1     109.191 125.410 140.653  0.00  0.00    +0.000 C 
ENDBRANCH  31  33
ENDBRANCH  27  31
ENDBRANCH  21  29
ENDBRANCH   5  21
TORSDOF 5
ENDMDL
MODEL 10
REMARK VINA RESULT:      -8.9     11.979     13.346
REMARK  Name = 44258953
REMARK  5 active torsions:
REMARK  status: ('A' for Active; 'I' for Inactive)
REMARK    1  A    between atoms: O_2  and  C_14
REMARK    2  A    between atoms: O_2  and  C_19
REMARK    3  A    between atoms: O_3  and  C_16
REMARK    4  A    between atoms: O_3  and  C_18
REMARK    5  A    between atoms: C_20  and  C_24
REMARK                            x       y       z     vdW  Elec       q    Type
REMARK                         _______ _______ _______ _____ _____    ______ ____
ROOT
ATOM      1  O   UNL     1     113.265 126.068 138.856  0.00  0.00    +0.000 OA
ATOM      2  O   UNL     1     112.373 128.317 138.339  0.00  0.00    +0.000 OA
ATOM      3  O   UNL     1     113.066 128.883 139.471  0.00  0.00    +0.000 OA
ATOM      4  O   UNL     1     114.692 127.141 141.157  0.00  0.00    +0.000 OA
ATOM      5  C   UNL     1     112.471 126.924 138.034  0.00  0.00    +0.000 A 
ATOM      6  C   UNL     1     112.768 126.175 138.206  0.00  0.00    +0.000 A 
ATOM      7  C   UNL     1     112.670 127.568 138.511  0.00  0.00    +0.000 A 
ATOM      8  C   UNL     1     113.167 127.460 139.161  0.00  0.00    +0.000 A 
ATOM      9  C   UNL     1     113.465 126.710 139.334  0.00  0.00    +0.000 A 
ATOM     10  C   UNL     1     113.368 128.137 139.650  0.00  0.00    +0.000 A 
ATOM     11  C   UNL     1     113.984 126.586 140.007  0.00  0.00    +0.000 A 
ATOM     12  C   UNL     1     113.885 128.032 140.329  0.00  0.00    +0.000 A 
ATOM     13  C   UNL     1     114.195 127.251 140.508  0.00  0.00    +0.000 A 
ENDROOT
BRANCH   6  15
ATOM     14  O   UNL     1     111.970 123.602 136.300  0.00  0.00    +0.000 OA
ATOM     15  C   UNL     1     112.569 125.532 137.729  0.00  0.00    +0.000 A 
ATOM     16  C   UNL     1     111.836 125.165 137.818  0.00  0.00    +0.000 A 
ATOM     17  C   UNL     1     113.103 125.255 137.165  0.00  0.00    +0.000 A 
ATOM     18  C   UNL     1     111.636 124.522 137.342  0.00  0.00    +0.000 A 
ATOM     19  C   UNL     1     112.904 124.612 136.688  0.00  0.00    +0.000 A 
ATOM     20  C   UNL     1     112.170 124.245 136.776  0.00  0.00    +0.000 A 
ENDBRANCH   6  15
BRANCH   5  21
ATOM     21  O   UNL     1     111.974 127.031 137.385  0.00  0.00    +0.000 OA
BRANCH  21  29
ATOM     22  O   UNL     1     112.972 127.668 136.584  0.00  0.00    +0.000 OA
ATOM     23  O   UNL     1     111.214 128.971 135.428  0.00  0.00    +0.000 OA
ATOM     24  O   UNL     1     112.798 129.173 135.013  0.00  0.00    +0.000 OA
ATOM     25  C   UNL     1     111.800 128.537 135.814  0.00  0.00    +0.000 C 
ATOM     26  C   UNL     1     112.591 128.638 135.606  0.00  0.00    +0.000 C 
ATOM     27  C   UNL     1     111.594 128.002 136.406  0.00  0.00    +0.000 C 
ATOM     28  C   UNL     1     113.177 128.204 135.991  0.00  0.00    +0.000 C 
ATOM     29  C   UNL     1     112.180 127.567 136.791  0.00  0.00    +0.000 C 
ATOM     30  C   UNL     1     113.970 128.305 135.783  0.00  0.00    +0.000 C 
BRANCH  27  31
ATOM     31  O   UNL     1     110.802 127.900 136.614  0.00  0.00    +0.000 OA
BRANCH  31  33
ATOM     32  O   UNL     1     110.424 127.073 135.511  0.00  0.00    +0.000 OA
ATOM     33  C   UNL     1     110.250 127.682 136.041  0.00  0.00    +0.000 C 
ATOM     34  C   UNL     1     109.524 128.072 135.997  0.00  0.00    +0.000 C 
ENDBRANCH  31  33
ENDBRANCH  27  31
ENDBRANCH  21  29
ENDBRANCH   5  21
TORSDOF 5
ENDMDL
