MODEL 1
REMARK VINA RESULT:      -9.8      0.000      0.000
REMARK  Name = 44259352
REMARK  10 active torsions:
REMARK  status: ('A' for Active; 'I' for Inactive)
REMARK    1  A    between atoms: O_3  and  C_24
REMARK    2  A    between atoms: O_3  and  C_28
REMARK    3  A    between atoms: O_6  and  C_29
REMARK    4  A    between atoms: O_6  and  C_31
REMARK    5  A    between atoms: O_11  and  C_30
REMARK    6  A    between atoms: O_11  and  C_34
REMARK    7  A    between atoms: O_17  and  C_45
REMARK    8  A    between atoms: C_19  and  C_28
REMARK    9  A    between atoms: C_27  and  C_30
REMARK   10  A    between atoms: C_32  and  C_36
REMARK                            x       y       z     vdW  Elec       q    Type
REMARK                         _______ _______ _______ _____ _____    ______ ____
ROOT
ATOM      1  O   UNL     1     111.270 127.414 138.244  0.00  0.00    +0.000 OA
ATOM      2  O   UNL     1     109.856 127.680 139.884  0.00  0.00    +0.000 OA
ATOM      3  O   UNL     1     110.952 126.662 140.581  0.00  0.00    +0.000 OA
ATOM      4  O   UNL     1     112.261 126.146 139.719  0.00  0.00    +0.000 OA
ATOM      5  C   UNL     1     110.616 127.672 138.674  0.00  0.00    +0.000 C 
ATOM      6  C   UNL     1     110.510 127.421 139.453  0.00  0.00    +0.000 C 
ATOM      7  C   UNL     1     111.058 126.913 139.801  0.00  0.00    +0.000 C 
ATOM      8  C   UNL     1     111.713 126.655 139.371  0.00  0.00    +0.000 C 
ATOM      9  C   UNL     1     111.819 126.905 138.592  0.00  0.00    +0.000 C 
ENDROOT
BRANCH   9  10
ATOM     10  O   UNL     1     112.474 126.646 138.162  0.00  0.00    +0.000 OA
BRANCH  10  15
ATOM     11  O   UNL     1     113.097 127.253 136.160  0.00  0.00    +0.000 OA
ATOM     12  O   UNL     1     112.988 128.188 138.449  0.00  0.00    +0.000 OA
ATOM     13  O   UNL     1     113.542 129.441 137.995  0.00  0.00    +0.000 OA
ATOM     14  O   UNL     1     114.220 129.753 135.172  0.00  0.00    +0.000 OA
ATOM     15  C   UNL     1     112.768 127.106 137.542  0.00  0.00    +0.000 A 
ATOM     16  C   UNL     1     112.804 126.795 136.779  0.00  0.00    +0.000 A 
ATOM     17  C   UNL     1     113.024 127.876 137.686  0.00  0.00    +0.000 A 
ATOM     18  C   UNL     1     113.318 128.336 137.067  0.00  0.00    +0.000 A 
ATOM     19  C   UNL     1     113.354 128.025 136.304  0.00  0.00    +0.000 A 
ATOM     20  C   UNL     1     113.582 129.137 137.229  0.00  0.00    +0.000 A 
ATOM     21  C   UNL     1     113.658 128.493 135.651  0.00  0.00    +0.000 A 
ATOM     22  C   UNL     1     113.889 129.621 136.588  0.00  0.00    +0.000 A 
ATOM     23  C   UNL     1     113.927 129.296 135.793  0.00  0.00    +0.000 A 
BRANCH  16  25
ATOM     24  O   UNL     1     111.778 123.712 136.204  0.00  0.00    +0.000 OA
ATOM     25  C   UNL     1     112.547 126.023 136.635  0.00  0.00    +0.000 A 
ATOM     26  C   UNL     1     111.821 125.892 136.265  0.00  0.00    +0.000 A 
ATOM     27  C   UNL     1     113.017 125.384 136.862  0.00  0.00    +0.000 A 
ATOM     28  C   UNL     1     111.565 125.122 136.122  0.00  0.00    +0.000 A 
ATOM     29  C   UNL     1     112.760 124.613 136.718  0.00  0.00    +0.000 A 
ATOM     30  C   UNL     1     112.034 124.482 136.348  0.00  0.00    +0.000 A 
BRANCH  28  31
ATOM     31  O   UNL     1     110.840 124.991 135.752  0.00  0.00    +0.000 OA
ATOM     32  C   UNL     1     110.562 125.524 135.187  0.00  0.00    +0.000 C 
ENDBRANCH  28  31
ENDBRANCH  16  25
ENDBRANCH  10  15
ENDBRANCH   9  10
BRANCH   5  33
ATOM     33  C   UNL     1     110.068 128.180 138.326  0.00  0.00    +0.000 C 
BRANCH  33  34
ATOM     34  O   UNL     1     109.903 128.118 137.520  0.00  0.00    +0.000 OA
BRANCH  34  41
ATOM     35  O   UNL     1     109.896 129.522 137.250  0.00  0.00    +0.000 OA
ATOM     36  O   UNL     1     108.688 127.901 136.424  0.00  0.00    +0.000 OA
ATOM     37  O   UNL     1     108.074 129.196 135.606  0.00  0.00    +0.000 OA
ATOM     38  O   UNL     1     108.674 130.708 135.884  0.00  0.00    +0.000 OA
ATOM     39  C   UNL     1     108.988 128.658 136.563  0.00  0.00    +0.000 C 
ATOM     40  C   UNL     1     108.681 129.305 136.154  0.00  0.00    +0.000 C 
ATOM     41  C   UNL     1     109.595 128.766 137.111  0.00  0.00    +0.000 C 
ATOM     42  C   UNL     1     108.981 130.061 136.293  0.00  0.00    +0.000 C 
ATOM     43  C   UNL     1     109.588 130.169 136.841  0.00  0.00    +0.000 C 
BRANCH  43  44
ATOM     44  C   UNL     1     109.888 130.925 136.980  0.00  0.00    +0.000 C 
BRANCH  44  45
ATOM     45  O   UNL     1     110.651 131.017 137.281  0.00  0.00    +0.000 OA
BRANCH  45  47
ATOM     46  O   UNL     1     110.693 132.071 138.244  0.00  0.00    +0.000 OA
ATOM     47  C   UNL     1     110.915 131.764 137.512  0.00  0.00    +0.000 C 
ATOM     48  C   UNL     1     111.402 132.203 137.011  0.00  0.00    +0.000 C 
ENDBRANCH  45  47
ENDBRANCH  44  45
ENDBRANCH  43  44
ENDBRANCH  34  41
ENDBRANCH  33  34
ENDBRANCH   5  33
TORSDOF 10
ENDMDL
MODEL 2
REMARK VINA RESULT:      -9.8      1.474      5.262
REMARK  Name = 44259352
REMARK  10 active torsions:
REMARK  status: ('A' for Active; 'I' for Inactive)
REMARK    1  A    between atoms: O_3  and  C_24
REMARK    2  A    between atoms: O_3  and  C_28
REMARK    3  A    between atoms: O_6  and  C_29
REMARK    4  A    between atoms: O_6  and  C_31
REMARK    5  A    between atoms: O_11  and  C_30
REMARK    6  A    between atoms: O_11  and  C_34
REMARK    7  A    between atoms: O_17  and  C_45
REMARK    8  A    between atoms: C_19  and  C_28
REMARK    9  A    between atoms: C_27  and  C_30
REMARK   10  A    between atoms: C_32  and  C_36
REMARK                            x       y       z     vdW  Elec       q    Type
REMARK                         _______ _______ _______ _____ _____    ______ ____
ROOT
ATOM      1  O   UNL     1     113.089 128.737 136.510  0.00  0.00    +0.000 OA
ATOM      2  O   UNL     1     114.852 128.336 135.289  0.00  0.00    +0.000 OA
ATOM      3  O   UNL     1     114.958 129.974 135.459  0.00  0.00    +0.000 OA
ATOM      4  O   UNL     1     113.817 130.788 136.331  0.00  0.00    +0.000 OA
ATOM      5  C   UNL     1     113.659 128.330 136.075  0.00  0.00    +0.000 C 
ATOM      6  C   UNL     1     114.282 128.743 135.724  0.00  0.00    +0.000 C 
ATOM      7  C   UNL     1     114.335 129.561 135.810  0.00  0.00    +0.000 C 
ATOM      8  C   UNL     1     113.765 129.968 136.245  0.00  0.00    +0.000 C 
ATOM      9  C   UNL     1     113.142 129.557 136.596  0.00  0.00    +0.000 C 
ENDROOT
BRANCH   9  10
ATOM     10  O   UNL     1     112.571 129.963 137.032  0.00  0.00    +0.000 OA
BRANCH  10  15
ATOM     11  O   UNL     1     110.546 129.341 137.556  0.00  0.00    +0.000 OA
ATOM     12  O   UNL     1     111.844 129.990 135.551  0.00  0.00    +0.000 OA
ATOM     13  O   UNL     1     110.688 129.806 134.707  0.00  0.00    +0.000 OA
ATOM     14  O   UNL     1     108.171 128.949 135.916  0.00  0.00    +0.000 OA
ATOM     15  C   UNL     1     111.775 129.760 136.959  0.00  0.00    +0.000 A 
ATOM     16  C   UNL     1     111.342 129.544 137.627  0.00  0.00    +0.000 A 
ATOM     17  C   UNL     1     111.411 129.774 136.219  0.00  0.00    +0.000 A 
ATOM     18  C   UNL     1     110.615 129.571 136.146  0.00  0.00    +0.000 A 
ATOM     19  C   UNL     1     110.182 129.354 136.815  0.00  0.00    +0.000 A 
ATOM     20  C   UNL     1     110.248 129.589 135.370  0.00  0.00    +0.000 A 
ATOM     21  C   UNL     1     109.353 129.141 136.753  0.00  0.00    +0.000 A 
ATOM     22  C   UNL     1     109.418 129.378 135.288  0.00  0.00    +0.000 A 
ATOM     23  C   UNL     1     108.967 129.152 135.985  0.00  0.00    +0.000 A 
BRANCH  16  25
ATOM     24  O   UNL     1     112.796 129.491 140.589  0.00  0.00    +0.000 OA
ATOM     25  C   UNL     1     111.706 129.530 138.368  0.00  0.00    +0.000 A 
ATOM     26  C   UNL     1     111.892 128.810 138.724  0.00  0.00    +0.000 A 
ATOM     27  C   UNL     1     111.883 130.238 138.753  0.00  0.00    +0.000 A 
ATOM     28  C   UNL     1     112.255 128.796 139.464  0.00  0.00    +0.000 A 
ATOM     29  C   UNL     1     112.247 130.225 139.494  0.00  0.00    +0.000 A 
ATOM     30  C   UNL     1     112.433 129.504 139.849  0.00  0.00    +0.000 A 
BRANCH  28  31
ATOM     31  O   UNL     1     112.441 128.076 139.819  0.00  0.00    +0.000 OA
ATOM     32  C   UNL     1     111.929 127.434 139.744  0.00  0.00    +0.000 C 
ENDBRANCH  28  31
ENDBRANCH  16  25
ENDBRANCH  10  15
ENDBRANCH   9  10
BRANCH   5  33
ATOM     33  C   UNL     1     113.607 127.512 135.989  0.00  0.00    +0.000 C 
BRANCH  33  34
ATOM     34  O   UNL     1     113.621 127.026 136.656  0.00  0.00    +0.000 OA
BRANCH  34  41
ATOM     35  O   UNL     1     112.547 126.163 136.278  0.00  0.00    +0.000 OA
ATOM     36  O   UNL     1     114.436 125.737 137.286  0.00  0.00    +0.000 OA
ATOM     37  O   UNL     1     113.768 124.229 137.223  0.00  0.00    +0.000 OA
ATOM     38  O   UNL     1     112.287 124.010 136.530  0.00  0.00    +0.000 OA
ATOM     39  C   UNL     1     113.695 125.627 136.940  0.00  0.00    +0.000 C 
ATOM     40  C   UNL     1     113.361 124.874 136.908  0.00  0.00    +0.000 C 
ATOM     41  C   UNL     1     113.288 126.272 136.625  0.00  0.00    +0.000 C 
ATOM     42  C   UNL     1     112.620 124.764 136.562  0.00  0.00    +0.000 C 
ATOM     43  C   UNL     1     112.213 125.408 136.247  0.00  0.00    +0.000 C 
BRANCH  43  44
ATOM     44  C   UNL     1     111.473 125.300 135.900  0.00  0.00    +0.000 C 
BRANCH  44  45
ATOM     45  O   UNL     1     111.002 125.952 135.719  0.00  0.00    +0.000 OA
BRANCH  45  47
ATOM     46  O   UNL     1     109.602 125.773 135.946  0.00  0.00    +0.000 OA
ATOM     47  C   UNL     1     110.238 125.841 135.426  0.00  0.00    +0.000 C 
ATOM     48  C   UNL     1     110.112 125.798 134.612  0.00  0.00    +0.000 C 
ENDBRANCH  45  47
ENDBRANCH  44  45
ENDBRANCH  43  44
ENDBRANCH  34  41
ENDBRANCH  33  34
ENDBRANCH   5  33
TORSDOF 10
ENDMDL
MODEL 3
REMARK VINA RESULT:      -9.7      1.421      4.840
REMARK  Name = 44259352
REMARK  10 active torsions:
REMARK  status: ('A' for Active; 'I' for Inactive)
REMARK    1  A    between atoms: O_3  and  C_24
REMARK    2  A    between atoms: O_3  and  C_28
REMARK    3  A    between atoms: O_6  and  C_29
REMARK    4  A    between atoms: O_6  and  C_31
REMARK    5  A    between atoms: O_11  and  C_30
REMARK    6  A    between atoms: O_11  and  C_34
REMARK    7  A    between atoms: O_17  and  C_45
REMARK    8  A    between atoms: C_19  and  C_28
REMARK    9  A    between atoms: C_27  and  C_30
REMARK   10  A    between atoms: C_32  and  C_36
REMARK                            x       y       z     vdW  Elec       q    Type
REMARK                         _______ _______ _______ _____ _____    ______ ____
ROOT
ATOM      1  O   UNL     1     112.544 128.541 138.404  0.00  0.00    +0.000 OA
ATOM      2  O   UNL     1     112.900 127.509 140.294  0.00  0.00    +0.000 OA
ATOM      3  O   UNL     1     112.828 129.077 140.804  0.00  0.00    +0.000 OA
ATOM      4  O   UNL     1     112.567 130.288 139.714  0.00  0.00    +0.000 OA
ATOM      5  C   UNL     1     112.675 127.936 138.949  0.00  0.00    +0.000 C 
ATOM      6  C   UNL     1     112.769 128.115 139.749  0.00  0.00    +0.000 C 
ATOM      7  C   UNL     1     112.733 128.898 140.004  0.00  0.00    +0.000 C 
ATOM      8  C   UNL     1     112.603 129.503 139.459  0.00  0.00    +0.000 C 
ATOM      9  C   UNL     1     112.508 129.325 138.659  0.00  0.00    +0.000 C 
ENDROOT
BRANCH   9  10
ATOM     10  O   UNL     1     112.378 129.931 138.114  0.00  0.00    +0.000 OA
BRANCH  10  15
ATOM     11  O   UNL     1     111.548 129.807 136.099  0.00  0.00    +0.000 OA
ATOM     12  O   UNL     1     110.813 129.524 138.445  0.00  0.00    +0.000 OA
ATOM     13  O   UNL     1     109.472 129.206 138.017  0.00  0.00    +0.000 OA
ATOM     14  O   UNL     1     108.865 129.172 135.160  0.00  0.00    +0.000 OA
ATOM     15  C   UNL     1     111.840 129.821 137.498  0.00  0.00    +0.000 A 
ATOM     16  C   UNL     1     112.085 129.916 136.715  0.00  0.00    +0.000 A 
ATOM     17  C   UNL     1     111.058 129.618 137.663  0.00  0.00    +0.000 A 
ATOM     18  C   UNL     1     110.521 129.509 137.047  0.00  0.00    +0.000 A 
ATOM     19  C   UNL     1     110.766 129.603 136.264  0.00  0.00    +0.000 A 
ATOM     20  C   UNL     1     109.709 129.298 137.232  0.00  0.00    +0.000 A 
ATOM     21  C   UNL     1     110.216 129.492 135.614  0.00  0.00    +0.000 A 
ATOM     22  C   UNL     1     109.144 129.183 136.594  0.00  0.00    +0.000 A 
ATOM     23  C   UNL     1     109.400 129.281 135.779  0.00  0.00    +0.000 A 
BRANCH  16  25
ATOM     24  O   UNL     1     115.214 130.729 136.053  0.00  0.00    +0.000 OA
ATOM     25  C   UNL     1     112.868 130.119 136.550  0.00  0.00    +0.000 A 
ATOM     26  C   UNL     1     113.380 129.559 136.226  0.00  0.00    +0.000 A 
ATOM     27  C   UNL     1     113.137 130.882 136.707  0.00  0.00    +0.000 A 
ATOM     28  C   UNL     1     114.162 129.762 136.061  0.00  0.00    +0.000 A 
ATOM     29  C   UNL     1     113.920 131.086 136.542  0.00  0.00    +0.000 A 
ATOM     30  C   UNL     1     114.432 130.526 136.218  0.00  0.00    +0.000 A 
BRANCH  28  31
ATOM     31  O   UNL     1     114.674 129.202 135.738  0.00  0.00    +0.000 OA
ATOM     32  C   UNL     1     114.377 128.594 135.266  0.00  0.00    +0.000 C 
ENDBRANCH  28  31
ENDBRANCH  16  25
ENDBRANCH  10  15
ENDBRANCH   9  10
BRANCH   5  33
ATOM     33  C   UNL     1     112.711 127.152 138.694  0.00  0.00    +0.000 C 
BRANCH  33  34
ATOM     34  O   UNL     1     113.301 126.917 138.168  0.00  0.00    +0.000 OA
BRANCH  34  41
ATOM     35  O   UNL     1     112.526 126.112 137.277  0.00  0.00    +0.000 OA
ATOM     36  O   UNL     1     114.480 125.763 138.185  0.00  0.00    +0.000 OA
ATOM     37  O   UNL     1     114.294 124.381 137.302  0.00  0.00    +0.000 OA
ATOM     38  O   UNL     1     112.930 124.153 136.403  0.00  0.00    +0.000 OA
ATOM     39  C   UNL     1     113.798 125.648 137.735  0.00  0.00    +0.000 C 
ATOM     40  C   UNL     1     113.705 124.958 137.294  0.00  0.00    +0.000 C 
ATOM     41  C   UNL     1     113.208 126.225 137.726  0.00  0.00    +0.000 C 
ATOM     42  C   UNL     1     113.023 124.843 136.844  0.00  0.00    +0.000 C 
ATOM     43  C   UNL     1     112.433 125.421 136.835  0.00  0.00    +0.000 C 
BRANCH  43  44
ATOM     44  C   UNL     1     111.751 125.307 136.386  0.00  0.00    +0.000 C 
BRANCH  44  45
ATOM     45  O   UNL     1     111.408 125.944 135.988  0.00  0.00    +0.000 OA
BRANCH  45  47
ATOM     46  O   UNL     1     109.998 125.784 136.149  0.00  0.00    +0.000 OA
ATOM     47  C   UNL     1     110.655 125.867 135.659  0.00  0.00    +0.000 C 
ATOM     48  C   UNL     1     110.561 125.873 134.840  0.00  0.00    +0.000 C 
ENDBRANCH  45  47
ENDBRANCH  44  45
ENDBRANCH  43  44
ENDBRANCH  34  41
ENDBRANCH  33  34
ENDBRANCH   5  33
TORSDOF 10
ENDMDL
MODEL 4
REMARK VINA RESULT:      -9.6      1.747      4.281
REMARK  Name = 44259352
REMARK  10 active torsions:
REMARK  status: ('A' for Active; 'I' for Inactive)
REMARK    1  A    between atoms: O_3  and  C_24
REMARK    2  A    between atoms: O_3  and  C_28
REMARK    3  A    between atoms: O_6  and  C_29
REMARK    4  A    between atoms: O_6  and  C_31
REMARK    5  A    between atoms: O_11  and  C_30
REMARK    6  A    between atoms: O_11  and  C_34
REMARK    7  A    between atoms: O_17  and  C_45
REMARK    8  A    between atoms: C_19  and  C_28
REMARK    9  A    between atoms: C_27  and  C_30
REMARK   10  A    between atoms: C_32  and  C_36
REMARK                            x       y       z     vdW  Elec       q    Type
REMARK                         _______ _______ _______ _____ _____    ______ ____
ROOT
ATOM      1  O   UNL     1     110.784 127.039 137.047  0.00  0.00    +0.000 OA
ATOM      2  O   UNL     1     108.625 126.744 137.177  0.00  0.00    +0.000 OA
ATOM      3  O   UNL     1     108.830 126.827 135.541  0.00  0.00    +0.000 OA
ATOM      4  O   UNL     1     110.338 127.051 134.909  0.00  0.00    +0.000 OA
ATOM      5  C   UNL     1     110.030 126.927 137.363  0.00  0.00    +0.000 C 
ATOM      6  C   UNL     1     109.379 126.856 136.861  0.00  0.00    +0.000 C 
ATOM      7  C   UNL     1     109.481 126.898 136.044  0.00  0.00    +0.000 C 
ATOM      8  C   UNL     1     110.235 127.010 135.728  0.00  0.00    +0.000 C 
ATOM      9  C   UNL     1     110.887 127.080 136.228  0.00  0.00    +0.000 C 
ENDROOT
BRANCH   9  10
ATOM     10  O   UNL     1     111.640 127.192 135.912  0.00  0.00    +0.000 OA
BRANCH  10  15
ATOM     11  O   UNL     1     113.583 126.805 136.829  0.00  0.00    +0.000 OA
ATOM     12  O   UNL     1     111.625 125.544 135.992  0.00  0.00    +0.000 OA
ATOM     13  O   UNL     1     112.245 124.290 136.344  0.00  0.00    +0.000 OA
ATOM     14  O   UNL     1     114.898 124.312 137.567  0.00  0.00    +0.000 OA
ATOM     15  C   UNL     1     112.285 126.788 136.231  0.00  0.00    +0.000 A 
ATOM     16  C   UNL     1     112.938 127.208 136.510  0.00  0.00    +0.000 A 
ATOM     17  C   UNL     1     112.278 125.965 136.271  0.00  0.00    +0.000 A 
ATOM     18  C   UNL     1     112.922 125.560 136.590  0.00  0.00    +0.000 A 
ATOM     19  C   UNL     1     113.575 125.980 136.869  0.00  0.00    +0.000 A 
ATOM     20  C   UNL     1     112.902 124.702 136.625  0.00  0.00    +0.000 A 
ATOM     21  C   UNL     1     114.253 125.572 137.203  0.00  0.00    +0.000 A 
ATOM     22  C   UNL     1     113.571 124.275 136.957  0.00  0.00    +0.000 A 
ATOM     23  C   UNL     1     114.251 124.714 137.247  0.00  0.00    +0.000 A 
BRANCH  16  25
ATOM     24  O   UNL     1     112.970 130.504 136.351  0.00  0.00    +0.000 OA
ATOM     25  C   UNL     1     112.946 128.033 136.470  0.00  0.00    +0.000 A 
ATOM     26  C   UNL     1     112.834 128.480 137.155  0.00  0.00    +0.000 A 
ATOM     27  C   UNL     1     113.067 128.409 135.746  0.00  0.00    +0.000 A 
ATOM     28  C   UNL     1     112.842 129.303 137.115  0.00  0.00    +0.000 A 
ATOM     29  C   UNL     1     113.075 129.234 135.707  0.00  0.00    +0.000 A 
ATOM     30  C   UNL     1     112.962 129.681 136.391  0.00  0.00    +0.000 A 
BRANCH  28  31
ATOM     31  O   UNL     1     112.729 129.751 137.799  0.00  0.00    +0.000 OA
ATOM     32  C   UNL     1     113.022 129.481 138.521  0.00  0.00    +0.000 C 
ENDBRANCH  28  31
ENDBRANCH  16  25
ENDBRANCH  10  15
ENDBRANCH   9  10
BRANCH   5  33
ATOM     33  C   UNL     1     109.928 126.885 138.180  0.00  0.00    +0.000 C 
BRANCH  33  34
ATOM     34  O   UNL     1     110.585 126.892 138.678  0.00  0.00    +0.000 OA
BRANCH  34  41
ATOM     35  O   UNL     1     109.986 127.582 139.777  0.00  0.00    +0.000 OA
ATOM     36  O   UNL     1     111.384 125.906 139.733  0.00  0.00    +0.000 OA
ATOM     37  O   UNL     1     111.184 126.103 141.359  0.00  0.00    +0.000 OA
ATOM     38  O   UNL     1     110.185 127.285 141.930  0.00  0.00    +0.000 OA
ATOM     39  C   UNL     1     110.885 126.497 140.019  0.00  0.00    +0.000 C 
ATOM     40  C   UNL     1     110.785 126.596 140.832  0.00  0.00    +0.000 C 
ATOM     41  C   UNL     1     110.485 126.990 139.492  0.00  0.00    +0.000 C 
ATOM     42  C   UNL     1     110.285 127.187 141.118  0.00  0.00    +0.000 C 
ATOM     43  C   UNL     1     109.886 127.680 140.591  0.00  0.00    +0.000 C 
BRANCH  43  44
ATOM     44  C   UNL     1     109.386 128.271 140.876  0.00  0.00    +0.000 C 
BRANCH  44  45
ATOM     45  O   UNL     1     109.221 128.932 140.411  0.00  0.00    +0.000 OA
BRANCH  45  47
ATOM     46  O   UNL     1     107.865 129.298 140.672  0.00  0.00    +0.000 OA
ATOM     47  C   UNL     1     108.667 129.488 140.666  0.00  0.00    +0.000 C 
ATOM     48  C   UNL     1     108.916 130.233 140.916  0.00  0.00    +0.000 C 
ENDBRANCH  45  47
ENDBRANCH  44  45
ENDBRANCH  43  44
ENDBRANCH  34  41
ENDBRANCH  33  34
ENDBRANCH   5  33
TORSDOF 10
ENDMDL
MODEL 5
REMARK VINA RESULT:      -9.6      1.735      3.456
REMARK  Name = 44259352
REMARK  10 active torsions:
REMARK  status: ('A' for Active; 'I' for Inactive)
REMARK    1  A    between atoms: O_3  and  C_24
REMARK    2  A    between atoms: O_3  and  C_28
REMARK    3  A    between atoms: O_6  and  C_29
REMARK    4  A    between atoms: O_6  and  C_31
REMARK    5  A    between atoms: O_11  and  C_30
REMARK    6  A    between atoms: O_11  and  C_34
REMARK    7  A    between atoms: O_17  and  C_45
REMARK    8  A    between atoms: C_19  and  C_28
REMARK    9  A    between atoms: C_27  and  C_30
REMARK   10  A    between atoms: C_32  and  C_36
REMARK                            x       y       z     vdW  Elec       q    Type
REMARK                         _______ _______ _______ _____ _____    ______ ____
ROOT
ATOM      1  O   UNL     1     111.022 126.749 138.263  0.00  0.00    +0.000 OA
ATOM      2  O   UNL     1     108.873 126.889 137.910  0.00  0.00    +0.000 OA
ATOM      3  O   UNL     1     108.906 125.942 139.261  0.00  0.00    +0.000 OA
ATOM      4  O   UNL     1     110.350 125.533 139.947  0.00  0.00    +0.000 OA
ATOM      5  C   UNL     1     110.300 126.954 137.920  0.00  0.00    +0.000 C 
ATOM      6  C   UNL     1     109.595 126.684 138.253  0.00  0.00    +0.000 C 
ATOM      7  C   UNL     1     109.611 126.211 138.928  0.00  0.00    +0.000 C 
ATOM      8  C   UNL     1     110.333 126.007 139.271  0.00  0.00    +0.000 C 
ATOM      9  C   UNL     1     111.039 126.276 138.939  0.00  0.00    +0.000 C 
ENDROOT
BRANCH   9  10
ATOM     10  O   UNL     1     111.761 126.071 139.281  0.00  0.00    +0.000 OA
BRANCH  10  15
ATOM     11  O   UNL     1     113.771 126.250 138.449  0.00  0.00    +0.000 OA
ATOM     12  O   UNL     1     111.705 124.936 138.085  0.00  0.00    +0.000 OA
ATOM     13  O   UNL     1     112.320 124.217 136.996  0.00  0.00    +0.000 OA
ATOM     14  O   UNL     1     115.078 124.839 136.261  0.00  0.00    +0.000 OA
ATOM     15  C   UNL     1     112.421 125.941 138.804  0.00  0.00    +0.000 A 
ATOM     16  C   UNL     1     113.110 126.379 138.926  0.00  0.00    +0.000 A 
ATOM     17  C   UNL     1     112.394 125.374 138.207  0.00  0.00    +0.000 A 
ATOM     18  C   UNL     1     113.054 125.244 137.729  0.00  0.00    +0.000 A 
ATOM     19  C   UNL     1     113.743 125.682 137.851  0.00  0.00    +0.000 A 
ATOM     20  C   UNL     1     113.012 124.650 137.110  0.00  0.00    +0.000 A 
ATOM     21  C   UNL     1     114.437 125.556 137.361  0.00  0.00    +0.000 A 
ATOM     22  C   UNL     1     113.698 124.510 136.610  0.00  0.00    +0.000 A 
ATOM     23  C   UNL     1     114.415 124.967 136.736  0.00  0.00    +0.000 A 
BRANCH  16  25
ATOM     24  O   UNL     1     113.222 128.649 141.318  0.00  0.00    +0.000 OA
ATOM     25  C   UNL     1     113.138 126.947 139.524  0.00  0.00    +0.000 A 
ATOM     26  C   UNL     1     113.093 127.749 139.334  0.00  0.00    +0.000 A 
ATOM     27  C   UNL     1     113.211 126.712 140.311  0.00  0.00    +0.000 A 
ATOM     28  C   UNL     1     113.121 128.316 139.932  0.00  0.00    +0.000 A 
ATOM     29  C   UNL     1     113.239 127.281 140.910  0.00  0.00    +0.000 A 
ATOM     30  C   UNL     1     113.194 128.082 140.720  0.00  0.00    +0.000 A 
BRANCH  28  31
ATOM     31  O   UNL     1     113.076 129.117 139.743  0.00  0.00    +0.000 OA
ATOM     32  C   UNL     1     113.437 129.401 139.057  0.00  0.00    +0.000 C 
ENDBRANCH  28  31
ENDBRANCH  16  25
ENDBRANCH  10  15
ENDBRANCH   9  10
BRANCH   5  33
ATOM     33  C   UNL     1     110.284 127.427 137.245  0.00  0.00    +0.000 C 
BRANCH  33  34
ATOM     34  O   UNL     1     110.890 127.968 137.106  0.00  0.00    +0.000 OA
BRANCH  34  41
ATOM     35  O   UNL     1     110.153 128.971 136.404  0.00  0.00    +0.000 OA
ATOM     36  O   UNL     1     112.121 128.111 136.017  0.00  0.00    +0.000 OA
ATOM     37  O   UNL     1     111.999 129.185 134.770  0.00  0.00    +0.000 OA
ATOM     38  O   UNL     1     110.646 130.117 134.613  0.00  0.00    +0.000 OA
ATOM     39  C   UNL     1     111.445 128.577 135.937  0.00  0.00    +0.000 C 
ATOM     40  C   UNL     1     111.384 129.114 135.315  0.00  0.00    +0.000 C 
ATOM     41  C   UNL     1     110.829 128.506 136.482  0.00  0.00    +0.000 C 
ATOM     42  C   UNL     1     110.707 129.580 135.236  0.00  0.00    +0.000 C 
ATOM     43  C   UNL     1     110.092 129.509 135.781  0.00  0.00    +0.000 C 
BRANCH  43  44
ATOM     44  C   UNL     1     109.415 129.974 135.703  0.00  0.00    +0.000 C 
BRANCH  44  45
ATOM     45  O   UNL     1     108.990 130.200 136.373  0.00  0.00    +0.000 OA
BRANCH  45  47
ATOM     46  O   UNL     1     107.640 130.330 135.923  0.00  0.00    +0.000 OA
ATOM     47  C   UNL     1     108.304 130.651 136.292  0.00  0.00    +0.000 C 
ATOM     48  C   UNL     1     108.282 131.423 136.581  0.00  0.00    +0.000 C 
ENDBRANCH  45  47
ENDBRANCH  44  45
ENDBRANCH  43  44
ENDBRANCH  34  41
ENDBRANCH  33  34
ENDBRANCH   5  33
TORSDOF 10
ENDMDL
MODEL 6
REMARK VINA RESULT:      -9.6      1.246      4.980
REMARK  Name = 44259352
REMARK  10 active torsions:
REMARK  status: ('A' for Active; 'I' for Inactive)
REMARK    1  A    between atoms: O_3  and  C_24
REMARK    2  A    between atoms: O_3  and  C_28
REMARK    3  A    between atoms: O_6  and  C_29
REMARK    4  A    between atoms: O_6  and  C_31
REMARK    5  A    between atoms: O_11  and  C_30
REMARK    6  A    between atoms: O_11  and  C_34
REMARK    7  A    between atoms: O_17  and  C_45
REMARK    8  A    between atoms: C_19  and  C_28
REMARK    9  A    between atoms: C_27  and  C_30
REMARK   10  A    between atoms: C_32  and  C_36
REMARK                            x       y       z     vdW  Elec       q    Type
REMARK                         _______ _______ _______ _____ _____    ______ ____
ROOT
ATOM      1  O   UNL     1     110.142 129.028 136.761  0.00  0.00    +0.000 OA
ATOM      2  O   UNL     1     108.525 127.569 136.613  0.00  0.00    +0.000 OA
ATOM      3  O   UNL     1     107.984 128.739 135.583  0.00  0.00    +0.000 OA
ATOM      4  O   UNL     1     108.882 130.102 135.338  0.00  0.00    +0.000 OA
ATOM      5  C   UNL     1     109.693 128.346 136.884  0.00  0.00    +0.000 C 
ATOM      6  C   UNL     1     108.974 128.251 136.491  0.00  0.00    +0.000 C 
ATOM      7  C   UNL     1     108.704 128.835 135.976  0.00  0.00    +0.000 C 
ATOM      8  C   UNL     1     109.152 129.516 135.853  0.00  0.00    +0.000 C 
ATOM      9  C   UNL     1     109.872 129.613 136.246  0.00  0.00    +0.000 C 
ENDROOT
BRANCH   9  10
ATOM     10  O   UNL     1     110.320 130.295 136.123  0.00  0.00    +0.000 OA
BRANCH  10  15
ATOM     11  O   UNL     1     112.390 130.691 136.693  0.00  0.00    +0.000 OA
ATOM     12  O   UNL     1     111.124 129.263 135.117  0.00  0.00    +0.000 OA
ATOM     13  O   UNL     1     112.347 128.686 134.612  0.00  0.00    +0.000 OA
ATOM     14  O   UNL     1     114.899 129.571 135.724  0.00  0.00    +0.000 OA
ATOM     15  C   UNL     1     111.144 130.255 136.145  0.00  0.00    +0.000 A 
ATOM     16  C   UNL     1     111.566 130.731 136.670  0.00  0.00    +0.000 A 
ATOM     17  C   UNL     1     111.546 129.739 135.642  0.00  0.00    +0.000 A 
ATOM     18  C   UNL     1     112.370 129.699 135.663  0.00  0.00    +0.000 A 
ATOM     19  C   UNL     1     112.792 130.175 136.189  0.00  0.00    +0.000 A 
ATOM     20  C   UNL     1     112.777 129.159 135.134  0.00  0.00    +0.000 A 
ATOM     21  C   UNL     1     113.650 130.143 136.221  0.00  0.00    +0.000 A 
ATOM     22  C   UNL     1     113.635 129.113 135.152  0.00  0.00    +0.000 A 
ATOM     23  C   UNL     1     114.075 129.609 135.700  0.00  0.00    +0.000 A 
BRANCH  16  25
ATOM     24  O   UNL     1     109.959 132.794 138.683  0.00  0.00    +0.000 OA
ATOM     25  C   UNL     1     111.164 131.247 137.174  0.00  0.00    +0.000 A 
ATOM     26  C   UNL     1     111.081 131.062 137.974  0.00  0.00    +0.000 A 
ATOM     27  C   UNL     1     110.846 131.947 136.877  0.00  0.00    +0.000 A 
ATOM     28  C   UNL     1     110.680 131.577 138.476  0.00  0.00    +0.000 A 
ATOM     29  C   UNL     1     110.444 132.463 137.381  0.00  0.00    +0.000 A 
ATOM     30  C   UNL     1     110.361 132.278 138.181  0.00  0.00    +0.000 A 
BRANCH  28  31
ATOM     31  O   UNL     1     110.597 131.392 139.276  0.00  0.00    +0.000 OA
ATOM     32  C   UNL     1     111.160 130.920 139.651  0.00  0.00    +0.000 C 
ENDBRANCH  28  31
ENDBRANCH  16  25
ENDBRANCH  10  15
ENDBRANCH   9  10
BRANCH   5  33
ATOM     33  C   UNL     1     109.963 127.762 137.399  0.00  0.00    +0.000 C 
BRANCH  33  34
ATOM     34  O   UNL     1     110.192 127.962 138.166  0.00  0.00    +0.000 OA
BRANCH  34  41
ATOM     35  O   UNL     1     111.368 127.151 138.218  0.00  0.00    +0.000 OA
ATOM     36  O   UNL     1     109.875 127.604 139.745  0.00  0.00    +0.000 OA
ATOM     37  O   UNL     1     110.892 126.614 140.587  0.00  0.00    +0.000 OA
ATOM     38  O   UNL     1     112.225 125.982 139.850  0.00  0.00    +0.000 OA
ATOM     39  C   UNL     1     110.542 127.288 139.377  0.00  0.00    +0.000 C 
ATOM     40  C   UNL     1     111.050 126.793 139.797  0.00  0.00    +0.000 C 
ATOM     41  C   UNL     1     110.701 127.467 138.587  0.00  0.00    +0.000 C 
ATOM     42  C   UNL     1     111.717 126.476 139.429  0.00  0.00    +0.000 C 
ATOM     43  C   UNL     1     111.876 126.655 138.639  0.00  0.00    +0.000 C 
BRANCH  43  44
ATOM     44  C   UNL     1     112.543 126.340 138.270  0.00  0.00    +0.000 C 
BRANCH  44  45
ATOM     45  O   UNL     1     112.654 126.443 137.459  0.00  0.00    +0.000 OA
BRANCH  45  47
ATOM     46  O   UNL     1     114.066 126.369 137.254  0.00  0.00    +0.000 OA
ATOM     47  C   UNL     1     113.305 126.100 137.086  0.00  0.00    +0.000 C 
ATOM     48  C   UNL     1     113.194 125.488 136.544  0.00  0.00    +0.000 C 
ENDBRANCH  45  47
ENDBRANCH  44  45
ENDBRANCH  43  44
ENDBRANCH  34  41
ENDBRANCH  33  34
ENDBRANCH   5  33
TORSDOF 10
ENDMDL
MODEL 7
REMARK VINA RESULT:      -9.5      1.759      4.075
REMARK  Name = 44259352
REMARK  10 active torsions:
REMARK  status: ('A' for Active; 'I' for Inactive)
REMARK    1  A    between atoms: O_3  and  C_24
REMARK    2  A    between atoms: O_3  and  C_28
REMARK    3  A    between atoms: O_6  and  C_29
REMARK    4  A    between atoms: O_6  and  C_31
REMARK    5  A    between atoms: O_11  and  C_30
REMARK    6  A    between atoms: O_11  and  C_34
REMARK    7  A    between atoms: O_17  and  C_45
REMARK    8  A    between atoms: C_19  and  C_28
REMARK    9  A    between atoms: C_27  and  C_30
REMARK   10  A    between atoms: C_32  and  C_36
REMARK                            x       y       z     vdW  Elec       q    Type
REMARK                         _______ _______ _______ _____ _____    ______ ____
ROOT
ATOM      1  O   UNL     1     113.117 129.008 136.863  0.00  0.00    +0.000 OA
ATOM      2  O   UNL     1     114.205 130.899 136.826  0.00  0.00    +0.000 OA
ATOM      3  O   UNL     1     114.854 130.142 135.511  0.00  0.00    +0.000 OA
ATOM      4  O   UNL     1     114.345 128.628 135.097  0.00  0.00    +0.000 OA
ATOM      5  C   UNL     1     113.372 129.765 137.070  0.00  0.00    +0.000 C 
ATOM      6  C   UNL     1     113.951 130.143 136.619  0.00  0.00    +0.000 C 
ATOM      7  C   UNL     1     114.275 129.764 135.962  0.00  0.00    +0.000 C 
ATOM      8  C   UNL     1     114.020 129.007 135.755  0.00  0.00    +0.000 C 
ATOM      9  C   UNL     1     113.441 128.629 136.205  0.00  0.00    +0.000 C 
ENDROOT
BRANCH   9  10
ATOM     10  O   UNL     1     113.187 127.872 135.998  0.00  0.00    +0.000 OA
BRANCH  10  15
ATOM     11  O   UNL     1     111.431 126.789 136.711  0.00  0.00    +0.000 OA
ATOM     12  O   UNL     1     111.976 128.737 135.285  0.00  0.00    +0.000 OA
ATOM     13  O   UNL     1     110.576 128.977 135.028  0.00  0.00    +0.000 OA
ATOM     14  O   UNL     1     108.588 127.212 136.238  0.00  0.00    +0.000 OA
ATOM     15  C   UNL     1     112.399 127.655 136.116  0.00  0.00    +0.000 A 
ATOM     16  C   UNL     1     112.218 127.006 136.592  0.00  0.00    +0.000 A 
ATOM     17  C   UNL     1     111.794 128.087 135.760  0.00  0.00    +0.000 A 
ATOM     18  C   UNL     1     111.007 127.871 135.879  0.00  0.00    +0.000 A 
ATOM     19  C   UNL     1     110.825 127.221 136.354  0.00  0.00    +0.000 A 
ATOM     20  C   UNL     1     110.386 128.329 135.502  0.00  0.00    +0.000 A 
ATOM     21  C   UNL     1     110.010 126.985 136.485  0.00  0.00    +0.000 A 
ATOM     22  C   UNL     1     109.563 128.108 135.622  0.00  0.00    +0.000 A 
ATOM     23  C   UNL     1     109.374 127.431 136.117  0.00  0.00    +0.000 A 
BRANCH  16  25
ATOM     24  O   UNL     1     114.639 125.276 138.018  0.00  0.00    +0.000 OA
ATOM     25  C   UNL     1     112.824 126.573 136.949  0.00  0.00    +0.000 A 
ATOM     26  C   UNL     1     112.968 126.655 137.757  0.00  0.00    +0.000 A 
ATOM     27  C   UNL     1     113.284 126.059 136.497  0.00  0.00    +0.000 A 
ATOM     28  C   UNL     1     113.573 126.222 138.113  0.00  0.00    +0.000 A 
ATOM     29  C   UNL     1     113.890 125.627 136.854  0.00  0.00    +0.000 A 
ATOM     30  C   UNL     1     114.034 125.708 137.662  0.00  0.00    +0.000 A 
BRANCH  28  31
ATOM     31  O   UNL     1     113.717 126.304 138.921  0.00  0.00    +0.000 OA
ATOM     32  C   UNL     1     113.091 126.435 139.441  0.00  0.00    +0.000 C 
ENDBRANCH  28  31
ENDBRANCH  16  25
ENDBRANCH  10  15
ENDBRANCH   9  10
BRANCH   5  33
ATOM     33  C   UNL     1     113.048 130.144 137.726  0.00  0.00    +0.000 C 
BRANCH  33  34
ATOM     34  O   UNL     1     113.069 129.778 138.465  0.00  0.00    +0.000 OA
BRANCH  34  41
ATOM     35  O   UNL     1     111.747 130.124 138.884  0.00  0.00    +0.000 OA
ATOM     36  O   UNL     1     113.621 130.031 139.999  0.00  0.00    +0.000 OA
ATOM     37  O   UNL     1     112.576 130.504 141.185  0.00  0.00    +0.000 OA
ATOM     38  O   UNL     1     110.978 130.724 140.837  0.00  0.00    +0.000 OA
ATOM     39  C   UNL     1     112.822 130.141 139.826  0.00  0.00    +0.000 C 
ATOM     40  C   UNL     1     112.300 130.377 140.418  0.00  0.00    +0.000 C 
ATOM     41  C   UNL     1     112.546 130.014 139.059  0.00  0.00    +0.000 C 
ATOM     42  C   UNL     1     111.500 130.487 140.244  0.00  0.00    +0.000 C 
ATOM     43  C   UNL     1     111.224 130.361 139.477  0.00  0.00    +0.000 C 
BRANCH  43  44
ATOM     44  C   UNL     1     110.426 130.470 139.302  0.00  0.00    +0.000 C 
BRANCH  44  45
ATOM     45  O   UNL     1     110.118 130.194 138.589  0.00  0.00    +0.000 OA
BRANCH  45  47
ATOM     46  O   UNL     1     108.763 129.761 138.728  0.00  0.00    +0.000 OA
ATOM     47  C   UNL     1     109.315 130.291 138.422  0.00  0.00    +0.000 C 
ATOM     48  C   UNL     1     109.066 130.918 137.948  0.00  0.00    +0.000 C 
ENDBRANCH  45  47
ENDBRANCH  44  45
ENDBRANCH  43  44
ENDBRANCH  34  41
ENDBRANCH  33  34
ENDBRANCH   5  33
TORSDOF 10
ENDMDL
MODEL 8
REMARK VINA RESULT:      -9.5      1.659      4.657
REMARK  Name = 44259352
REMARK  10 active torsions:
REMARK  status: ('A' for Active; 'I' for Inactive)
REMARK    1  A    between atoms: O_3  and  C_24
REMARK    2  A    between atoms: O_3  and  C_28
REMARK    3  A    between atoms: O_6  and  C_29
REMARK    4  A    between atoms: O_6  and  C_31
REMARK    5  A    between atoms: O_11  and  C_30
REMARK    6  A    between atoms: O_11  and  C_34
REMARK    7  A    between atoms: O_17  and  C_45
REMARK    8  A    between atoms: C_19  and  C_28
REMARK    9  A    between atoms: C_27  and  C_30
REMARK   10  A    between atoms: C_32  and  C_36
REMARK                            x       y       z     vdW  Elec       q    Type
REMARK                         _______ _______ _______ _____ _____    ______ ____
ROOT
ATOM      1  O   UNL     1     112.834 129.097 136.740  0.00  0.00    +0.000 OA
ATOM      2  O   UNL     1     114.453 130.522 137.071  0.00  0.00    +0.000 OA
ATOM      3  O   UNL     1     114.641 130.207 135.463  0.00  0.00    +0.000 OA
ATOM      4  O   UNL     1     113.624 129.151 134.705  0.00  0.00    +0.000 OA
ATOM      5  C   UNL     1     113.343 129.624 137.118  0.00  0.00    +0.000 C 
ATOM      6  C   UNL     1     113.945 129.994 136.692  0.00  0.00    +0.000 C 
ATOM      7  C   UNL     1     114.039 129.837 135.889  0.00  0.00    +0.000 C 
ATOM      8  C   UNL     1     113.530 129.309 135.510  0.00  0.00    +0.000 C 
ATOM      9  C   UNL     1     112.928 128.939 135.935  0.00  0.00    +0.000 C 
ENDROOT
BRANCH   9  10
ATOM     10  O   UNL     1     112.420 128.411 135.556  0.00  0.00    +0.000 OA
BRANCH  10  15
ATOM     11  O   UNL     1     111.064 126.949 136.444  0.00  0.00    +0.000 OA
ATOM     12  O   UNL     1     113.495 127.324 136.176  0.00  0.00    +0.000 OA
ATOM     13  O   UNL     1     113.791 126.105 136.889  0.00  0.00    +0.000 OA
ATOM     14  O   UNL     1     111.584 124.476 137.892  0.00  0.00    +0.000 OA
ATOM     15  C   UNL     1     112.147 127.742 135.955  0.00  0.00    +0.000 A 
ATOM     16  C   UNL     1     111.337 127.617 136.045  0.00  0.00    +0.000 A 
ATOM     17  C   UNL     1     112.685 127.199 136.265  0.00  0.00    +0.000 A 
ATOM     18  C   UNL     1     112.413 126.530 136.665  0.00  0.00    +0.000 A 
ATOM     19  C   UNL     1     111.602 126.405 136.754  0.00  0.00    +0.000 A 
ATOM     20  C   UNL     1     112.983 125.972 136.983  0.00  0.00    +0.000 A 
ATOM     21  C   UNL     1     111.305 125.714 137.168  0.00  0.00    +0.000 A 
ATOM     22  C   UNL     1     112.705 125.274 137.400  0.00  0.00    +0.000 A 
ATOM     23  C   UNL     1     111.860 125.143 137.493  0.00  0.00    +0.000 A 
BRANCH  16  25
ATOM     24  O   UNL     1     109.185 129.790 134.804  0.00  0.00    +0.000 OA
ATOM     25  C   UNL     1     110.798 128.161 135.734  0.00  0.00    +0.000 A 
ATOM     26  C   UNL     1     110.411 128.690 136.235  0.00  0.00    +0.000 A 
ATOM     27  C   UNL     1     110.648 128.175 134.923  0.00  0.00    +0.000 A 
ATOM     28  C   UNL     1     109.874 129.232 135.925  0.00  0.00    +0.000 A 
ATOM     29  C   UNL     1     110.110 128.719 134.613  0.00  0.00    +0.000 A 
ATOM     30  C   UNL     1     109.723 129.247 135.114  0.00  0.00    +0.000 A 
BRANCH  28  31
ATOM     31  O   UNL     1     109.486 129.761 136.426  0.00  0.00    +0.000 OA
ATOM     32  C   UNL     1     109.218 129.509 137.164  0.00  0.00    +0.000 C 
ENDBRANCH  28  31
ENDBRANCH  16  25
ENDBRANCH  10  15
ENDBRANCH   9  10
BRANCH   5  33
ATOM     33  C   UNL     1     113.249 129.782 137.922  0.00  0.00    +0.000 C 
BRANCH  33  34
ATOM     34  O   UNL     1     112.508 129.994 138.217  0.00  0.00    +0.000 OA
BRANCH  34  41
ATOM     35  O   UNL     1     112.555 129.191 139.398  0.00  0.00    +0.000 OA
ATOM     36  O   UNL     1     111.730 131.182 139.057  0.00  0.00    +0.000 OA
ATOM     37  O   UNL     1     111.387 130.973 140.657  0.00  0.00    +0.000 OA
ATOM     38  O   UNL     1     111.824 129.575 141.418  0.00  0.00    +0.000 OA
ATOM     39  C   UNL     1     111.948 130.484 139.438  0.00  0.00    +0.000 C 
ATOM     40  C   UNL     1     111.777 130.379 140.237  0.00  0.00    +0.000 C 
ATOM     41  C   UNL     1     112.337 129.890 139.018  0.00  0.00    +0.000 C 
ATOM     42  C   UNL     1     111.995 129.680 140.619  0.00  0.00    +0.000 C 
ATOM     43  C   UNL     1     112.384 129.086 140.199  0.00  0.00    +0.000 C 
BRANCH  43  44
ATOM     44  C   UNL     1     112.603 128.387 140.579  0.00  0.00    +0.000 C 
BRANCH  44  45
ATOM     45  O   UNL     1     112.726 127.700 140.140  0.00  0.00    +0.000 OA
BRANCH  45  47
ATOM     46  O   UNL     1     112.372 126.458 140.751  0.00  0.00    +0.000 OA
ATOM     47  C   UNL     1     112.946 127.002 140.521  0.00  0.00    +0.000 C 
ATOM     48  C   UNL     1     113.743 126.849 140.670  0.00  0.00    +0.000 C 
ENDBRANCH  45  47
ENDBRANCH  44  45
ENDBRANCH  43  44
ENDBRANCH  34  41
ENDBRANCH  33  34
ENDBRANCH   5  33
TORSDOF 10
ENDMDL
MODEL 9
REMARK VINA RESULT:      -9.5      1.678      3.668
REMARK  Name = 44259352
REMARK  10 active torsions:
REMARK  status: ('A' for Active; 'I' for Inactive)
REMARK    1  A    between atoms: O_3  and  C_24
REMARK    2  A    between atoms: O_3  and  C_28
REMARK    3  A    between atoms: O_6  and  C_29
REMARK    4  A    between atoms: O_6  and  C_31
REMARK    5  A    between atoms: O_11  and  C_30
REMARK    6  A    between atoms: O_11  and  C_34
REMARK    7  A    between atoms: O_17  and  C_45
REMARK    8  A    between atoms: C_19  and  C_28
REMARK    9  A    between atoms: C_27  and  C_30
REMARK   10  A    between atoms: C_32  and  C_36
REMARK                            x       y       z     vdW  Elec       q    Type
REMARK                         _______ _______ _______ _____ _____    ______ ____
ROOT
ATOM      1  O   UNL     1     110.892 127.143 139.471  0.00  0.00    +0.000 OA
ATOM      2  O   UNL     1     108.830 127.193 140.183  0.00  0.00    +0.000 OA
ATOM      3  O   UNL     1     109.570 126.403 141.428  0.00  0.00    +0.000 OA
ATOM      4  O   UNL     1     111.191 126.106 141.368  0.00  0.00    +0.000 OA
ATOM      5  C   UNL     1     110.081 127.292 139.500  0.00  0.00    +0.000 C 
ATOM      6  C   UNL     1     109.641 127.045 140.153  0.00  0.00    +0.000 C 
ATOM      7  C   UNL     1     110.010 126.650 140.775  0.00  0.00    +0.000 C 
ATOM      8  C   UNL     1     110.821 126.501 140.745  0.00  0.00    +0.000 C 
ATOM      9  C   UNL     1     111.262 126.748 140.094  0.00  0.00    +0.000 C 
ENDROOT
BRANCH   9  10
ATOM     10  O   UNL     1     112.073 126.599 140.064  0.00  0.00    +0.000 OA
BRANCH  10  15
ATOM     11  O   UNL     1     113.435 126.727 138.363  0.00  0.00    +0.000 OA
ATOM     12  O   UNL     1     111.526 125.352 139.132  0.00  0.00    +0.000 OA
ATOM     13  O   UNL     1     111.593 124.540 137.941  0.00  0.00    +0.000 OA
ATOM     14  O   UNL     1     113.632 125.130 135.934  0.00  0.00    +0.000 OA
ATOM     15  C   UNL     1     112.436 126.433 139.341  0.00  0.00    +0.000 A 
ATOM     16  C   UNL     1     113.072 126.891 139.085  0.00  0.00    +0.000 A 
ATOM     17  C   UNL     1     112.162 125.810 138.876  0.00  0.00    +0.000 A 
ATOM     18  C   UNL     1     112.525 125.645 138.153  0.00  0.00    +0.000 A 
ATOM     19  C   UNL     1     113.161 126.103 137.897  0.00  0.00    +0.000 A 
ATOM     20  C   UNL     1     112.230 124.993 137.677  0.00  0.00    +0.000 A 
ATOM     21  C   UNL     1     113.547 125.941 137.147  0.00  0.00    +0.000 A 
ATOM     22  C   UNL     1     112.604 124.816 136.923  0.00  0.00    +0.000 A 
ATOM     23  C   UNL     1     113.267 125.293 136.656  0.00  0.00    +0.000 A 
BRANCH  16  25
ATOM     24  O   UNL     1     114.168 129.384 140.949  0.00  0.00    +0.000 OA
ATOM     25  C   UNL     1     113.346 127.515 139.551  0.00  0.00    +0.000 A 
ATOM     26  C   UNL     1     113.157 128.293 139.352  0.00  0.00    +0.000 A 
ATOM     27  C   UNL     1     113.809 127.360 140.216  0.00  0.00    +0.000 A 
ATOM     28  C   UNL     1     113.431 128.916 139.818  0.00  0.00    +0.000 A 
ATOM     29  C   UNL     1     114.083 127.984 140.682  0.00  0.00    +0.000 A 
ATOM     30  C   UNL     1     113.894 128.762 140.483  0.00  0.00    +0.000 A 
BRANCH  28  31
ATOM     31  O   UNL     1     113.242 129.694 139.619  0.00  0.00    +0.000 OA
ATOM     32  C   UNL     1     113.186 129.915 138.826  0.00  0.00    +0.000 C 
ENDBRANCH  28  31
ENDBRANCH  16  25
ENDBRANCH  10  15
ENDBRANCH   9  10
BRANCH   5  33
ATOM     33  C   UNL     1     109.712 127.687 138.878  0.00  0.00    +0.000 C 
BRANCH  33  34
ATOM     34  O   UNL     1     110.033 128.388 138.586  0.00  0.00    +0.000 OA
BRANCH  34  41
ATOM     35  O   UNL     1     109.854 128.151 137.188  0.00  0.00    +0.000 OA
ATOM     36  O   UNL     1     109.533 129.947 138.386  0.00  0.00    +0.000 OA
ATOM     37  O   UNL     1     109.104 130.491 136.888  0.00  0.00    +0.000 OA
ATOM     38  O   UNL     1     109.175 129.475 135.590  0.00  0.00    +0.000 OA
ATOM     39  C   UNL     1     109.568 129.440 137.737  0.00  0.00    +0.000 C 
ATOM     40  C   UNL     1     109.354 129.711 136.988  0.00  0.00    +0.000 C 
ATOM     41  C   UNL     1     109.819 128.660 137.836  0.00  0.00    +0.000 C 
ATOM     42  C   UNL     1     109.389 129.203 136.339  0.00  0.00    +0.000 C 
ATOM     43  C   UNL     1     109.640 128.424 136.439  0.00  0.00    +0.000 C 
BRANCH  43  44
ATOM     44  C   UNL     1     109.676 127.915 135.790  0.00  0.00    +0.000 C 
BRANCH  44  45
ATOM     45  O   UNL     1     110.123 127.223 135.832  0.00  0.00    +0.000 OA
BRANCH  45  47
ATOM     46  O   UNL     1     110.794 126.903 134.612  0.00  0.00    +0.000 OA
ATOM     47  C   UNL     1     110.204 126.744 135.165  0.00  0.00    +0.000 C 
ATOM     48  C   UNL     1     109.694 126.105 135.052  0.00  0.00    +0.000 C 
ENDBRANCH  45  47
ENDBRANCH  44  45
ENDBRANCH  43  44
ENDBRANCH  34  41
ENDBRANCH  33  34
ENDBRANCH   5  33
TORSDOF 10
ENDMDL
MODEL 10
REMARK VINA RESULT:      -9.5      1.549      3.573
REMARK  Name = 44259352
REMARK  10 active torsions:
REMARK  status: ('A' for Active; 'I' for Inactive)
REMARK    1  A    between atoms: O_3  and  C_24
REMARK    2  A    between atoms: O_3  and  C_28
REMARK    3  A    between atoms: O_6  and  C_29
REMARK    4  A    between atoms: O_6  and  C_31
REMARK    5  A    between atoms: O_11  and  C_30
REMARK    6  A    between atoms: O_11  and  C_34
REMARK    7  A    between atoms: O_17  and  C_45
REMARK    8  A    between atoms: C_19  and  C_28
REMARK    9  A    between atoms: C_27  and  C_30
REMARK   10  A    between atoms: C_32  and  C_36
REMARK                            x       y       z     vdW  Elec       q    Type
REMARK                         _______ _______ _______ _____ _____    ______ ____
ROOT
ATOM      1  O   UNL     1     110.598 128.753 137.429  0.00  0.00    +0.000 OA
ATOM      2  O   UNL     1     109.263 129.560 138.956  0.00  0.00    +0.000 OA
ATOM      3  O   UNL     1     108.466 130.002 137.581  0.00  0.00    +0.000 OA
ATOM      4  O   UNL     1     109.090 129.611 136.104  0.00  0.00    +0.000 OA
ATOM      5  C   UNL     1     110.286 128.948 138.168  0.00  0.00    +0.000 C 
ATOM      6  C   UNL     1     109.575 129.365 138.218  0.00  0.00    +0.000 C 
ATOM      7  C   UNL     1     109.177 129.586 137.531  0.00  0.00    +0.000 C 
ATOM      8  C   UNL     1     109.488 129.390 136.792  0.00  0.00    +0.000 C 
ATOM      9  C   UNL     1     110.199 128.974 136.741  0.00  0.00    +0.000 C 
ENDROOT
BRANCH   9  10
ATOM     10  O   UNL     1     110.511 128.778 136.003  0.00  0.00    +0.000 OA
BRANCH  10  15
ATOM     11  O   UNL     1     112.518 128.084 135.500  0.00  0.00    +0.000 OA
ATOM     12  O   UNL     1     111.399 130.131 136.325  0.00  0.00    +0.000 OA
ATOM     13  O   UNL     1     112.659 130.832 136.382  0.00  0.00    +0.000 OA
ATOM     14  O   UNL     1     115.098 129.434 135.589  0.00  0.00    +0.000 OA
ATOM     15  C   UNL     1     111.328 128.773 135.889  0.00  0.00    +0.000 A 
ATOM     16  C   UNL     1     111.701 128.090 135.614  0.00  0.00    +0.000 A 
ATOM     17  C   UNL     1     111.772 129.449 136.050  0.00  0.00    +0.000 A 
ATOM     18  C   UNL     1     112.589 129.443 135.936  0.00  0.00    +0.000 A 
ATOM     19  C   UNL     1     112.962 128.761 135.661  0.00  0.00    +0.000 A 
ATOM     20  C   UNL     1     113.040 130.154 136.108  0.00  0.00    +0.000 A 
ATOM     21  C   UNL     1     113.812 128.742 135.538  0.00  0.00    +0.000 A 
ATOM     22  C   UNL     1     113.892 130.154 135.991  0.00  0.00    +0.000 A 
ATOM     23  C   UNL     1     114.281 129.442 135.704  0.00  0.00    +0.000 A 
BRANCH  16  25
ATOM     24  O   UNL     1     109.925 125.385 134.968  0.00  0.00    +0.000 OA
ATOM     25  C   UNL     1     111.257 127.413 135.452  0.00  0.00    +0.000 A 
ATOM     26  C   UNL     1     111.282 126.770 135.969  0.00  0.00    +0.000 A 
ATOM     27  C   UNL     1     110.788 127.381 134.775  0.00  0.00    +0.000 A 
ATOM     28  C   UNL     1     110.838 126.095 135.807  0.00  0.00    +0.000 A 
ATOM     29  C   UNL     1     110.343 126.704 134.613  0.00  0.00    +0.000 A 
ATOM     30  C   UNL     1     110.369 126.061 135.130  0.00  0.00    +0.000 A 
BRANCH  28  31
ATOM     31  O   UNL     1     110.864 125.452 136.324  0.00  0.00    +0.000 OA
ATOM     32  C   UNL     1     111.588 125.179 136.608  0.00  0.00    +0.000 C 
ENDBRANCH  28  31
ENDBRANCH  16  25
ENDBRANCH  10  15
ENDBRANCH   9  10
BRANCH   5  33
ATOM     33  C   UNL     1     110.684 128.728 138.855  0.00  0.00    +0.000 C 
BRANCH  33  34
ATOM     34  O   UNL     1     111.081 128.005 138.887  0.00  0.00    +0.000 OA
BRANCH  34  41
ATOM     35  O   UNL     1     112.232 128.469 139.595  0.00  0.00    +0.000 OA
ATOM     36  O   UNL     1     111.135 126.587 139.730  0.00  0.00    +0.000 OA
ATOM     37  O   UNL     1     112.314 126.343 140.858  0.00  0.00    +0.000 OA
ATOM     38  O   UNL     1     113.438 127.516 141.144  0.00  0.00    +0.000 OA
ATOM     39  C   UNL     1     111.698 127.173 139.873  0.00  0.00    +0.000 C 
ATOM     40  C   UNL     1     112.287 127.052 140.437  0.00  0.00    +0.000 C 
ATOM     41  C   UNL     1     111.671 127.882 139.452  0.00  0.00    +0.000 C 
ATOM     42  C   UNL     1     112.849 127.638 140.580  0.00  0.00    +0.000 C 
ATOM     43  C   UNL     1     112.822 128.347 140.159  0.00  0.00    +0.000 C 
BRANCH  43  44
ATOM     44  C   UNL     1     113.384 128.934 140.302  0.00  0.00    +0.000 C 
BRANCH  44  45
ATOM     45  O   UNL     1     113.406 129.609 139.827  0.00  0.00    +0.000 OA
BRANCH  45  47
ATOM     46  O   UNL     1     113.754 130.689 140.696  0.00  0.00    +0.000 OA
ATOM     47  C   UNL     1     113.906 130.235 140.025  0.00  0.00    +0.000 C 
ATOM     48  C   UNL     1     114.558 130.406 139.550  0.00  0.00    +0.000 C 
ENDBRANCH  45  47
ENDBRANCH  44  45
ENDBRANCH  43  44
ENDBRANCH  34  41
ENDBRANCH  33  34
ENDBRANCH   5  33
TORSDOF 10
ENDMDL
