MODEL 1
REMARK VINA RESULT:      -9.5      0.000      0.000
REMARK  Name = 14078178
REMARK  4 active torsions:
REMARK  status: ('A' for Active; 'I' for Inactive)
REMARK    1  A    between atoms: O_2  and  C_14
REMARK    2  A    between atoms: O_2  and  C_17
REMARK    3  A    between atoms: C_11  and  C_15
REMARK    4  A    between atoms: C_18  and  C_22
REMARK                            x       y       z     vdW  Elec       q    Type
REMARK                         _______ _______ _______ _____ _____    ______ ____
ROOT
ATOM      1  O   UNL     1     105.637 124.462 147.742  0.00  0.00    +0.000 OA
ATOM      2  O   UNL     1     107.065 125.649 146.105  0.00  0.00    +0.000 OA
ATOM      3  O   UNL     1     108.191 125.595 147.005  0.00  0.00    +0.000 OA
ATOM      4  O   UNL     1     107.865 124.318 149.611  0.00  0.00    +0.000 OA
ATOM      5  C   UNL     1     105.801 125.088 146.468  0.00  0.00    +0.000 A 
ATOM      6  C   UNL     1     105.325 124.693 147.013  0.00  0.00    +0.000 A 
ATOM      7  C   UNL     1     106.589 125.253 146.650  0.00  0.00    +0.000 A 
ATOM      8  C   UNL     1     106.900 125.022 147.378  0.00  0.00    +0.000 A 
ATOM      9  C   UNL     1     106.424 124.627 147.924  0.00  0.00    +0.000 A 
ATOM     10  C   UNL     1     107.722 125.199 147.557  0.00  0.00    +0.000 A 
ATOM     11  C   UNL     1     106.736 124.381 148.686  0.00  0.00    +0.000 A 
ATOM     12  C   UNL     1     108.052 124.962 148.314  0.00  0.00    +0.000 A 
ATOM     13  C   UNL     1     107.555 124.550 148.882  0.00  0.00    +0.000 A 
ENDROOT
BRANCH   6  15
ATOM     14  O   UNL     1     102.175 124.035 146.283  0.00  0.00    +0.000 OA
ATOM     15  C   UNL     1     104.537 124.528 146.831  0.00  0.00    +0.000 A 
ATOM     16  C   UNL     1     104.356 123.931 146.291  0.00  0.00    +0.000 A 
ATOM     17  C   UNL     1     103.933 124.961 147.187  0.00  0.00    +0.000 A 
ATOM     18  C   UNL     1     103.568 123.767 146.109  0.00  0.00    +0.000 A 
ATOM     19  C   UNL     1     103.145 124.797 147.004  0.00  0.00    +0.000 A 
ATOM     20  C   UNL     1     102.963 124.199 146.465  0.00  0.00    +0.000 A 
ENDBRANCH   6  15
BRANCH   5  21
ATOM     21  O   UNL     1     105.489 125.319 145.740  0.00  0.00    +0.000 OA
BRANCH  21  28
ATOM     22  O   UNL     1     105.446 126.755 146.050  0.00  0.00    +0.000 OA
ATOM     23  O   UNL     1     105.499 127.762 144.168  0.00  0.00    +0.000 OA
ATOM     24  O   UNL     1     105.541 125.970 144.068  0.00  0.00    +0.000 OA
ATOM     25  C   UNL     1     105.449 127.450 145.604  0.00  0.00    +0.000 C 
ATOM     26  C   UNL     1     105.485 127.240 144.806  0.00  0.00    +0.000 C 
ATOM     27  C   UNL     1     105.504 126.416 144.760  0.00  0.00    +0.000 C 
ATOM     28  C   UNL     1     105.481 126.117 145.529  0.00  0.00    +0.000 C 
BRANCH  25  30
ATOM     29  O   UNL     1     106.102 128.684 145.908  0.00  0.00    +0.000 OA
ATOM     30  C   UNL     1     105.421 128.219 145.902  0.00  0.00    +0.000 C 
ATOM     31  C   UNL     1     104.711 128.521 146.194  0.00  0.00    +0.000 C 
ENDBRANCH  25  30
ENDBRANCH  21  28
ENDBRANCH   5  21
TORSDOF 4
ENDMDL
MODEL 2
REMARK VINA RESULT:      -9.3      1.542      3.523
REMARK  Name = 14078178
REMARK  4 active torsions:
REMARK  status: ('A' for Active; 'I' for Inactive)
REMARK    1  A    between atoms: O_2  and  C_14
REMARK    2  A    between atoms: O_2  and  C_17
REMARK    3  A    between atoms: C_11  and  C_15
REMARK    4  A    between atoms: C_18  and  C_22
REMARK                            x       y       z     vdW  Elec       q    Type
REMARK                         _______ _______ _______ _____ _____    ______ ____
ROOT
ATOM      1  O   UNL     1     103.297 124.592 147.411  0.00  0.00    +0.000 OA
ATOM      2  O   UNL     1     104.977 123.824 145.763  0.00  0.00    +0.000 OA
ATOM      3  O   UNL     1     104.032 122.898 145.189  0.00  0.00    +0.000 OA
ATOM      4  O   UNL     1     101.337 122.745 146.303  0.00  0.00    +0.000 OA
ATOM      5  C   UNL     1     104.615 124.663 146.863  0.00  0.00    +0.000 A 
ATOM      6  C   UNL     1     104.055 124.919 147.412  0.00  0.00    +0.000 A 
ATOM      7  C   UNL     1     104.417 124.080 146.313  0.00  0.00    +0.000 A 
ATOM      8  C   UNL     1     103.660 123.754 146.312  0.00  0.00    +0.000 A 
ATOM      9  C   UNL     1     103.099 124.010 146.862  0.00  0.00    +0.000 A 
ATOM     10  C   UNL     1     103.466 123.148 145.735  0.00  0.00    +0.000 A 
ATOM     11  C   UNL     1     102.307 123.678 146.872  0.00  0.00    +0.000 A 
ATOM     12  C   UNL     1     102.678 122.804 145.729  0.00  0.00    +0.000 A 
ATOM     13  C   UNL     1     102.095 123.071 146.302  0.00  0.00    +0.000 A 
ENDROOT
BRANCH   6  15
ATOM     14  O   UNL     1     104.846 127.248 149.611  0.00  0.00    +0.000 OA
ATOM     15  C   UNL     1     104.252 125.501 147.962  0.00  0.00    +0.000 A 
ATOM     16  C   UNL     1     104.759 125.322 148.588  0.00  0.00    +0.000 A 
ATOM     17  C   UNL     1     103.944 126.262 147.885  0.00  0.00    +0.000 A 
ATOM     18  C   UNL     1     104.957 125.904 149.138  0.00  0.00    +0.000 A 
ATOM     19  C   UNL     1     104.142 126.844 148.435  0.00  0.00    +0.000 A 
ATOM     20  C   UNL     1     104.648 126.666 149.061  0.00  0.00    +0.000 A 
ENDBRANCH   6  15
BRANCH   5  21
ATOM     21  O   UNL     1     105.372 124.990 146.864  0.00  0.00    +0.000 OA
BRANCH  21  28
ATOM     22  O   UNL     1     105.189 125.861 145.694  0.00  0.00    +0.000 OA
ATOM     23  O   UNL     1     107.119 126.054 144.801  0.00  0.00    +0.000 OA
ATOM     24  O   UNL     1     107.066 125.024 146.271  0.00  0.00    +0.000 OA
ATOM     25  C   UNL     1     105.685 126.163 145.107  0.00  0.00    +0.000 C 
ATOM     26  C   UNL     1     106.449 125.887 145.253  0.00  0.00    +0.000 C 
ATOM     27  C   UNL     1     106.425 125.413 145.928  0.00  0.00    +0.000 C 
ATOM     28  C   UNL     1     105.646 125.398 146.200  0.00  0.00    +0.000 C 
BRANCH  25  30
ATOM     29  O   UNL     1     105.277 126.333 143.748  0.00  0.00    +0.000 OA
ATOM     30  C   UNL     1     105.457 126.656 144.486  0.00  0.00    +0.000 C 
ATOM     31  C   UNL     1     105.410 127.471 144.602  0.00  0.00    +0.000 C 
ENDBRANCH  25  30
ENDBRANCH  21  28
ENDBRANCH   5  21
TORSDOF 4
ENDMDL
MODEL 3
REMARK VINA RESULT:      -9.2     10.104     11.745
REMARK  Name = 14078178
REMARK  4 active torsions:
REMARK  status: ('A' for Active; 'I' for Inactive)
REMARK    1  A    between atoms: O_2  and  C_14
REMARK    2  A    between atoms: O_2  and  C_17
REMARK    3  A    between atoms: C_11  and  C_15
REMARK    4  A    between atoms: C_18  and  C_22
REMARK                            x       y       z     vdW  Elec       q    Type
REMARK                         _______ _______ _______ _____ _____    ______ ____
ROOT
ATOM      1  O   UNL     1     113.491 126.255 138.614  0.00  0.00    +0.000 OA
ATOM      2  O   UNL     1     111.182 125.409 138.324  0.00  0.00    +0.000 OA
ATOM      3  O   UNL     1     110.781 125.991 139.582  0.00  0.00    +0.000 OA
ATOM      4  O   UNL     1     112.752 127.456 141.163  0.00  0.00    +0.000 OA
ATOM      5  C   UNL     1     112.523 125.539 137.845  0.00  0.00    +0.000 A 
ATOM      6  C   UNL     1     113.292 125.821 137.941  0.00  0.00    +0.000 A 
ATOM      7  C   UNL     1     111.952 125.691 138.421  0.00  0.00    +0.000 A 
ATOM      8  C   UNL     1     112.151 126.125 139.094  0.00  0.00    +0.000 A 
ATOM      9  C   UNL     1     112.920 126.407 139.191  0.00  0.00    +0.000 A 
ATOM     10  C   UNL     1     111.548 126.277 139.687  0.00  0.00    +0.000 A 
ATOM     11  C   UNL     1     113.140 126.860 139.886  0.00  0.00    +0.000 A 
ATOM     12  C   UNL     1     111.749 126.728 140.390  0.00  0.00    +0.000 A 
ATOM     13  C   UNL     1     112.551 127.021 140.490  0.00  0.00    +0.000 A 
ENDROOT
BRANCH   6  15
ATOM     14  O   UNL     1     115.574 125.213 135.636  0.00  0.00    +0.000 OA
ATOM     15  C   UNL     1     113.863 125.669 137.365  0.00  0.00    +0.000 A 
ATOM     16  C   UNL     1     114.083 126.263 136.836  0.00  0.00    +0.000 A 
ATOM     17  C   UNL     1     114.212 124.924 137.318  0.00  0.00    +0.000 A 
ATOM     18  C   UNL     1     114.653 126.111 136.260  0.00  0.00    +0.000 A 
ATOM     19  C   UNL     1     114.783 124.772 136.742  0.00  0.00    +0.000 A 
ATOM     20  C   UNL     1     115.003 125.365 136.213  0.00  0.00    +0.000 A 
ENDBRANCH   6  15
BRANCH   5  21
ATOM     21  O   UNL     1     112.324 125.105 137.172  0.00  0.00    +0.000 OA
BRANCH  21  28
ATOM     22  O   UNL     1     111.548 126.183 136.540  0.00  0.00    +0.000 OA
ATOM     23  O   UNL     1     110.223 125.222 135.169  0.00  0.00    +0.000 OA
ATOM     24  O   UNL     1     111.298 124.113 136.084  0.00  0.00    +0.000 OA
ATOM     25  C   UNL     1     110.951 126.216 135.971  0.00  0.00    +0.000 C 
ATOM     26  C   UNL     1     110.785 125.444 135.731  0.00  0.00    +0.000 C 
ATOM     27  C   UNL     1     111.279 124.934 136.151  0.00  0.00    +0.000 C 
ATOM     28  C   UNL     1     111.750 125.391 136.651  0.00  0.00    +0.000 C 
BRANCH  25  30
ATOM     29  O   UNL     1     109.873 127.153 136.024  0.00  0.00    +0.000 OA
ATOM     30  C   UNL     1     110.585 126.901 135.692  0.00  0.00    +0.000 C 
ATOM     31  C   UNL     1     110.931 127.333 135.080  0.00  0.00    +0.000 C 
ENDBRANCH  25  30
ENDBRANCH  21  28
ENDBRANCH   5  21
TORSDOF 4
ENDMDL
MODEL 4
REMARK VINA RESULT:      -9.2     11.957     13.079
REMARK  Name = 14078178
REMARK  4 active torsions:
REMARK  status: ('A' for Active; 'I' for Inactive)
REMARK    1  A    between atoms: O_2  and  C_14
REMARK    2  A    between atoms: O_2  and  C_17
REMARK    3  A    between atoms: C_11  and  C_15
REMARK    4  A    between atoms: C_18  and  C_22
REMARK                            x       y       z     vdW  Elec       q    Type
REMARK                         _______ _______ _______ _____ _____    ______ ____
ROOT
ATOM      1  O   UNL     1     111.927 125.621 136.057  0.00  0.00    +0.000 OA
ATOM      2  O   UNL     1     111.510 128.022 136.492  0.00  0.00    +0.000 OA
ATOM      3  O   UNL     1     110.255 127.962 135.784  0.00  0.00    +0.000 OA
ATOM      4  O   UNL     1     109.406 125.425 134.612  0.00  0.00    +0.000 OA
ATOM      5  C   UNL     1     112.338 126.865 136.628  0.00  0.00    +0.000 A 
ATOM      6  C   UNL     1     112.477 126.064 136.483  0.00  0.00    +0.000 A 
ATOM      7  C   UNL     1     111.649 127.221 136.347  0.00  0.00    +0.000 A 
ATOM      8  C   UNL     1     111.099 126.778 135.921  0.00  0.00    +0.000 A 
ATOM      9  C   UNL     1     111.238 125.978 135.776  0.00  0.00    +0.000 A 
ATOM     10  C   UNL     1     110.386 127.161 135.634  0.00  0.00    +0.000 A 
ATOM     11  C   UNL     1     110.674 125.505 135.334  0.00  0.00    +0.000 A 
ATOM     12  C   UNL     1     109.809 126.704 135.189  0.00  0.00    +0.000 A 
ATOM     13  C   UNL     1     109.954 125.870 135.038  0.00  0.00    +0.000 A 
ENDROOT
BRANCH   6  15
ATOM     14  O   UNL     1     115.232 124.638 137.607  0.00  0.00    +0.000 OA
ATOM     15  C   UNL     1     113.166 125.708 136.764  0.00  0.00    +0.000 A 
ATOM     16  C   UNL     1     113.767 125.502 136.239  0.00  0.00    +0.000 A 
ATOM     17  C   UNL     1     113.252 125.557 137.570  0.00  0.00    +0.000 A 
ATOM     18  C   UNL     1     114.456 125.145 136.520  0.00  0.00    +0.000 A 
ATOM     19  C   UNL     1     113.941 125.201 137.851  0.00  0.00    +0.000 A 
ATOM     20  C   UNL     1     114.543 124.994 137.326  0.00  0.00    +0.000 A 
ENDBRANCH   6  15
BRANCH   5  21
ATOM     21  O   UNL     1     112.888 127.308 137.054  0.00  0.00    +0.000 OA
BRANCH  21  28
ATOM     22  O   UNL     1     113.449 128.054 135.918  0.00  0.00    +0.000 OA
ATOM     23  O   UNL     1     114.045 129.949 136.701  0.00  0.00    +0.000 OA
ATOM     24  O   UNL     1     113.317 128.831 137.902  0.00  0.00    +0.000 OA
ATOM     25  C   UNL     1     113.777 128.804 135.818  0.00  0.00    +0.000 C 
ATOM     26  C   UNL     1     113.768 129.186 136.549  0.00  0.00    +0.000 C 
ATOM     27  C   UNL     1     113.434 128.673 137.101  0.00  0.00    +0.000 C 
ATOM     28  C   UNL     1     113.237 127.973 136.711  0.00  0.00    +0.000 C 
BRANCH  25  30
ATOM     29  O   UNL     1     113.582 129.599 134.646  0.00  0.00    +0.000 OA
ATOM     30  C   UNL     1     114.065 129.117 135.110  0.00  0.00    +0.000 C 
ATOM     31  C   UNL     1     114.835 128.948 134.868  0.00  0.00    +0.000 C 
ENDBRANCH  25  30
ENDBRANCH  21  28
ENDBRANCH   5  21
TORSDOF 4
ENDMDL
MODEL 5
REMARK VINA RESULT:      -9.1     10.391     12.212
REMARK  Name = 14078178
REMARK  4 active torsions:
REMARK  status: ('A' for Active; 'I' for Inactive)
REMARK    1  A    between atoms: O_2  and  C_14
REMARK    2  A    between atoms: O_2  and  C_17
REMARK    3  A    between atoms: C_11  and  C_15
REMARK    4  A    between atoms: C_18  and  C_22
REMARK                            x       y       z     vdW  Elec       q    Type
REMARK                         _______ _______ _______ _____ _____    ______ ____
ROOT
ATOM      1  O   UNL     1     113.659 127.220 136.493  0.00  0.00    +0.000 OA
ATOM      2  O   UNL     1     112.323 128.273 138.292  0.00  0.00    +0.000 OA
ATOM      3  O   UNL     1     112.494 129.575 137.695  0.00  0.00    +0.000 OA
ATOM      4  O   UNL     1     114.044 129.816 135.231  0.00  0.00    +0.000 OA
ATOM      5  C   UNL     1     112.899 127.107 137.699  0.00  0.00    +0.000 A 
ATOM      6  C   UNL     1     113.344 126.756 137.099  0.00  0.00    +0.000 A 
ATOM      7  C   UNL     1     112.769 127.922 137.692  0.00  0.00    +0.000 A 
ATOM      8  C   UNL     1     113.083 128.386 137.087  0.00  0.00    +0.000 A 
ATOM      9  C   UNL     1     113.528 128.034 136.487  0.00  0.00    +0.000 A 
ATOM     10  C   UNL     1     112.940 129.233 137.091  0.00  0.00    +0.000 A 
ATOM     11  C   UNL     1     113.861 128.505 135.851  0.00  0.00    +0.000 A 
ATOM     12  C   UNL     1     113.265 129.721 136.463  0.00  0.00    +0.000 A 
ATOM     13  C   UNL     1     113.729 129.354 135.838  0.00  0.00    +0.000 A 
ENDROOT
BRANCH   6  15
ATOM     14  O   UNL     1     113.866 123.498 137.125  0.00  0.00    +0.000 OA
ATOM     15  C   UNL     1     113.475 125.941 137.105  0.00  0.00    +0.000 A 
ATOM     16  C   UNL     1     114.213 125.644 137.323  0.00  0.00    +0.000 A 
ATOM     17  C   UNL     1     112.868 125.425 136.894  0.00  0.00    +0.000 A 
ATOM     18  C   UNL     1     114.343 124.829 137.330  0.00  0.00    +0.000 A 
ATOM     19  C   UNL     1     112.998 124.611 136.900  0.00  0.00    +0.000 A 
ATOM     20  C   UNL     1     113.736 124.312 137.118  0.00  0.00    +0.000 A 
ENDBRANCH   6  15
BRANCH   5  21
ATOM     21  O   UNL     1     112.585 126.643 138.304  0.00  0.00    +0.000 OA
BRANCH  21  28
ATOM     22  O   UNL     1     113.516 127.126 139.334  0.00  0.00    +0.000 OA
ATOM     23  O   UNL     1     112.566 126.740 141.207  0.00  0.00    +0.000 OA
ATOM     24  O   UNL     1     111.624 126.237 139.764  0.00  0.00    +0.000 OA
ATOM     25  C   UNL     1     113.511 127.153 140.159  0.00  0.00    +0.000 C 
ATOM     26  C   UNL     1     112.801 126.823 140.421  0.00  0.00    +0.000 C 
ATOM     27  C   UNL     1     112.368 126.592 139.758  0.00  0.00    +0.000 C 
ATOM     28  C   UNL     1     112.810 126.779 139.086  0.00  0.00    +0.000 C 
BRANCH  25  30
ATOM     29  O   UNL     1     114.051 128.224 140.937  0.00  0.00    +0.000 OA
ATOM     30  C   UNL     1     114.110 127.457 140.639  0.00  0.00    +0.000 C 
ATOM     31  C   UNL     1     114.768 126.994 140.820  0.00  0.00    +0.000 C 
ENDBRANCH  25  30
ENDBRANCH  21  28
ENDBRANCH   5  21
TORSDOF 4
ENDMDL
MODEL 6
REMARK VINA RESULT:      -9.0     11.049     12.993
REMARK  Name = 14078178
REMARK  4 active torsions:
REMARK  status: ('A' for Active; 'I' for Inactive)
REMARK    1  A    between atoms: O_2  and  C_14
REMARK    2  A    between atoms: O_2  and  C_17
REMARK    3  A    between atoms: C_11  and  C_15
REMARK    4  A    between atoms: C_18  and  C_22
REMARK                            x       y       z     vdW  Elec       q    Type
REMARK                         _______ _______ _______ _____ _____    ______ ____
ROOT
ATOM      1  O   UNL     1     114.131 127.501 136.104  0.00  0.00    +0.000 OA
ATOM      2  O   UNL     1     111.934 128.435 136.760  0.00  0.00    +0.000 OA
ATOM      3  O   UNL     1     112.216 129.665 136.061  0.00  0.00    +0.000 OA
ATOM      4  O   UNL     1     114.770 129.955 134.673  0.00  0.00    +0.000 OA
ATOM      5  C   UNL     1     112.880 127.364 136.782  0.00  0.00    +0.000 A 
ATOM      6  C   UNL     1     113.613 127.052 136.563  0.00  0.00    +0.000 A 
ATOM      7  C   UNL     1     112.667 128.123 136.541  0.00  0.00    +0.000 A 
ATOM      8  C   UNL     1     113.185 128.572 136.082  0.00  0.00    +0.000 A 
ATOM      9  C   UNL     1     113.917 128.260 135.864  0.00  0.00    +0.000 A 
ATOM     10  C   UNL     1     112.951 129.362 135.838  0.00  0.00    +0.000 A 
ATOM     11  C   UNL     1     114.466 128.717 135.386  0.00  0.00    +0.000 A 
ATOM     12  C   UNL     1     113.486 129.834 135.359  0.00  0.00    +0.000 A 
ATOM     13  C   UNL     1     114.249 129.509 135.132  0.00  0.00    +0.000 A 
ENDROOT
BRANCH   6  15
ATOM     14  O   UNL     1     114.467 124.014 137.526  0.00  0.00    +0.000 OA
ATOM     15  C   UNL     1     113.826 126.293 136.804  0.00  0.00    +0.000 A 
ATOM     16  C   UNL     1     113.835 125.674 136.258  0.00  0.00    +0.000 A 
ATOM     17  C   UNL     1     114.031 126.152 137.590  0.00  0.00    +0.000 A 
ATOM     18  C   UNL     1     114.048 124.915 136.498  0.00  0.00    +0.000 A 
ATOM     19  C   UNL     1     114.245 125.392 137.831  0.00  0.00    +0.000 A 
ATOM     20  C   UNL     1     114.253 124.774 137.285  0.00  0.00    +0.000 A 
ENDBRANCH   6  15
BRANCH   5  21
ATOM     21  O   UNL     1     112.362 126.915 137.241  0.00  0.00    +0.000 OA
BRANCH  21  28
ATOM     22  O   UNL     1     111.421 126.609 136.154  0.00  0.00    +0.000 OA
ATOM     23  O   UNL     1     109.539 126.246 137.094  0.00  0.00    +0.000 OA
ATOM     24  O   UNL     1     110.880 126.648 138.218  0.00  0.00    +0.000 OA
ATOM     25  C   UNL     1     110.619 126.419 136.112  0.00  0.00    +0.000 C 
ATOM     26  C   UNL     1     110.319 126.411 136.880  0.00  0.00    +0.000 C 
ATOM     27  C   UNL     1     110.935 126.595 137.397  0.00  0.00    +0.000 C 
ATOM     28  C   UNL     1     111.616 126.718 136.947  0.00  0.00    +0.000 C 
BRANCH  25  30
ATOM     29  O   UNL     1     109.711 126.850 135.095  0.00  0.00    +0.000 OA
ATOM     30  C   UNL     1     110.192 126.265 135.422  0.00  0.00    +0.000 C 
ATOM     31  C   UNL     1     110.246 125.525 135.061  0.00  0.00    +0.000 C 
ENDBRANCH  25  30
ENDBRANCH  21  28
ENDBRANCH   5  21
TORSDOF 4
ENDMDL
MODEL 7
REMARK VINA RESULT:      -8.8      1.386      4.069
REMARK  Name = 14078178
REMARK  4 active torsions:
REMARK  status: ('A' for Active; 'I' for Inactive)
REMARK    1  A    between atoms: O_2  and  C_14
REMARK    2  A    between atoms: O_2  and  C_17
REMARK    3  A    between atoms: C_11  and  C_15
REMARK    4  A    between atoms: C_18  and  C_22
REMARK                            x       y       z     vdW  Elec       q    Type
REMARK                         _______ _______ _______ _____ _____    ______ ____
ROOT
ATOM      1  O   UNL     1     103.757 125.741 147.264  0.00  0.00    +0.000 OA
ATOM      2  O   UNL     1     105.658 124.468 146.319  0.00  0.00    +0.000 OA
ATOM      3  O   UNL     1     104.786 123.374 145.965  0.00  0.00    +0.000 OA
ATOM      4  O   UNL     1     101.938 123.573 146.578  0.00  0.00    +0.000 OA
ATOM      5  C   UNL     1     105.150 125.639 146.962  0.00  0.00    +0.000 A 
ATOM      6  C   UNL     1     104.516 126.064 147.277  0.00  0.00    +0.000 A 
ATOM      7  C   UNL     1     105.024 124.892 146.634  0.00  0.00    +0.000 A 
ATOM      8  C   UNL     1     104.265 124.570 146.621  0.00  0.00    +0.000 A 
ATOM      9  C   UNL     1     103.631 124.994 146.936  0.00  0.00    +0.000 A 
ATOM     10  C   UNL     1     104.147 123.791 146.277  0.00  0.00    +0.000 A 
ATOM     11  C   UNL     1     102.836 124.671 146.929  0.00  0.00    +0.000 A 
ATOM     12  C   UNL     1     103.358 123.450 146.261  0.00  0.00    +0.000 A 
ATOM     13  C   UNL     1     102.698 123.893 146.589  0.00  0.00    +0.000 A 
ENDROOT
BRANCH   6  15
ATOM     14  O   UNL     1     105.020 129.050 148.587  0.00  0.00    +0.000 OA
ATOM     15  C   UNL     1     104.642 126.810 147.604  0.00  0.00    +0.000 A 
ATOM     16  C   UNL     1     104.606 126.913 148.422  0.00  0.00    +0.000 A 
ATOM     17  C   UNL     1     104.804 127.453 147.114  0.00  0.00    +0.000 A 
ATOM     18  C   UNL     1     104.732 127.659 148.750  0.00  0.00    +0.000 A 
ATOM     19  C   UNL     1     104.930 128.200 147.441  0.00  0.00    +0.000 A 
ATOM     20  C   UNL     1     104.894 128.303 148.259  0.00  0.00    +0.000 A 
ENDBRANCH   6  15
BRANCH   5  21
ATOM     21  O   UNL     1     105.909 125.961 146.975  0.00  0.00    +0.000 OA
BRANCH  21  28
ATOM     22  O   UNL     1     106.408 125.165 148.105  0.00  0.00    +0.000 OA
ATOM     23  O   UNL     1     108.517 124.998 147.816  0.00  0.00    +0.000 OA
ATOM     24  O   UNL     1     107.654 125.938 146.553  0.00  0.00    +0.000 OA
ATOM     25  C   UNL     1     107.149 124.891 148.344  0.00  0.00    +0.000 C 
ATOM     26  C   UNL     1     107.706 125.147 147.792  0.00  0.00    +0.000 C 
ATOM     27  C   UNL     1     107.310 125.579 147.212  0.00  0.00    +0.000 C 
ATOM     28  C   UNL     1     106.508 125.590 147.405  0.00  0.00    +0.000 C 
BRANCH  25  30
ATOM     29  O   UNL     1     106.957 123.698 149.108  0.00  0.00    +0.000 OA
ATOM     30  C   UNL     1     107.306 124.440 149.018  0.00  0.00    +0.000 C 
ATOM     31  C   UNL     1     107.812 124.732 149.600  0.00  0.00    +0.000 C 
ENDBRANCH  25  30
ENDBRANCH  21  28
ENDBRANCH   5  21
TORSDOF 4
ENDMDL
MODEL 8
REMARK VINA RESULT:      -8.8      1.510      3.864
REMARK  Name = 14078178
REMARK  4 active torsions:
REMARK  status: ('A' for Active; 'I' for Inactive)
REMARK    1  A    between atoms: O_2  and  C_14
REMARK    2  A    between atoms: O_2  and  C_17
REMARK    3  A    between atoms: C_11  and  C_15
REMARK    4  A    between atoms: C_18  and  C_22
REMARK                            x       y       z     vdW  Elec       q    Type
REMARK                         _______ _______ _______ _____ _____    ______ ____
ROOT
ATOM      1  O   UNL     1     105.103 124.209 147.077  0.00  0.00    +0.000 OA
ATOM      2  O   UNL     1     103.561 125.827 148.140  0.00  0.00    +0.000 OA
ATOM      3  O   UNL     1     102.426 125.217 147.490  0.00  0.00    +0.000 OA
ATOM      4  O   UNL     1     102.861 122.926 145.731  0.00  0.00    +0.000 OA
ATOM      5  C   UNL     1     104.885 125.330 147.937  0.00  0.00    +0.000 A 
ATOM      6  C   UNL     1     105.399 124.790 147.582  0.00  0.00    +0.000 A 
ATOM      7  C   UNL     1     104.075 125.288 147.786  0.00  0.00    +0.000 A 
ATOM      8  C   UNL     1     103.778 124.707 147.281  0.00  0.00    +0.000 A 
ATOM      9  C   UNL     1     104.293 124.167 146.926  0.00  0.00    +0.000 A 
ATOM     10  C   UNL     1     102.933 124.674 147.131  0.00  0.00    +0.000 A 
ATOM     11  C   UNL     1     103.997 123.557 146.398  0.00  0.00    +0.000 A 
ATOM     12  C   UNL     1     102.619 124.071 146.606  0.00  0.00    +0.000 A 
ATOM     13  C   UNL     1     103.155 123.509 146.237  0.00  0.00    +0.000 A 
ENDROOT
BRANCH   6  15
ATOM     14  O   UNL     1     108.638 124.957 148.187  0.00  0.00    +0.000 OA
ATOM     15  C   UNL     1     106.209 124.832 147.734  0.00  0.00    +0.000 A 
ATOM     16  C   UNL     1     106.721 125.124 147.157  0.00  0.00    +0.000 A 
ATOM     17  C   UNL     1     106.506 124.581 148.461  0.00  0.00    +0.000 A 
ATOM     18  C   UNL     1     107.531 125.166 147.308  0.00  0.00    +0.000 A 
ATOM     19  C   UNL     1     107.316 124.623 148.612  0.00  0.00    +0.000 A 
ATOM     20  C   UNL     1     107.829 124.915 148.036  0.00  0.00    +0.000 A 
ENDBRANCH   6  15
BRANCH   5  21
ATOM     21  O   UNL     1     105.181 125.910 148.442  0.00  0.00    +0.000 OA
BRANCH  21  28
ATOM     22  O   UNL     1     105.030 127.020 147.490  0.00  0.00    +0.000 OA
ATOM     23  O   UNL     1     104.887 128.791 148.675  0.00  0.00    +0.000 OA
ATOM     24  O   UNL     1     105.081 127.270 149.609  0.00  0.00    +0.000 OA
ATOM     25  C   UNL     1     104.946 127.839 147.556  0.00  0.00    +0.000 C 
ATOM     26  C   UNL     1     104.955 128.032 148.358  0.00  0.00    +0.000 C 
ATOM     27  C   UNL     1     105.044 127.333 148.788  0.00  0.00    +0.000 C 
ATOM     28  C   UNL     1     105.090 126.708 148.251  0.00  0.00    +0.000 C 
BRANCH  25  30
ATOM     29  O   UNL     1     104.156 128.772 146.817  0.00  0.00    +0.000 OA
ATOM     30  C   UNL     1     104.867 128.371 146.930  0.00  0.00    +0.000 C 
ATOM     31  C   UNL     1     105.500 128.500 146.417  0.00  0.00    +0.000 C 
ENDBRANCH  25  30
ENDBRANCH  21  28
ENDBRANCH   5  21
TORSDOF 4
ENDMDL
MODEL 9
REMARK VINA RESULT:      -8.8      9.360     11.080
REMARK  Name = 14078178
REMARK  4 active torsions:
REMARK  status: ('A' for Active; 'I' for Inactive)
REMARK    1  A    between atoms: O_2  and  C_14
REMARK    2  A    between atoms: O_2  and  C_17
REMARK    3  A    between atoms: C_11  and  C_15
REMARK    4  A    between atoms: C_18  and  C_22
REMARK                            x       y       z     vdW  Elec       q    Type
REMARK                         _______ _______ _______ _____ _____    ______ ____
ROOT
ATOM      1  O   UNL     1     113.751 126.233 138.272  0.00  0.00    +0.000 OA
ATOM      2  O   UNL     1     111.745 124.834 137.890  0.00  0.00    +0.000 OA
ATOM      3  O   UNL     1     112.375 124.188 136.763  0.00  0.00    +0.000 OA
ATOM      4  O   UNL     1     115.085 124.973 136.010  0.00  0.00    +0.000 OA
ATOM      5  C   UNL     1     112.425 125.845 138.636  0.00  0.00    +0.000 A 
ATOM      6  C   UNL     1     113.094 126.312 138.764  0.00  0.00    +0.000 A 
ATOM      7  C   UNL     1     112.414 125.300 138.017  0.00  0.00    +0.000 A 
ATOM      8  C   UNL     1     113.071 125.221 137.525  0.00  0.00    +0.000 A 
ATOM      9  C   UNL     1     113.740 125.688 137.652  0.00  0.00    +0.000 A 
ATOM     10  C   UNL     1     113.048 124.651 136.883  0.00  0.00    +0.000 A 
ATOM     11  C   UNL     1     114.431 125.616 137.147  0.00  0.00    +0.000 A 
ATOM     12  C   UNL     1     113.729 124.564 136.367  0.00  0.00    +0.000 A 
ATOM     13  C   UNL     1     114.426 125.050 136.501  0.00  0.00    +0.000 A 
ENDROOT
BRANCH   6  15
ATOM     14  O   UNL     1     113.137 128.491 141.241  0.00  0.00    +0.000 OA
ATOM     15  C   UNL     1     113.104 126.857 139.383  0.00  0.00    +0.000 A 
ATOM     16  C   UNL     1     113.039 127.664 139.223  0.00  0.00    +0.000 A 
ATOM     17  C   UNL     1     113.181 126.595 140.161  0.00  0.00    +0.000 A 
ATOM     18  C   UNL     1     113.049 128.208 139.843  0.00  0.00    +0.000 A 
ATOM     19  C   UNL     1     113.192 127.140 140.780  0.00  0.00    +0.000 A 
ATOM     20  C   UNL     1     113.126 127.946 140.622  0.00  0.00    +0.000 A 
ENDBRANCH   6  15
BRANCH   5  21
ATOM     21  O   UNL     1     111.768 125.924 139.129  0.00  0.00    +0.000 OA
BRANCH  21  28
ATOM     22  O   UNL     1     110.930 126.617 138.139  0.00  0.00    +0.000 OA
ATOM     23  O   UNL     1     108.910 126.248 138.724  0.00  0.00    +0.000 OA
ATOM     24  O   UNL     1     110.151 125.500 139.783  0.00  0.00    +0.000 OA
ATOM     25  C   UNL     1     110.118 126.710 138.024  0.00  0.00    +0.000 C 
ATOM     26  C   UNL     1     109.727 126.302 138.626  0.00  0.00    +0.000 C 
ATOM     27  C   UNL     1     110.297 125.958 139.113  0.00  0.00    +0.000 C 
ATOM     28  C   UNL     1     111.041 126.153 138.812  0.00  0.00    +0.000 C 
BRANCH  25  30
ATOM     29  O   UNL     1     109.412 126.735 136.781  0.00  0.00    +0.000 OA
ATOM     30  C   UNL     1     109.759 127.135 137.414  0.00  0.00    +0.000 C 
ATOM     31  C   UNL     1     109.748 127.959 137.438  0.00  0.00    +0.000 C 
ENDBRANCH  25  30
ENDBRANCH  21  28
ENDBRANCH   5  21
TORSDOF 4
ENDMDL
MODEL 10
REMARK VINA RESULT:      -8.7      9.945     11.796
REMARK  Name = 14078178
REMARK  4 active torsions:
REMARK  status: ('A' for Active; 'I' for Inactive)
REMARK    1  A    between atoms: O_2  and  C_14
REMARK    2  A    between atoms: O_2  and  C_17
REMARK    3  A    between atoms: C_11  and  C_15
REMARK    4  A    between atoms: C_18  and  C_22
REMARK                            x       y       z     vdW  Elec       q    Type
REMARK                         _______ _______ _______ _____ _____    ______ ____
ROOT
ATOM      1  O   UNL     1     111.759 125.621 136.163  0.00  0.00    +0.000 OA
ATOM      2  O   UNL     1     110.606 126.412 138.206  0.00  0.00    +0.000 OA
ATOM      3  O   UNL     1     109.383 126.620 137.469  0.00  0.00    +0.000 OA
ATOM      4  O   UNL     1     109.325 126.016 134.612  0.00  0.00    +0.000 OA
ATOM      5  C   UNL     1     111.781 125.918 137.561  0.00  0.00    +0.000 A 
ATOM      6  C   UNL     1     112.166 125.654 136.880  0.00  0.00    +0.000 A 
ATOM      7  C   UNL     1     110.990 126.148 137.525  0.00  0.00    +0.000 A 
ATOM      8  C   UNL     1     110.583 126.115 136.808  0.00  0.00    +0.000 A 
ATOM      9  C   UNL     1     110.967 125.851 136.127  0.00  0.00    +0.000 A 
ATOM     10  C   UNL     1     109.759 126.358 136.783  0.00  0.00    +0.000 A 
ATOM     11  C   UNL     1     110.555 125.812 135.375  0.00  0.00    +0.000 A 
ATOM     12  C   UNL     1     109.330 126.325 136.040  0.00  0.00    +0.000 A 
ATOM     13  C   UNL     1     109.731 126.050 135.331  0.00  0.00    +0.000 A 
ENDROOT
BRANCH   6  15
ATOM     14  O   UNL     1     115.331 124.732 137.024  0.00  0.00    +0.000 OA
ATOM     15  C   UNL     1     112.957 125.424 136.916  0.00  0.00    +0.000 A 
ATOM     16  C   UNL     1     113.546 125.924 136.626  0.00  0.00    +0.000 A 
ATOM     17  C   UNL     1     113.159 124.693 137.241  0.00  0.00    +0.000 A 
ATOM     18  C   UNL     1     114.337 125.694 136.663  0.00  0.00    +0.000 A 
ATOM     19  C   UNL     1     113.951 124.463 137.277  0.00  0.00    +0.000 A 
ATOM     20  C   UNL     1     114.540 124.963 136.988  0.00  0.00    +0.000 A 
ENDBRANCH   6  15
BRANCH   5  21
ATOM     21  O   UNL     1     112.189 125.951 138.277  0.00  0.00    +0.000 OA
BRANCH  21  28
ATOM     22  O   UNL     1     112.322 127.414 138.311  0.00  0.00    +0.000 OA
ATOM     23  O   UNL     1     112.496 127.938 140.374  0.00  0.00    +0.000 OA
ATOM     24  O   UNL     1     112.319 126.180 140.053  0.00  0.00    +0.000 OA
ATOM     25  C   UNL     1     112.409 127.979 138.907  0.00  0.00    +0.000 C 
ATOM     26  C   UNL     1     112.419 127.585 139.632  0.00  0.00    +0.000 C 
ATOM     27  C   UNL     1     112.337 126.778 139.484  0.00  0.00    +0.000 C 
ATOM     28  C   UNL     1     112.278 126.672 138.668  0.00  0.00    +0.000 C 
BRANCH  25  30
ATOM     29  O   UNL     1     111.817 129.280 138.900  0.00  0.00    +0.000 OA
ATOM     30  C   UNL     1     112.476 128.795 138.797  0.00  0.00    +0.000 C 
ATOM     31  C   UNL     1     113.201 129.124 138.583  0.00  0.00    +0.000 C 
ENDBRANCH  25  30
ENDBRANCH  21  28
ENDBRANCH   5  21
TORSDOF 4
ENDMDL
