MODEL 1
REMARK VINA RESULT:     -11.0      0.000      0.000
REMARK  Name = 44257948
REMARK  7 active torsions:
REMARK  status: ('A' for Active; 'I' for Inactive)
REMARK    1  A    between atoms: O_7  and  C_23
REMARK    2  A    between atoms: O_7  and  C_31
REMARK    3  A    between atoms: C_17  and  C_20
REMARK    4  A    between atoms: C_19  and  C_21
REMARK    5  A    between atoms: C_28  and  C_30
REMARK    6  A    between atoms: C_31  and  C_34
REMARK    7  A    between atoms: C_38  and  C_39
REMARK                            x       y       z     vdW  Elec       q    Type
REMARK                         _______ _______ _______ _____ _____    ______ ____
ROOT
ATOM      1  O   UNL     1     110.194 130.265 136.606  0.00  0.00    +0.000 OA
ATOM      2  O   UNL     1     108.175 128.411 135.676  0.00  0.00    +0.000 OA
ATOM      3  O   UNL     1     107.768 129.718 136.132  0.00  0.00    +0.000 OA
ATOM      4  C   UNL     1     110.550 128.938 136.136  0.00  0.00    +0.000 A 
ATOM      5  C   UNL     1     109.965 129.501 136.288  0.00  0.00    +0.000 A 
ATOM      6  C   UNL     1     110.343 128.200 135.831  0.00  0.00    +0.000 A 
ATOM      7  C   UNL     1     109.174 129.325 136.135  0.00  0.00    +0.000 A 
ATOM      8  C   UNL     1     109.551 128.025 135.678  0.00  0.00    +0.000 A 
ATOM      9  C   UNL     1     108.968 128.587 135.829  0.00  0.00    +0.000 A 
ATOM     10  C   UNL     1     108.556 129.902 136.288  0.00  0.00    +0.000 A 
ATOM     11  C   UNL     1     109.590 130.856 136.766  0.00  0.00    +0.000 A 
ATOM     12  C   UNL     1     108.766 130.673 136.607  0.00  0.00    +0.000 A 
ENDROOT
BRANCH   4  19
ATOM     13  O   UNL     1     111.653 128.988 137.044  0.00  0.00    +0.000 OA
ATOM     14  O   UNL     1     111.509 129.540 134.936  0.00  0.00    +0.000 OA
ATOM     15  O   UNL     1     113.091 129.891 135.243  0.00  0.00    +0.000 OA
ATOM     16  O   UNL     1     113.716 129.641 136.751  0.00  0.00    +0.000 OA
ATOM     17  C   UNL     1     111.821 129.415 135.690  0.00  0.00    +0.000 C 
ATOM     18  C   UNL     1     112.612 129.590 135.844  0.00  0.00    +0.000 C 
ATOM     19  C   UNL     1     111.341 129.114 136.290  0.00  0.00    +0.000 C 
ATOM     20  C   UNL     1     112.923 129.465 136.597  0.00  0.00    +0.000 C 
ATOM     21  C   UNL     1     112.444 129.164 137.197  0.00  0.00    +0.000 C 
BRANCH  21  23
ATOM     22  O   UNL     1     112.655 128.308 138.322  0.00  0.00    +0.000 OA
ATOM     23  C   UNL     1     112.755 129.038 137.950  0.00  0.00    +0.000 C 
ENDBRANCH  21  23
ENDBRANCH   4  19
BRANCH  11  26
ATOM     24  O   UNL     1     110.074 132.557 139.011  0.00  0.00    +0.000 OA
ATOM     25  O   UNL     1     110.429 133.803 137.989  0.00  0.00    +0.000 OA
ATOM     26  C   UNL     1     109.799 131.593 137.072  0.00  0.00    +0.000 A 
ATOM     27  C   UNL     1     109.832 131.706 137.888  0.00  0.00    +0.000 A 
ATOM     28  C   UNL     1     109.977 132.216 136.562  0.00  0.00    +0.000 A 
ATOM     29  C   UNL     1     110.042 132.443 138.195  0.00  0.00    +0.000 A 
ATOM     30  C   UNL     1     110.186 132.952 136.867  0.00  0.00    +0.000 A 
ATOM     31  C   UNL     1     110.219 133.066 137.683  0.00  0.00    +0.000 A 
ENDBRANCH  11  26
BRANCH   6  32
ATOM     32  O   UNL     1     110.928 127.638 135.679  0.00  0.00    +0.000 OA
BRANCH  32  34
ATOM     33  O   UNL     1     110.230 126.748 134.805  0.00  0.00    +0.000 OA
ATOM     34  C   UNL     1     110.715 126.871 135.461  0.00  0.00    +0.000 C 
BRANCH  34  35
ATOM     35  C   UNL     1     110.988 126.227 135.900  0.00  0.00    +0.000 C 
ATOM     36  C   UNL     1     111.615 125.772 135.617  0.00  0.00    +0.000 C 
BRANCH  36  39
ATOM     37  O   UNL     1     113.678 124.511 137.140  0.00  0.00    +0.000 OA
ATOM     38  O   UNL     1     112.705 123.198 137.371  0.00  0.00    +0.000 OA
ATOM     39  C   UNL     1     111.887 125.128 136.056  0.00  0.00    +0.000 A 
ATOM     40  C   UNL     1     112.646 125.141 136.378  0.00  0.00    +0.000 A 
ATOM     41  C   UNL     1     111.402 124.473 136.171  0.00  0.00    +0.000 A 
ATOM     42  C   UNL     1     112.919 124.497 136.817  0.00  0.00    +0.000 A 
ATOM     43  C   UNL     1     111.674 123.829 136.609  0.00  0.00    +0.000 A 
ATOM     44  C   UNL     1     112.433 123.842 136.932  0.00  0.00    +0.000 A 
ENDBRANCH  36  39
ENDBRANCH  34  35
ENDBRANCH  32  34
ENDBRANCH   6  32
TORSDOF 7
ENDMDL
MODEL 2
REMARK VINA RESULT:     -10.8      1.597      6.196
REMARK  Name = 44257948
REMARK  7 active torsions:
REMARK  status: ('A' for Active; 'I' for Inactive)
REMARK    1  A    between atoms: O_7  and  C_23
REMARK    2  A    between atoms: O_7  and  C_31
REMARK    3  A    between atoms: C_17  and  C_20
REMARK    4  A    between atoms: C_19  and  C_21
REMARK    5  A    between atoms: C_28  and  C_30
REMARK    6  A    between atoms: C_31  and  C_34
REMARK    7  A    between atoms: C_38  and  C_39
REMARK                            x       y       z     vdW  Elec       q    Type
REMARK                         _______ _______ _______ _____ _____    ______ ____
ROOT
ATOM      1  O   UNL     1     112.540 127.539 136.889  0.00  0.00    +0.000 OA
ATOM      2  O   UNL     1     113.440 129.940 135.547  0.00  0.00    +0.000 OA
ATOM      3  O   UNL     1     114.235 128.739 135.441  0.00  0.00    +0.000 OA
ATOM      4  C   UNL     1     111.779 128.773 136.963  0.00  0.00    +0.000 A 
ATOM      5  C   UNL     1     112.440 128.366 136.683  0.00  0.00    +0.000 A 
ATOM      6  C   UNL     1     111.672 129.568 136.772  0.00  0.00    +0.000 A 
ATOM      7  C   UNL     1     112.994 128.755 136.211  0.00  0.00    +0.000 A 
ATOM      8  C   UNL     1     112.226 129.957 136.300  0.00  0.00    +0.000 A 
ATOM      9  C   UNL     1     112.886 129.551 136.019  0.00  0.00    +0.000 A 
ATOM     10  C   UNL     1     113.686 128.343 135.912  0.00  0.00    +0.000 A 
ATOM     11  C   UNL     1     113.227 127.109 136.600  0.00  0.00    +0.000 A 
ATOM     12  C   UNL     1     113.803 127.514 136.108  0.00  0.00    +0.000 A 
ENDROOT
BRANCH   4  19
ATOM     13  O   UNL     1     110.598 127.977 137.085  0.00  0.00    +0.000 OA
ATOM     14  O   UNL     1     111.925 128.811 138.606  0.00  0.00    +0.000 OA
ATOM     15  O   UNL     1     110.817 128.033 139.550  0.00  0.00    +0.000 OA
ATOM     16  O   UNL     1     109.564 127.218 138.851  0.00  0.00    +0.000 OA
ATOM     17  C   UNL     1     111.298 128.403 138.256  0.00  0.00    +0.000 C 
ATOM     18  C   UNL     1     110.744 128.014 138.728  0.00  0.00    +0.000 C 
ATOM     19  C   UNL     1     111.225 128.385 137.435  0.00  0.00    +0.000 C 
ATOM     20  C   UNL     1     110.118 127.607 138.379  0.00  0.00    +0.000 C 
ATOM     21  C   UNL     1     110.045 127.588 137.557  0.00  0.00    +0.000 C 
BRANCH  21  23
ATOM     22  O   UNL     1     109.052 127.487 136.534  0.00  0.00    +0.000 OA
ATOM     23  C   UNL     1     109.419 127.181 137.208  0.00  0.00    +0.000 C 
ENDBRANCH  21  23
ENDBRANCH   4  19
BRANCH  11  26
ATOM     24  O   UNL     1     112.623 124.353 136.146  0.00  0.00    +0.000 OA
ATOM     25  O   UNL     1     113.644 123.928 137.371  0.00  0.00    +0.000 OA
ATOM     26  C   UNL     1     113.331 126.314 136.793  0.00  0.00    +0.000 A 
ATOM     27  C   UNL     1     112.925 125.732 136.373  0.00  0.00    +0.000 A 
ATOM     28  C   UNL     1     113.841 126.101 137.405  0.00  0.00    +0.000 A 
ATOM     29  C   UNL     1     113.029 124.936 136.565  0.00  0.00    +0.000 A 
ATOM     30  C   UNL     1     113.946 125.307 137.597  0.00  0.00    +0.000 A 
ATOM     31  C   UNL     1     113.540 124.724 137.178  0.00  0.00    +0.000 A 
ENDBRANCH  11  26
BRANCH   6  32
ATOM     32  O   UNL     1     111.011 129.975 137.052  0.00  0.00    +0.000 OA
BRANCH  32  34
ATOM     33  O   UNL     1     111.368 131.358 137.035  0.00  0.00    +0.000 OA
ATOM     34  C   UNL     1     110.865 130.747 136.802  0.00  0.00    +0.000 C 
BRANCH  34  35
ATOM     35  C   UNL     1     110.216 130.908 136.318  0.00  0.00    +0.000 C 
ATOM     36  C   UNL     1     109.661 131.473 136.548  0.00  0.00    +0.000 C 
BRANCH  36  39
ATOM     37  O   UNL     1     106.846 131.364 136.065  0.00  0.00    +0.000 OA
ATOM     38  O   UNL     1     107.066 132.116 134.613  0.00  0.00    +0.000 OA
ATOM     39  C   UNL     1     109.012 131.634 136.063  0.00  0.00    +0.000 A 
ATOM     40  C   UNL     1     108.253 131.418 136.306  0.00  0.00    +0.000 A 
ATOM     41  C   UNL     1     109.121 132.009 135.338  0.00  0.00    +0.000 A 
ATOM     42  C   UNL     1     107.604 131.579 135.822  0.00  0.00    +0.000 A 
ATOM     43  C   UNL     1     108.473 132.170 134.854  0.00  0.00    +0.000 A 
ATOM     44  C   UNL     1     107.714 131.955 135.097  0.00  0.00    +0.000 A 
ENDBRANCH  36  39
ENDBRANCH  34  35
ENDBRANCH  32  34
ENDBRANCH   6  32
TORSDOF 7
ENDMDL
MODEL 3
REMARK VINA RESULT:     -10.5      1.666      5.806
REMARK  Name = 44257948
REMARK  7 active torsions:
REMARK  status: ('A' for Active; 'I' for Inactive)
REMARK    1  A    between atoms: O_7  and  C_23
REMARK    2  A    between atoms: O_7  and  C_31
REMARK    3  A    between atoms: C_17  and  C_20
REMARK    4  A    between atoms: C_19  and  C_21
REMARK    5  A    between atoms: C_28  and  C_30
REMARK    6  A    between atoms: C_31  and  C_34
REMARK    7  A    between atoms: C_38  and  C_39
REMARK                            x       y       z     vdW  Elec       q    Type
REMARK                         _______ _______ _______ _____ _____    ______ ____
ROOT
ATOM      1  O   UNL     1     112.264 127.428 137.443  0.00  0.00    +0.000 OA
ATOM      2  O   UNL     1     109.594 127.812 138.493  0.00  0.00    +0.000 OA
ATOM      3  O   UNL     1     110.257 126.550 138.714  0.00  0.00    +0.000 OA
ATOM      4  C   UNL     1     111.551 128.679 137.249  0.00  0.00    +0.000 A 
ATOM      5  C   UNL     1     111.565 127.914 137.559  0.00  0.00    +0.000 A 
ATOM      6  C   UNL     1     110.885 129.154 137.354  0.00  0.00    +0.000 A 
ATOM      7  C   UNL     1     110.912 127.625 137.973  0.00  0.00    +0.000 A 
ATOM      8  C   UNL     1     110.233 128.865 137.768  0.00  0.00    +0.000 A 
ATOM      9  C   UNL     1     110.247 128.101 138.078  0.00  0.00    +0.000 A 
ATOM     10  C   UNL     1     110.914 126.831 138.301  0.00  0.00    +0.000 A 
ATOM     11  C   UNL     1     112.284 126.631 137.763  0.00  0.00    +0.000 A 
ATOM     12  C   UNL     1     111.605 126.330 138.195  0.00  0.00    +0.000 A 
ENDROOT
BRANCH   4  19
ATOM     13  O   UNL     1     112.810 129.356 137.239  0.00  0.00    +0.000 OA
ATOM     14  O   UNL     1     111.643 128.480 135.614  0.00  0.00    +0.000 OA
ATOM     15  O   UNL     1     112.948 129.057 134.785  0.00  0.00    +0.000 OA
ATOM     16  O   UNL     1     114.161 129.834 135.591  0.00  0.00    +0.000 OA
ATOM     17  C   UNL     1     112.250 128.868 136.018  0.00  0.00    +0.000 C 
ATOM     18  C   UNL     1     112.902 129.157 135.603  0.00  0.00    +0.000 C 
ATOM     19  C   UNL     1     112.203 128.967 136.835  0.00  0.00    +0.000 C 
ATOM     20  C   UNL     1     113.508 129.545 136.006  0.00  0.00    +0.000 C 
ATOM     21  C   UNL     1     113.462 129.644 136.824  0.00  0.00    +0.000 C 
BRANCH  21  23
ATOM     22  O   UNL     1     114.049 130.082 138.052  0.00  0.00    +0.000 OA
ATOM     23  C   UNL     1     114.067 130.032 137.227  0.00  0.00    +0.000 C 
ENDBRANCH  21  23
ENDBRANCH   4  19
BRANCH  11  26
ATOM     24  O   UNL     1     113.724 124.691 136.235  0.00  0.00    +0.000 OA
ATOM     25  O   UNL     1     114.951 124.736 137.338  0.00  0.00    +0.000 OA
ATOM     26  C   UNL     1     112.951 126.157 137.657  0.00  0.00    +0.000 A 
ATOM     27  C   UNL     1     113.003 125.661 137.000  0.00  0.00    +0.000 A 
ATOM     28  C   UNL     1     113.565 126.178 138.208  0.00  0.00    +0.000 A 
ATOM     29  C   UNL     1     113.671 125.187 136.893  0.00  0.00    +0.000 A 
ATOM     30  C   UNL     1     114.231 125.705 138.101  0.00  0.00    +0.000 A 
ATOM     31  C   UNL     1     114.284 125.209 137.444  0.00  0.00    +0.000 A 
ENDBRANCH  11  26
BRANCH   6  32
ATOM     32  O   UNL     1     110.872 129.919 137.044  0.00  0.00    +0.000 OA
BRANCH  32  34
ATOM     33  O   UNL     1     110.327 130.784 138.042  0.00  0.00    +0.000 OA
ATOM     34  C   UNL     1     110.292 130.452 137.288  0.00  0.00    +0.000 C 
BRANCH  34  35
ATOM     35  C   UNL     1     109.676 130.653 136.776  0.00  0.00    +0.000 C 
ATOM     36  C   UNL     1     109.482 131.446 136.656  0.00  0.00    +0.000 C 
BRANCH  36  39
ATOM     37  O   UNL     1     106.684 131.682 136.125  0.00  0.00    +0.000 OA
ATOM     38  O   UNL     1     107.019 132.249 134.612  0.00  0.00    +0.000 OA
ATOM     39  C   UNL     1     108.866 131.647 136.145  0.00  0.00    +0.000 A 
ATOM     40  C   UNL     1     108.083 131.564 136.391  0.00  0.00    +0.000 A 
ATOM     41  C   UNL     1     109.033 131.930 135.389  0.00  0.00    +0.000 A 
ATOM     42  C   UNL     1     107.467 131.765 135.879  0.00  0.00    +0.000 A 
ATOM     43  C   UNL     1     108.418 132.131 134.878  0.00  0.00    +0.000 A 
ATOM     44  C   UNL     1     107.634 132.048 135.123  0.00  0.00    +0.000 A 
ENDBRANCH  36  39
ENDBRANCH  34  35
ENDBRANCH  32  34
ENDBRANCH   6  32
TORSDOF 7
ENDMDL
MODEL 4
REMARK VINA RESULT:     -10.5      2.662      6.298
REMARK  Name = 44257948
REMARK  7 active torsions:
REMARK  status: ('A' for Active; 'I' for Inactive)
REMARK    1  A    between atoms: O_7  and  C_23
REMARK    2  A    between atoms: O_7  and  C_31
REMARK    3  A    between atoms: C_17  and  C_20
REMARK    4  A    between atoms: C_19  and  C_21
REMARK    5  A    between atoms: C_28  and  C_30
REMARK    6  A    between atoms: C_31  and  C_34
REMARK    7  A    between atoms: C_38  and  C_39
REMARK                            x       y       z     vdW  Elec       q    Type
REMARK                         _______ _______ _______ _____ _____    ______ ____
ROOT
ATOM      1  O   UNL     1     111.950 126.350 137.541  0.00  0.00    +0.000 OA
ATOM      2  O   UNL     1     114.653 125.738 138.375  0.00  0.00    +0.000 OA
ATOM      3  O   UNL     1     114.179 125.229 137.110  0.00  0.00    +0.000 OA
ATOM      4  C   UNL     1     112.476 126.836 138.804  0.00  0.00    +0.000 A 
ATOM      5  C   UNL     1     112.592 126.407 138.108  0.00  0.00    +0.000 A 
ATOM      6  C   UNL     1     113.086 126.899 139.356  0.00  0.00    +0.000 A 
ATOM      7  C   UNL     1     113.317 126.041 137.965  0.00  0.00    +0.000 A 
ATOM      8  C   UNL     1     113.811 126.532 139.213  0.00  0.00    +0.000 A 
ATOM      9  C   UNL     1     113.927 126.104 138.518  0.00  0.00    +0.000 A 
ATOM     10  C   UNL     1     113.450 125.592 137.245  0.00  0.00    +0.000 A 
ATOM     11  C   UNL     1     112.064 125.904 136.815  0.00  0.00    +0.000 A 
ATOM     12  C   UNL     1     112.819 125.523 136.666  0.00  0.00    +0.000 A 
ENDROOT
BRANCH   4  19
ATOM     13  O   UNL     1     111.610 127.964 138.662  0.00  0.00    +0.000 OA
ATOM     14  O   UNL     1     111.308 126.045 139.659  0.00  0.00    +0.000 OA
ATOM     15  O   UNL     1     109.857 126.777 139.945  0.00  0.00    +0.000 OA
ATOM     16  O   UNL     1     109.575 128.301 139.376  0.00  0.00    +0.000 OA
ATOM     17  C   UNL     1     111.167 126.807 139.374  0.00  0.00    +0.000 C 
ATOM     18  C   UNL     1     110.441 127.173 139.517  0.00  0.00    +0.000 C 
ATOM     19  C   UNL     1     111.752 127.202 138.947  0.00  0.00    +0.000 C 
ATOM     20  C   UNL     1     110.301 127.934 139.233  0.00  0.00    +0.000 C 
ATOM     21  C   UNL     1     110.885 128.330 138.805  0.00  0.00    +0.000 C 
BRANCH  21  23
ATOM     22  O   UNL     1     111.116 129.739 138.874  0.00  0.00    +0.000 OA
ATOM     23  C   UNL     1     110.745 129.091 138.521  0.00  0.00    +0.000 C 
ENDBRANCH  21  23
ENDBRANCH   4  19
BRANCH  11  26
ATOM     24  O   UNL     1     110.600 126.988 134.612  0.00  0.00    +0.000 OA
ATOM     25  O   UNL     1     109.619 125.661 134.612  0.00  0.00    +0.000 OA
ATOM     26  C   UNL     1     111.452 125.843 136.264  0.00  0.00    +0.000 A 
ATOM     27  C   UNL     1     111.333 126.446 135.714  0.00  0.00    +0.000 A 
ATOM     28  C   UNL     1     110.962 125.180 136.263  0.00  0.00    +0.000 A 
ATOM     29  C   UNL     1     110.721 126.386 135.163  0.00  0.00    +0.000 A 
ATOM     30  C   UNL     1     110.351 125.120 135.713  0.00  0.00    +0.000 A 
ATOM     31  C   UNL     1     110.230 125.722 135.163  0.00  0.00    +0.000 A 
ENDBRANCH  11  26
BRANCH   6  32
ATOM     32  O   UNL     1     112.970 127.328 140.052  0.00  0.00    +0.000 OA
BRANCH  32  34
ATOM     33  O   UNL     1     113.892 126.934 141.071  0.00  0.00    +0.000 OA
ATOM     34  C   UNL     1     113.612 127.501 140.541  0.00  0.00    +0.000 C 
BRANCH  34  35
ATOM     35  C   UNL     1     113.973 128.242 140.499  0.00  0.00    +0.000 C 
ATOM     36  C   UNL     1     113.747 128.840 141.019  0.00  0.00    +0.000 C 
BRANCH  36  39
ATOM     37  O   UNL     1     113.814 131.605 141.739  0.00  0.00    +0.000 OA
ATOM     38  O   UNL     1     115.192 131.803 140.853  0.00  0.00    +0.000 OA
ATOM     39  C   UNL     1     114.108 129.582 140.978  0.00  0.00    +0.000 A 
ATOM     40  C   UNL     1     113.780 130.223 141.379  0.00  0.00    +0.000 A 
ATOM     41  C   UNL     1     114.797 129.680 140.535  0.00  0.00    +0.000 A 
ATOM     42  C   UNL     1     114.142 130.964 141.338  0.00  0.00    +0.000 A 
ATOM     43  C   UNL     1     115.158 130.420 140.493  0.00  0.00    +0.000 A 
ATOM     44  C   UNL     1     114.830 131.063 140.895  0.00  0.00    +0.000 A 
ENDBRANCH  36  39
ENDBRANCH  34  35
ENDBRANCH  32  34
ENDBRANCH   6  32
TORSDOF 7
ENDMDL
MODEL 5
REMARK VINA RESULT:     -10.5      1.651      5.817
REMARK  Name = 44257948
REMARK  7 active torsions:
REMARK  status: ('A' for Active; 'I' for Inactive)
REMARK    1  A    between atoms: O_7  and  C_23
REMARK    2  A    between atoms: O_7  and  C_31
REMARK    3  A    between atoms: C_17  and  C_20
REMARK    4  A    between atoms: C_19  and  C_21
REMARK    5  A    between atoms: C_28  and  C_30
REMARK    6  A    between atoms: C_31  and  C_34
REMARK    7  A    between atoms: C_38  and  C_39
REMARK                            x       y       z     vdW  Elec       q    Type
REMARK                         _______ _______ _______ _____ _____    ______ ____
ROOT
ATOM      1  O   UNL     1     112.167 126.684 136.782  0.00  0.00    +0.000 OA
ATOM      2  O   UNL     1     109.571 126.422 135.530  0.00  0.00    +0.000 OA
ATOM      3  O   UNL     1     110.487 125.307 135.481  0.00  0.00    +0.000 OA
ATOM      4  C   UNL     1     111.208 127.775 136.802  0.00  0.00    +0.000 A 
ATOM      5  C   UNL     1     111.398 127.004 136.573  0.00  0.00    +0.000 A 
ATOM      6  C   UNL     1     110.473 128.093 136.607  0.00  0.00    +0.000 A 
ATOM      7  C   UNL     1     110.853 126.554 136.149  0.00  0.00    +0.000 A 
ATOM      8  C   UNL     1     109.927 127.642 136.183  0.00  0.00    +0.000 A 
ATOM      9  C   UNL     1     110.117 126.873 135.954  0.00  0.00    +0.000 A 
ATOM     10  C   UNL     1     111.038 125.751 135.905  0.00  0.00    +0.000 A 
ATOM     11  C   UNL     1     112.371 125.883 136.546  0.00  0.00    +0.000 A 
ATOM     12  C   UNL     1     111.803 125.413 136.105  0.00  0.00    +0.000 A 
ENDROOT
BRANCH   4  19
ATOM     13  O   UNL     1     111.785 128.169 138.048  0.00  0.00    +0.000 OA
ATOM     14  O   UNL     1     112.237 128.788 136.004  0.00  0.00    +0.000 OA
ATOM     15  O   UNL     1     113.328 129.689 136.851  0.00  0.00    +0.000 OA
ATOM     16  O   UNL     1     113.391 129.578 138.497  0.00  0.00    +0.000 OA
ATOM     17  C   UNL     1     112.268 128.732 136.827  0.00  0.00    +0.000 C 
ATOM     18  C   UNL     1     112.814 129.183 137.251  0.00  0.00    +0.000 C 
ATOM     19  C   UNL     1     111.753 128.225 137.225  0.00  0.00    +0.000 C 
ATOM     20  C   UNL     1     112.845 129.127 138.073  0.00  0.00    +0.000 C 
ATOM     21  C   UNL     1     112.330 128.620 138.472  0.00  0.00    +0.000 C 
BRANCH  21  23
ATOM     22  O   UNL     1     112.154 127.857 139.668  0.00  0.00    +0.000 OA
ATOM     23  C   UNL     1     112.361 128.564 139.294  0.00  0.00    +0.000 C 
ENDBRANCH  21  23
ENDBRANCH   4  19
BRANCH  11  26
ATOM     24  O   UNL     1     115.154 125.558 135.982  0.00  0.00    +0.000 OA
ATOM     25  O   UNL     1     115.317 124.619 137.330  0.00  0.00    +0.000 OA
ATOM     26  C   UNL     1     113.108 125.567 136.742  0.00  0.00    +0.000 A 
ATOM     27  C   UNL     1     113.762 125.720 136.264  0.00  0.00    +0.000 A 
ATOM     28  C   UNL     1     113.189 125.097 137.415  0.00  0.00    +0.000 A 
ATOM     29  C   UNL     1     114.499 125.404 136.460  0.00  0.00    +0.000 A 
ATOM     30  C   UNL     1     113.925 124.782 137.611  0.00  0.00    +0.000 A 
ATOM     31  C   UNL     1     114.580 124.935 137.133  0.00  0.00    +0.000 A 
ENDBRANCH  11  26
BRANCH   6  32
ATOM     32  O   UNL     1     110.283 128.863 136.836  0.00  0.00    +0.000 OA
BRANCH  32  34
ATOM     33  O   UNL     1     109.011 128.752 137.479  0.00  0.00    +0.000 OA
ATOM     34  C   UNL     1     109.493 129.090 136.900  0.00  0.00    +0.000 C 
BRANCH  34  35
ATOM     35  C   UNL     1     109.183 129.656 136.385  0.00  0.00    +0.000 C 
ATOM     36  C   UNL     1     108.965 130.399 136.671  0.00  0.00    +0.000 C 
BRANCH  36  39
ATOM     37  O   UNL     1     106.714 131.739 135.530  0.00  0.00    +0.000 OA
ATOM     38  O   UNL     1     107.728 132.661 134.612  0.00  0.00    +0.000 OA
ATOM     39  C   UNL     1     108.656 130.965 136.156  0.00  0.00    +0.000 A 
ATOM     40  C   UNL     1     107.840 131.069 136.101  0.00  0.00    +0.000 A 
ATOM     41  C   UNL     1     109.163 131.425 135.698  0.00  0.00    +0.000 A 
ATOM     42  C   UNL     1     107.530 131.635 135.585  0.00  0.00    +0.000 A 
ATOM     43  C   UNL     1     108.854 131.991 135.183  0.00  0.00    +0.000 A 
ATOM     44  C   UNL     1     108.037 132.096 135.127  0.00  0.00    +0.000 A 
ENDBRANCH  36  39
ENDBRANCH  34  35
ENDBRANCH  32  34
ENDBRANCH   6  32
TORSDOF 7
ENDMDL
MODEL 6
REMARK VINA RESULT:     -10.4      1.520      2.175
REMARK  Name = 44257948
REMARK  7 active torsions:
REMARK  status: ('A' for Active; 'I' for Inactive)
REMARK    1  A    between atoms: O_7  and  C_23
REMARK    2  A    between atoms: O_7  and  C_31
REMARK    3  A    between atoms: C_17  and  C_20
REMARK    4  A    between atoms: C_19  and  C_21
REMARK    5  A    between atoms: C_28  and  C_30
REMARK    6  A    between atoms: C_31  and  C_34
REMARK    7  A    between atoms: C_38  and  C_39
REMARK                            x       y       z     vdW  Elec       q    Type
REMARK                         _______ _______ _______ _____ _____    ______ ____
ROOT
ATOM      1  O   UNL     1     111.547 130.329 137.037  0.00  0.00    +0.000 OA
ATOM      2  O   UNL     1     111.522 128.690 134.652  0.00  0.00    +0.000 OA
ATOM      3  O   UNL     1     110.668 129.851 134.711  0.00  0.00    +0.000 OA
ATOM      4  C   UNL     1     112.388 129.150 136.925  0.00  0.00    +0.000 A 
ATOM      5  C   UNL     1     111.825 129.651 136.588  0.00  0.00    +0.000 A 
ATOM      6  C   UNL     1     112.661 128.496 136.504  0.00  0.00    +0.000 A 
ATOM      7  C   UNL     1     111.536 129.498 135.831  0.00  0.00    +0.000 A 
ATOM      8  C   UNL     1     112.373 128.343 135.746  0.00  0.00    +0.000 A 
ATOM      9  C   UNL     1     111.811 128.843 135.410  0.00  0.00    +0.000 A 
ATOM     10  C   UNL     1     110.951 130.012 135.469  0.00  0.00    +0.000 A 
ATOM     11  C   UNL     1     110.961 130.855 136.692  0.00  0.00    +0.000 A 
ATOM     12  C   UNL     1     110.661 130.695 135.903  0.00  0.00    +0.000 A 
ENDROOT
BRANCH   4  19
ATOM     13  O   UNL     1     112.291 128.989 138.342  0.00  0.00    +0.000 OA
ATOM     14  O   UNL     1     113.732 130.085 137.122  0.00  0.00    +0.000 OA
ATOM     15  O   UNL     1     114.309 130.392 138.637  0.00  0.00    +0.000 OA
ATOM     16  O   UNL     1     113.541 129.764 139.956  0.00  0.00    +0.000 OA
ATOM     17  C   UNL     1     113.348 129.771 137.781  0.00  0.00    +0.000 C 
ATOM     18  C   UNL     1     113.636 129.924 138.539  0.00  0.00    +0.000 C 
ATOM     19  C   UNL     1     112.676 129.303 137.682  0.00  0.00    +0.000 C 
ATOM     20  C   UNL     1     113.252 129.610 139.197  0.00  0.00    +0.000 C 
ATOM     21  C   UNL     1     112.579 129.142 139.099  0.00  0.00    +0.000 C 
BRANCH  21  23
ATOM     22  O   UNL     1     111.820 128.094 139.706  0.00  0.00    +0.000 OA
ATOM     23  C   UNL     1     112.195 128.828 139.758  0.00  0.00    +0.000 C 
ENDBRANCH  21  23
ENDBRANCH   4  19
BRANCH  11  26
ATOM     24  O   UNL     1     109.267 131.967 138.708  0.00  0.00    +0.000 OA
ATOM     25  O   UNL     1     109.870 133.468 138.385  0.00  0.00    +0.000 OA
ATOM     26  C   UNL     1     110.688 131.509 137.115  0.00  0.00    +0.000 A 
ATOM     27  C   UNL     1     110.114 131.410 137.699  0.00  0.00    +0.000 A 
ATOM     28  C   UNL     1     110.989 132.259 136.955  0.00  0.00    +0.000 A 
ATOM     29  C   UNL     1     109.841 132.064 138.123  0.00  0.00    +0.000 A 
ATOM     30  C   UNL     1     110.717 132.912 137.378  0.00  0.00    +0.000 A 
ATOM     31  C   UNL     1     110.143 132.815 137.962  0.00  0.00    +0.000 A 
ENDBRANCH  11  26
BRANCH   6  32
ATOM     32  O   UNL     1     113.224 127.995 136.841  0.00  0.00    +0.000 OA
BRANCH  32  34
ATOM     33  O   UNL     1     114.125 127.374 135.920  0.00  0.00    +0.000 OA
ATOM     34  C   UNL     1     113.478 127.326 136.431  0.00  0.00    +0.000 C 
BRANCH  34  35
ATOM     35  C   UNL     1     113.084 126.607 136.531  0.00  0.00    +0.000 C 
ATOM     36  C   UNL     1     113.491 125.953 136.826  0.00  0.00    +0.000 C 
BRANCH  36  39
ATOM     37  O   UNL     1     111.425 124.414 138.065  0.00  0.00    +0.000 OA
ATOM     38  O   UNL     1     111.917 123.080 137.228  0.00  0.00    +0.000 OA
ATOM     39  C   UNL     1     113.097 125.234 136.927  0.00  0.00    +0.000 A 
ATOM     40  C   UNL     1     112.458 125.183 137.446  0.00  0.00    +0.000 A 
ATOM     41  C   UNL     1     113.343 124.567 136.509  0.00  0.00    +0.000 A 
ATOM     42  C   UNL     1     112.064 124.465 137.546  0.00  0.00    +0.000 A 
ATOM     43  C   UNL     1     112.950 123.849 136.609  0.00  0.00    +0.000 A 
ATOM     44  C   UNL     1     112.310 123.798 137.128  0.00  0.00    +0.000 A 
ENDBRANCH  36  39
ENDBRANCH  34  35
ENDBRANCH  32  34
ENDBRANCH   6  32
TORSDOF 7
ENDMDL
MODEL 7
REMARK VINA RESULT:     -10.4      1.676      2.440
REMARK  Name = 44257948
REMARK  7 active torsions:
REMARK  status: ('A' for Active; 'I' for Inactive)
REMARK    1  A    between atoms: O_7  and  C_23
REMARK    2  A    between atoms: O_7  and  C_31
REMARK    3  A    between atoms: C_17  and  C_20
REMARK    4  A    between atoms: C_19  and  C_21
REMARK    5  A    between atoms: C_28  and  C_30
REMARK    6  A    between atoms: C_31  and  C_34
REMARK    7  A    between atoms: C_38  and  C_39
REMARK                            x       y       z     vdW  Elec       q    Type
REMARK                         _______ _______ _______ _____ _____    ______ ____
ROOT
ATOM      1  O   UNL     1     110.924 130.364 137.776  0.00  0.00    +0.000 OA
ATOM      2  O   UNL     1     109.406 127.900 137.781  0.00  0.00    +0.000 OA
ATOM      3  O   UNL     1     108.775 129.109 137.311  0.00  0.00    +0.000 OA
ATOM      4  C   UNL     1     111.511 129.119 138.239  0.00  0.00    +0.000 A 
ATOM      5  C   UNL     1     110.859 129.522 137.932  0.00  0.00    +0.000 A 
ATOM      6  C   UNL     1     111.461 128.310 138.393  0.00  0.00    +0.000 A 
ATOM      7  C   UNL     1     110.158 129.116 137.780  0.00  0.00    +0.000 A 
ATOM      8  C   UNL     1     110.759 127.904 138.241  0.00  0.00    +0.000 A 
ATOM      9  C   UNL     1     110.108 128.307 137.934  0.00  0.00    +0.000 A 
ATOM     10  C   UNL     1     109.472 129.523 137.460  0.00  0.00    +0.000 A 
ATOM     11  C   UNL     1     110.249 130.789 137.456  0.00  0.00    +0.000 A 
ATOM     12  C   UNL     1     109.518 130.366 137.297  0.00  0.00    +0.000 A 
ENDROOT
BRANCH   4  19
ATOM     13  O   UNL     1     112.772 129.621 137.793  0.00  0.00    +0.000 OA
ATOM     14  O   UNL     1     111.795 129.739 139.742  0.00  0.00    +0.000 OA
ATOM     15  O   UNL     1     113.198 130.552 140.047  0.00  0.00    +0.000 OA
ATOM     16  O   UNL     1     114.318 130.744 138.850  0.00  0.00    +0.000 OA
ATOM     17  C   UNL     1     112.355 129.835 139.143  0.00  0.00    +0.000 C 
ATOM     18  C   UNL     1     113.056 130.242 139.295  0.00  0.00    +0.000 C 
ATOM     19  C   UNL     1     112.212 129.525 138.392  0.00  0.00    +0.000 C 
ATOM     20  C   UNL     1     113.615 130.338 138.697  0.00  0.00    +0.000 C 
ATOM     21  C   UNL     1     113.474 130.028 137.945  0.00  0.00    +0.000 C 
BRANCH  21  23
ATOM     22  O   UNL     1     113.874 129.845 136.586  0.00  0.00    +0.000 OA
ATOM     23  C   UNL     1     114.033 130.124 137.347  0.00  0.00    +0.000 C 
ENDBRANCH  21  23
ENDBRANCH   4  19
BRANCH  11  26
ATOM     24  O   UNL     1     110.086 133.495 138.362  0.00  0.00    +0.000 OA
ATOM     25  O   UNL     1     110.460 134.025 136.844  0.00  0.00    +0.000 OA
ATOM     26  C   UNL     1     110.302 131.598 137.303  0.00  0.00    +0.000 A 
ATOM     27  C   UNL     1     110.167 132.142 137.909  0.00  0.00    +0.000 A 
ATOM     28  C   UNL     1     110.489 131.864 136.545  0.00  0.00    +0.000 A 
ATOM     29  C   UNL     1     110.220 132.951 137.756  0.00  0.00    +0.000 A 
ATOM     30  C   UNL     1     110.541 132.672 136.392  0.00  0.00    +0.000 A 
ATOM     31  C   UNL     1     110.407 133.216 136.998  0.00  0.00    +0.000 A 
ENDBRANCH  11  26
BRANCH   6  32
ATOM     32  O   UNL     1     112.113 127.908 138.700  0.00  0.00    +0.000 OA
BRANCH  32  34
ATOM     33  O   UNL     1     111.705 126.691 139.331  0.00  0.00    +0.000 OA
ATOM     34  C   UNL     1     112.111 127.083 138.729  0.00  0.00    +0.000 C 
BRANCH  34  35
ATOM     35  C   UNL     1     112.517 126.650 138.154  0.00  0.00    +0.000 C 
ATOM     36  C   UNL     1     112.984 126.008 138.376  0.00  0.00    +0.000 C 
BRANCH  36  39
ATOM     37  O   UNL     1     113.058 123.866 136.486  0.00  0.00    +0.000 OA
ATOM     38  O   UNL     1     114.604 124.277 136.080  0.00  0.00    +0.000 OA
ATOM     39  C   UNL     1     113.389 125.575 137.802  0.00  0.00    +0.000 A 
ATOM     40  C   UNL     1     113.021 124.937 137.431  0.00  0.00    +0.000 A 
ATOM     41  C   UNL     1     114.161 125.780 137.599  0.00  0.00    +0.000 A 
ATOM     42  C   UNL     1     113.426 124.504 136.857  0.00  0.00    +0.000 A 
ATOM     43  C   UNL     1     114.566 125.348 137.026  0.00  0.00    +0.000 A 
ATOM     44  C   UNL     1     114.198 124.709 136.654  0.00  0.00    +0.000 A 
ENDBRANCH  36  39
ENDBRANCH  34  35
ENDBRANCH  32  34
ENDBRANCH   6  32
TORSDOF 7
ENDMDL
MODEL 8
REMARK VINA RESULT:     -10.4      1.291      5.946
REMARK  Name = 44257948
REMARK  7 active torsions:
REMARK  status: ('A' for Active; 'I' for Inactive)
REMARK    1  A    between atoms: O_7  and  C_23
REMARK    2  A    between atoms: O_7  and  C_31
REMARK    3  A    between atoms: C_17  and  C_20
REMARK    4  A    between atoms: C_19  and  C_21
REMARK    5  A    between atoms: C_28  and  C_30
REMARK    6  A    between atoms: C_31  and  C_34
REMARK    7  A    between atoms: C_38  and  C_39
REMARK                            x       y       z     vdW  Elec       q    Type
REMARK                         _______ _______ _______ _____ _____    ______ ____
ROOT
ATOM      1  O   UNL     1     110.995 126.242 136.716  0.00  0.00    +0.000 OA
ATOM      2  O   UNL     1     108.915 127.002 134.853  0.00  0.00    +0.000 OA
ATOM      3  O   UNL     1     109.660 125.791 134.612  0.00  0.00    +0.000 OA
ATOM      4  C   UNL     1     110.215 127.451 136.911  0.00  0.00    +0.000 A 
ATOM      5  C   UNL     1     110.375 126.779 136.460  0.00  0.00    +0.000 A 
ATOM      6  C   UNL     1     109.622 127.974 136.676  0.00  0.00    +0.000 A 
ATOM      7  C   UNL     1     109.942 126.629 135.774  0.00  0.00    +0.000 A 
ATOM      8  C   UNL     1     109.188 127.824 135.990  0.00  0.00    +0.000 A 
ATOM      9  C   UNL     1     109.348 127.152 135.540  0.00  0.00    +0.000 A 
ATOM     10  C   UNL     1     110.098 125.933 135.297  0.00  0.00    +0.000 A 
ATOM     11  C   UNL     1     111.167 125.540 136.251  0.00  0.00    +0.000 A 
ATOM     12  C   UNL     1     110.715 125.384 135.537  0.00  0.00    +0.000 A 
ENDROOT
BRANCH   4  19
ATOM     13  O   UNL     1     111.365 128.007 137.551  0.00  0.00    +0.000 OA
ATOM     14  O   UNL     1     109.648 126.938 138.373  0.00  0.00    +0.000 OA
ATOM     15  O   UNL     1     110.514 127.238 139.745  0.00  0.00    +0.000 OA
ATOM     16  O   UNL     1     111.948 128.050 139.655  0.00  0.00    +0.000 OA
ATOM     17  C   UNL     1     110.365 127.345 138.328  0.00  0.00    +0.000 C 
ATOM     18  C   UNL     1     110.798 127.494 139.014  0.00  0.00    +0.000 C 
ATOM     19  C   UNL     1     110.648 127.601 137.596  0.00  0.00    +0.000 C 
ATOM     20  C   UNL     1     111.514 127.900 138.968  0.00  0.00    +0.000 C 
ATOM     21  C   UNL     1     111.799 128.157 138.237  0.00  0.00    +0.000 C 
BRANCH  21  23
ATOM     22  O   UNL     1     112.714 128.972 137.503  0.00  0.00    +0.000 OA
ATOM     23  C   UNL     1     112.515 128.563 138.192  0.00  0.00    +0.000 C 
ENDBRANCH  21  23
ENDBRANCH   4  19
BRANCH  11  26
ATOM     24  O   UNL     1     113.916 124.758 136.257  0.00  0.00    +0.000 OA
ATOM     25  O   UNL     1     113.543 123.456 137.201  0.00  0.00    +0.000 OA
ATOM     26  C   UNL     1     111.760 125.019 136.489  0.00  0.00    +0.000 A 
ATOM     27  C   UNL     1     112.541 125.149 136.254  0.00  0.00    +0.000 A 
ATOM     28  C   UNL     1     111.575 124.368 136.960  0.00  0.00    +0.000 A 
ATOM     29  C   UNL     1     113.135 124.628 136.491  0.00  0.00    +0.000 A 
ATOM     30  C   UNL     1     112.168 123.848 137.197  0.00  0.00    +0.000 A 
ATOM     31  C   UNL     1     112.949 123.977 136.963  0.00  0.00    +0.000 A 
ENDBRANCH  11  26
BRANCH   6  32
ATOM     32  O   UNL     1     109.462 128.647 137.127  0.00  0.00    +0.000 OA
BRANCH  32  34
ATOM     33  O   UNL     1     108.224 129.132 136.603  0.00  0.00    +0.000 OA
ATOM     34  C   UNL     1     109.013 129.260 136.806  0.00  0.00    +0.000 C 
BRANCH  34  35
ATOM     35  C   UNL     1     109.355 130.003 136.688  0.00  0.00    +0.000 C 
ATOM     36  C   UNL     1     109.071 130.657 137.103  0.00  0.00    +0.000 C 
BRANCH  36  39
ATOM     37  O   UNL     1     110.475 132.925 138.128  0.00  0.00    +0.000 OA
ATOM     38  O   UNL     1     110.436 133.624 136.634  0.00  0.00    +0.000 OA
ATOM     39  C   UNL     1     109.412 131.399 136.985  0.00  0.00    +0.000 A 
ATOM     40  C   UNL     1     109.773 131.791 137.615  0.00  0.00    +0.000 A 
ATOM     41  C   UNL     1     109.393 131.748 136.239  0.00  0.00    +0.000 A 
ATOM     42  C   UNL     1     110.114 132.533 137.498  0.00  0.00    +0.000 A 
ATOM     43  C   UNL     1     109.734 132.490 136.121  0.00  0.00    +0.000 A 
ATOM     44  C   UNL     1     110.095 132.882 136.752  0.00  0.00    +0.000 A 
ENDBRANCH  36  39
ENDBRANCH  34  35
ENDBRANCH  32  34
ENDBRANCH   6  32
TORSDOF 7
ENDMDL
MODEL 9
REMARK VINA RESULT:     -10.3      1.513      2.203
REMARK  Name = 44257948
REMARK  7 active torsions:
REMARK  status: ('A' for Active; 'I' for Inactive)
REMARK    1  A    between atoms: O_7  and  C_23
REMARK    2  A    between atoms: O_7  and  C_31
REMARK    3  A    between atoms: C_17  and  C_20
REMARK    4  A    between atoms: C_19  and  C_21
REMARK    5  A    between atoms: C_28  and  C_30
REMARK    6  A    between atoms: C_31  and  C_34
REMARK    7  A    between atoms: C_38  and  C_39
REMARK                            x       y       z     vdW  Elec       q    Type
REMARK                         _______ _______ _______ _____ _____    ______ ____
ROOT
ATOM      1  O   UNL     1     110.370 129.846 137.127  0.00  0.00    +0.000 OA
ATOM      2  O   UNL     1     110.256 128.346 134.654  0.00  0.00    +0.000 OA
ATOM      3  O   UNL     1     110.076 129.777 134.613  0.00  0.00    +0.000 OA
ATOM      4  C   UNL     1     110.544 128.404 137.112  0.00  0.00    +0.000 A 
ATOM      5  C   UNL     1     110.409 129.104 136.696  0.00  0.00    +0.000 A 
ATOM      6  C   UNL     1     110.584 127.686 136.709  0.00  0.00    +0.000 A 
ATOM      7  C   UNL     1     110.313 129.085 135.876  0.00  0.00    +0.000 A 
ATOM      8  C   UNL     1     110.487 127.667 135.890  0.00  0.00    +0.000 A 
ATOM      9  C   UNL     1     110.352 128.365 135.474  0.00  0.00    +0.000 A 
ATOM     10  C   UNL     1     110.171 129.806 135.432  0.00  0.00    +0.000 A 
ATOM     11  C   UNL     1     110.229 130.578 136.699  0.00  0.00    +0.000 A 
ATOM     12  C   UNL     1     110.129 130.558 135.846  0.00  0.00    +0.000 A 
ENDROOT
BRANCH   4  19
ATOM     13  O   UNL     1     111.388 128.558 138.256  0.00  0.00    +0.000 OA
ATOM     14  O   UNL     1     109.244 128.175 138.100  0.00  0.00    +0.000 OA
ATOM     15  O   UNL     1     109.436 128.214 139.739  0.00  0.00    +0.000 OA
ATOM     16  O   UNL     1     110.929 128.482 140.389  0.00  0.00    +0.000 OA
ATOM     17  C   UNL     1     109.991 128.309 138.425  0.00  0.00    +0.000 C 
ATOM     18  C   UNL     1     110.087 128.329 139.245  0.00  0.00    +0.000 C 
ATOM     19  C   UNL     1     110.641 128.424 137.930  0.00  0.00    +0.000 C 
ATOM     20  C   UNL     1     110.833 128.463 139.569  0.00  0.00    +0.000 C 
ATOM     21  C   UNL     1     111.484 128.578 139.075  0.00  0.00    +0.000 C 
BRANCH  21  23
ATOM     22  O   UNL     1     112.841 128.999 138.923  0.00  0.00    +0.000 OA
ATOM     23  C   UNL     1     112.230 128.712 139.399  0.00  0.00    +0.000 C 
ENDBRANCH  21  23
ENDBRANCH   4  19
BRANCH  11  26
ATOM     24  O   UNL     1     108.723 132.510 138.171  0.00  0.00    +0.000 OA
ATOM     25  O   UNL     1     110.073 133.448 138.321  0.00  0.00    +0.000 OA
ATOM     26  C   UNL     1     110.190 131.296 137.104  0.00  0.00    +0.000 A 
ATOM     27  C   UNL     1     109.476 131.544 137.435  0.00  0.00    +0.000 A 
ATOM     28  C   UNL     1     110.865 131.765 137.179  0.00  0.00    +0.000 A 
ATOM     29  C   UNL     1     109.437 132.261 137.841  0.00  0.00    +0.000 A 
ATOM     30  C   UNL     1     110.825 132.481 137.585  0.00  0.00    +0.000 A 
ATOM     31  C   UNL     1     110.112 132.730 137.915  0.00  0.00    +0.000 A 
ENDBRANCH  11  26
BRANCH   6  32
ATOM     32  O   UNL     1     110.719 126.986 137.126  0.00  0.00    +0.000 OA
BRANCH  32  34
ATOM     33  O   UNL     1     110.445 125.847 136.307  0.00  0.00    +0.000 OA
ATOM     34  C   UNL     1     110.981 126.314 136.726  0.00  0.00    +0.000 C 
BRANCH  34  35
ATOM     35  C   UNL     1     111.780 126.107 136.747  0.00  0.00    +0.000 C 
ATOM     36  C   UNL     1     112.018 125.419 137.135  0.00  0.00    +0.000 C 
BRANCH  36  39
ATOM     37  O   UNL     1     114.584 125.579 138.383  0.00  0.00    +0.000 OA
ATOM     38  O   UNL     1     115.212 124.595 137.217  0.00  0.00    +0.000 OA
ATOM     39  C   UNL     1     112.817 125.213 137.156  0.00  0.00    +0.000 A 
ATOM     40  C   UNL     1     113.301 125.499 137.759  0.00  0.00    +0.000 A 
ATOM     41  C   UNL     1     113.131 124.721 136.574  0.00  0.00    +0.000 A 
ATOM     42  C   UNL     1     114.100 125.293 137.779  0.00  0.00    +0.000 A 
ATOM     43  C   UNL     1     113.929 124.515 136.594  0.00  0.00    +0.000 A 
ATOM     44  C   UNL     1     114.414 124.801 137.197  0.00  0.00    +0.000 A 
ENDBRANCH  36  39
ENDBRANCH  34  35
ENDBRANCH  32  34
ENDBRANCH   6  32
TORSDOF 7
ENDMDL
MODEL 10
REMARK VINA RESULT:     -10.3      1.627      3.185
REMARK  Name = 44257948
REMARK  7 active torsions:
REMARK  status: ('A' for Active; 'I' for Inactive)
REMARK    1  A    between atoms: O_7  and  C_23
REMARK    2  A    between atoms: O_7  and  C_31
REMARK    3  A    between atoms: C_17  and  C_20
REMARK    4  A    between atoms: C_19  and  C_21
REMARK    5  A    between atoms: C_28  and  C_30
REMARK    6  A    between atoms: C_31  and  C_34
REMARK    7  A    between atoms: C_38  and  C_39
REMARK                            x       y       z     vdW  Elec       q    Type
REMARK                         _______ _______ _______ _____ _____    ______ ____
ROOT
ATOM      1  O   UNL     1     109.960 129.897 136.855  0.00  0.00    +0.000 OA
ATOM      2  O   UNL     1     111.751 130.234 139.104  0.00  0.00    +0.000 OA
ATOM      3  O   UNL     1     111.086 131.394 138.559  0.00  0.00    +0.000 OA
ATOM      4  C   UNL     1     110.654 128.764 137.441  0.00  0.00    +0.000 A 
ATOM      5  C   UNL     1     110.501 129.576 137.439  0.00  0.00    +0.000 A 
ATOM      6  C   UNL     1     111.172 128.444 137.998  0.00  0.00    +0.000 A 
ATOM      7  C   UNL     1     110.867 130.065 137.993  0.00  0.00    +0.000 A 
ATOM      8  C   UNL     1     111.537 128.934 138.552  0.00  0.00    +0.000 A 
ATOM      9  C   UNL     1     111.385 129.744 138.549  0.00  0.00    +0.000 A 
ATOM     10  C   UNL     1     110.716 130.911 138.002  0.00  0.00    +0.000 A 
ATOM     11  C   UNL     1     109.797 130.741 136.848  0.00  0.00    +0.000 A 
ATOM     12  C   UNL     1     110.177 131.252 137.425  0.00  0.00    +0.000 A 
ENDROOT
BRANCH   4  19
ATOM     13  O   UNL     1     110.622 128.177 136.139  0.00  0.00    +0.000 OA
ATOM     14  O   UNL     1     109.256 127.979 137.830  0.00  0.00    +0.000 OA
ATOM     15  O   UNL     1     108.525 127.000 136.722  0.00  0.00    +0.000 OA
ATOM     16  O   UNL     1     109.192 126.804 135.225  0.00  0.00    +0.000 OA
ATOM     17  C   UNL     1     109.590 127.882 137.081  0.00  0.00    +0.000 C 
ATOM     18  C   UNL     1     109.224 127.392 136.527  0.00  0.00    +0.000 C 
ATOM     19  C   UNL     1     110.289 128.275 136.888  0.00  0.00    +0.000 C 
ATOM     20  C   UNL     1     109.558 127.295 135.780  0.00  0.00    +0.000 C 
ATOM     21  C   UNL     1     110.257 127.687 135.585  0.00  0.00    +0.000 C 
BRANCH  21  23
ATOM     22  O   UNL     1     111.366 127.836 134.696  0.00  0.00    +0.000 OA
ATOM     23  C   UNL     1     110.590 127.590 134.837  0.00  0.00    +0.000 C 
ENDBRANCH  21  23
ENDBRANCH   4  19
BRANCH  11  26
ATOM     24  O   UNL     1     107.148 131.485 136.074  0.00  0.00    +0.000 OA
ATOM     25  O   UNL     1     107.722 132.014 134.620  0.00  0.00    +0.000 OA
ATOM     26  C   UNL     1     109.278 131.060 136.291  0.00  0.00    +0.000 A 
ATOM     27  C   UNL     1     108.473 131.113 136.461  0.00  0.00    +0.000 A 
ATOM     28  C   UNL     1     109.564 131.324 135.564  0.00  0.00    +0.000 A 
ATOM     29  C   UNL     1     107.953 131.431 135.904  0.00  0.00    +0.000 A 
ATOM     30  C   UNL     1     109.046 131.642 135.008  0.00  0.00    +0.000 A 
ATOM     31  C   UNL     1     108.240 131.696 135.177  0.00  0.00    +0.000 A 
ENDBRANCH  11  26
BRANCH   6  32
ATOM     32  O   UNL     1     111.324 127.632 138.000  0.00  0.00    +0.000 OA
BRANCH  32  34
ATOM     33  O   UNL     1     111.865 127.430 139.307  0.00  0.00    +0.000 OA
ATOM     34  C   UNL     1     111.912 127.325 138.490  0.00  0.00    +0.000 C 
BRANCH  34  35
ATOM     35  C   UNL     1     112.548 126.912 138.162  0.00  0.00    +0.000 C 
ATOM     36  C   UNL     1     112.555 126.088 138.176  0.00  0.00    +0.000 C 
BRANCH  36  39
ATOM     37  O   UNL     1     113.578 124.244 136.247  0.00  0.00    +0.000 OA
ATOM     38  O   UNL     1     115.095 124.438 136.867  0.00  0.00    +0.000 OA
ATOM     39  C   UNL     1     113.190 125.675 137.849  0.00  0.00    +0.000 A 
ATOM     40  C   UNL     1     113.066 125.166 137.212  0.00  0.00    +0.000 A 
ATOM     41  C   UNL     1     113.948 125.772 138.158  0.00  0.00    +0.000 A 
ATOM     42  C   UNL     1     113.702 124.753 136.884  0.00  0.00    +0.000 A 
ATOM     43  C   UNL     1     114.583 125.360 137.831  0.00  0.00    +0.000 A 
ATOM     44  C   UNL     1     114.460 124.850 137.194  0.00  0.00    +0.000 A 
ENDBRANCH  36  39
ENDBRANCH  34  35
ENDBRANCH  32  34
ENDBRANCH   6  32
TORSDOF 7
ENDMDL
