MODEL 1
REMARK VINA RESULT:      -9.0      0.000      0.000
REMARK  Name = 
REMARK  7 active torsions:
REMARK  status: ('A' for Active; 'I' for Inactive)
REMARK    1  A    between atoms: C_9  and  C_15
REMARK    2  A    between atoms: C_10  and  C_17
REMARK    3  A    between atoms: C_14  and  C_17
REMARK    4  A    between atoms: C_18  and  O_35
REMARK    5  A    between atoms: C_23  and  O_34
REMARK    6  A    between atoms: C_24  and  C_25
REMARK    7  A    between atoms: C_26  and  O_35
REMARK                            x       y       z     vdW  Elec       q    Type
REMARK                         _______ _______ _______ _____ _____    ______ ____
ROOT
ATOM      1  C   UNL     1     110.814 132.831 136.932  0.00  0.00    +0.000 C 
ATOM      2  C   UNL     1     110.066 132.502 136.353  0.00  0.00    +0.000 C 
ATOM      3  C   UNL     1     110.208 130.170 136.872  0.00  0.00    +0.000 C 
ATOM      4  C   UNL     1     110.033 131.107 136.564  0.00  0.00    +0.000 C 
ATOM      5  C   UNL     1     112.231 130.553 138.523  0.00  0.00    +0.000 A 
ATOM      6  C   UNL     1     111.845 128.874 138.482  0.00  0.00    +0.000 A 
ATOM      7  C   UNL     1     110.943 129.985 137.527  0.00  0.00    +0.000 A 
ATOM      8  C   UNL     1     112.402 129.621 138.827  0.00  0.00    +0.000 A 
ATOM      9  C   UNL     1     111.500 130.734 137.872  0.00  0.00    +0.000 A 
ATOM     10  C   UNL     1     111.114 129.053 137.831  0.00  0.00    +0.000 A 
ATOM     11  C   UNL     1     110.591 131.854 136.909  0.00  0.00    +0.000 C 
ATOM     12  O   UNL     1     111.326 131.671 137.564  0.00  0.00    +0.000 OA
ENDROOT
BRANCH  10  14
ATOM     13  C   UNL     1     109.689 128.074 137.925  0.00  0.00    +0.000 C 
ATOM     14  O   UNL     1     110.553 128.299 137.484  0.00  0.00    +0.000 OA
ENDBRANCH  10  14
BRANCH   6  15
ATOM     15  C   UNL     1     112.019 127.935 138.790  0.00  0.00    +0.000 C 
ATOM     16  C   UNL     1     112.673 127.360 138.296  0.00  0.00    +0.000 C 
BRANCH  16  17
ATOM     17  C   UNL     1     112.846 126.423 138.604  0.00  0.00    +0.000 C 
ATOM     18  O   UNL     1     112.617 126.151 139.541  0.00  0.00    +0.000 OA
BRANCH  17  24
ATOM     19  C   UNL     1     114.056 124.424 136.717  0.00  0.00    +0.000 A 
ATOM     20  C   UNL     1     114.643 124.938 137.345  0.00  0.00    +0.000 A 
ATOM     21  C   UNL     1     113.066 124.575 136.718  0.00  0.00    +0.000 A 
ATOM     22  C   UNL     1     114.239 125.605 137.974  0.00  0.00    +0.000 A 
ATOM     23  C   UNL     1     112.663 125.242 137.347  0.00  0.00    +0.000 A 
ATOM     24  C   UNL     1     113.249 125.756 137.975  0.00  0.00    +0.000 A 
ENDBRANCH  17  24
ENDBRANCH  16  17
ENDBRANCH   6  15
BRANCH   8  25
ATOM     25  O   UNL     1     113.137 129.437 139.482  0.00  0.00    +0.000 OA
BRANCH  25  30
ATOM     26  C   UNL     1     114.265 131.019 141.282  0.00  0.00    +0.000 C 
ATOM     27  C   UNL     1     113.486 131.207 141.883  0.00  0.00    +0.000 C 
ATOM     28  C   UNL     1     114.149 130.429 140.482  0.00  0.00    +0.000 C 
ATOM     29  C   UNL     1     112.591 130.806 141.683  0.00  0.00    +0.000 C 
ATOM     30  C   UNL     1     113.253 130.027 140.283  0.00  0.00    +0.000 C 
ATOM     31  O   UNL     1     115.161 131.421 141.483  0.00  0.00    +0.000 OA
ATOM     32  O   UNL     1     113.602 131.798 142.683  0.00  0.00    +0.000 OA
ATOM     33  O   UNL     1     114.929 130.240 139.882  0.00  0.00    +0.000 OA
ATOM     34  O   UNL     1     112.474 130.216 140.883  0.00  0.00    +0.000 OA
BRANCH  29  35
ATOM     35  C   UNL     1     111.817 130.996 142.282  0.00  0.00    +0.000 C 
ATOM     36  O   UNL     1     111.219 131.767 142.084  0.00  0.00    +0.000 OA
ATOM     37  O   UNL     1     111.643 130.415 143.078  0.00  0.00    +0.000 OA
ENDBRANCH  29  35
ENDBRANCH  25  30
ENDBRANCH   8  25
TORSDOF 7
ENDMDL
MODEL 2
REMARK VINA RESULT:      -8.9      2.256      5.475
REMARK  Name = 
REMARK  7 active torsions:
REMARK  status: ('A' for Active; 'I' for Inactive)
REMARK    1  A    between atoms: C_9  and  C_15
REMARK    2  A    between atoms: C_10  and  C_17
REMARK    3  A    between atoms: C_14  and  C_17
REMARK    4  A    between atoms: C_18  and  O_35
REMARK    5  A    between atoms: C_23  and  O_34
REMARK    6  A    between atoms: C_24  and  C_25
REMARK    7  A    between atoms: C_26  and  O_35
REMARK                            x       y       z     vdW  Elec       q    Type
REMARK                         _______ _______ _______ _____ _____    ______ ____
ROOT
ATOM      1  C   UNL     1     114.494 125.468 137.986  0.00  0.00    +0.000 C 
ATOM      2  C   UNL     1     114.519 124.901 137.161  0.00  0.00    +0.000 C 
ATOM      3  C   UNL     1     112.471 125.631 136.160  0.00  0.00    +0.000 C 
ATOM      4  C   UNL     1     113.342 125.235 136.458  0.00  0.00    +0.000 C 
ATOM      5  C   UNL     1     111.972 127.297 138.147  0.00  0.00    +0.000 A 
ATOM      6  C   UNL     1     110.697 127.396 136.991  0.00  0.00    +0.000 A 
ATOM      7  C   UNL     1     112.014 126.320 136.725  0.00  0.00    +0.000 A 
ATOM      8  C   UNL     1     111.107 127.688 137.848  0.00  0.00    +0.000 A 
ATOM      9  C   UNL     1     112.425 126.612 137.583  0.00  0.00    +0.000 A 
ATOM     10  C   UNL     1     111.148 126.712 136.427  0.00  0.00    +0.000 A 
ATOM     11  C   UNL     1     113.752 125.527 137.315  0.00  0.00    +0.000 C 
ATOM     12  O   UNL     1     113.296 126.216 137.881  0.00  0.00    +0.000 OA
ENDROOT
BRANCH  10  14
ATOM     13  C   UNL     1     110.285 125.531 135.499  0.00  0.00    +0.000 C 
ATOM     14  O   UNL     1     110.734 126.418 135.563  0.00  0.00    +0.000 OA
ENDBRANCH  10  14
BRANCH   6  15
ATOM     15  C   UNL     1     109.825 127.792 136.692  0.00  0.00    +0.000 C 
ATOM     16  C   UNL     1     109.814 128.665 136.204  0.00  0.00    +0.000 C 
BRANCH  16  17
ATOM     17  C   UNL     1     108.943 129.061 135.906  0.00  0.00    +0.000 C 
ATOM     18  O   UNL     1     108.131 128.479 135.820  0.00  0.00    +0.000 OA
BRANCH  17  24
ATOM     19  C   UNL     1     108.764 131.991 135.271  0.00  0.00    +0.000 A 
ATOM     20  C   UNL     1     108.407 131.645 136.141  0.00  0.00    +0.000 A 
ATOM     21  C   UNL     1     109.180 131.360 134.613  0.00  0.00    +0.000 A 
ATOM     22  C   UNL     1     108.467 130.667 136.352  0.00  0.00    +0.000 A 
ATOM     23  C   UNL     1     109.240 130.384 134.825  0.00  0.00    +0.000 A 
ATOM     24  C   UNL     1     108.883 130.037 135.694  0.00  0.00    +0.000 A 
ENDBRANCH  17  24
ENDBRANCH  16  17
ENDBRANCH   6  15
BRANCH   8  25
ATOM     25  O   UNL     1     110.650 128.377 138.413  0.00  0.00    +0.000 OA
BRANCH  25  30
ATOM     26  C   UNL     1     110.878 128.939 140.992  0.00  0.00    +0.000 C 
ATOM     27  C   UNL     1     110.593 128.070 141.400  0.00  0.00    +0.000 C 
ATOM     28  C   UNL     1     110.897 129.041 139.996  0.00  0.00    +0.000 C 
ATOM     29  C   UNL     1     110.327 127.303 140.813  0.00  0.00    +0.000 C 
ATOM     30  C   UNL     1     110.631 128.274 139.409  0.00  0.00    +0.000 C 
ATOM     31  O   UNL     1     111.144 129.706 141.580  0.00  0.00    +0.000 OA
ATOM     32  O   UNL     1     110.574 127.967 142.396  0.00  0.00    +0.000 OA
ATOM     33  O   UNL     1     111.182 129.910 139.588  0.00  0.00    +0.000 OA
ATOM     34  O   UNL     1     110.346 127.405 139.818  0.00  0.00    +0.000 OA
BRANCH  29  35
ATOM     35  C   UNL     1     110.044 126.440 141.223  0.00  0.00    +0.000 C 
ATOM     36  O   UNL     1     110.694 125.688 141.285  0.00  0.00    +0.000 OA
ATOM     37  O   UNL     1     109.112 126.330 141.569  0.00  0.00    +0.000 OA
ENDBRANCH  29  35
ENDBRANCH  25  30
ENDBRANCH   8  25
TORSDOF 7
ENDMDL
MODEL 3
REMARK VINA RESULT:      -8.9      1.451      2.221
REMARK  Name = 
REMARK  7 active torsions:
REMARK  status: ('A' for Active; 'I' for Inactive)
REMARK    1  A    between atoms: C_9  and  C_15
REMARK    2  A    between atoms: C_10  and  C_17
REMARK    3  A    between atoms: C_14  and  C_17
REMARK    4  A    between atoms: C_18  and  O_35
REMARK    5  A    between atoms: C_23  and  O_34
REMARK    6  A    between atoms: C_24  and  C_25
REMARK    7  A    between atoms: C_26  and  O_35
REMARK                            x       y       z     vdW  Elec       q    Type
REMARK                         _______ _______ _______ _____ _____    ______ ____
ROOT
ATOM      1  C   UNL     1     109.973 132.641 137.976  0.00  0.00    +0.000 C 
ATOM      2  C   UNL     1     110.470 132.870 137.136  0.00  0.00    +0.000 C 
ATOM      3  C   UNL     1     112.109 131.127 137.201  0.00  0.00    +0.000 C 
ATOM      4  C   UNL     1     111.490 131.900 137.045  0.00  0.00    +0.000 C 
ATOM      5  C   UNL     1     111.132 130.149 139.450  0.00  0.00    +0.000 A 
ATOM      6  C   UNL     1     112.481 129.195 138.957  0.00  0.00    +0.000 A 
ATOM      7  C   UNL     1     111.988 130.542 138.005  0.00  0.00    +0.000 A 
ATOM      8  C   UNL     1     111.748 129.382 139.602  0.00  0.00    +0.000 A 
ATOM      9  C   UNL     1     111.254 130.729 138.649  0.00  0.00    +0.000 A 
ATOM     10  C   UNL     1     112.604 129.775 138.157  0.00  0.00    +0.000 A 
ATOM     11  C   UNL     1     110.757 132.086 137.690  0.00  0.00    +0.000 C 
ATOM     12  O   UNL     1     110.636 131.502 138.494  0.00  0.00    +0.000 OA
ENDROOT
BRANCH  10  14
ATOM     13  C   UNL     1     114.174 130.136 137.522  0.00  0.00    +0.000 C 
ATOM     14  O   UNL     1     113.343 129.586 137.508  0.00  0.00    +0.000 OA
ENDBRANCH  10  14
BRANCH   6  15
ATOM     15  C   UNL     1     113.100 128.422 139.112  0.00  0.00    +0.000 C 
ATOM     16  C   UNL     1     112.844 127.506 138.800  0.00  0.00    +0.000 C 
BRANCH  16  17
ATOM     17  C   UNL     1     113.463 126.734 138.955  0.00  0.00    +0.000 C 
ATOM     18  O   UNL     1     114.022 126.697 139.785  0.00  0.00    +0.000 OA
BRANCH  17  24
ATOM     19  C   UNL     1     113.640 124.524 136.928  0.00  0.00    +0.000 A 
ATOM     20  C   UNL     1     112.744 124.870 137.215  0.00  0.00    +0.000 A 
ATOM     21  C   UNL     1     114.477 124.914 137.317  0.00  0.00    +0.000 A 
ATOM     22  C   UNL     1     112.685 125.607 137.891  0.00  0.00    +0.000 A 
ATOM     23  C   UNL     1     114.417 125.651 137.993  0.00  0.00    +0.000 A 
ATOM     24  C   UNL     1     113.522 125.997 138.280  0.00  0.00    +0.000 A 
ENDBRANCH  17  24
ENDBRANCH  16  17
ENDBRANCH   6  15
BRANCH   8  25
ATOM     25  O   UNL     1     111.627 128.797 140.405  0.00  0.00    +0.000 OA
BRANCH  25  30
ATOM     26  C   UNL     1     111.528 129.021 143.043  0.00  0.00    +0.000 C 
ATOM     27  C   UNL     1     111.784 129.982 143.160  0.00  0.00    +0.000 C 
ATOM     28  C   UNL     1     111.476 128.626 142.125  0.00  0.00    +0.000 C 
ATOM     29  C   UNL     1     111.987 130.548 142.360  0.00  0.00    +0.000 C 
ATOM     30  C   UNL     1     111.680 129.193 141.324  0.00  0.00    +0.000 C 
ATOM     31  O   UNL     1     111.325 128.455 143.845  0.00  0.00    +0.000 OA
ATOM     32  O   UNL     1     111.836 130.378 144.079  0.00  0.00    +0.000 OA
ATOM     33  O   UNL     1     111.220 127.664 142.008  0.00  0.00    +0.000 OA
ATOM     34  O   UNL     1     111.935 130.154 141.442  0.00  0.00    +0.000 OA
BRANCH  29  35
ATOM     35  C   UNL     1     112.241 131.504 142.480  0.00  0.00    +0.000 C 
ATOM     36  O   UNL     1     111.531 132.202 142.517  0.00  0.00    +0.000 OA
ATOM     37  O   UNL     1     113.205 131.762 142.564  0.00  0.00    +0.000 OA
ENDBRANCH  29  35
ENDBRANCH  25  30
ENDBRANCH   8  25
TORSDOF 7
ENDMDL
MODEL 4
REMARK VINA RESULT:      -8.8      2.060      5.523
REMARK  Name = 
REMARK  7 active torsions:
REMARK  status: ('A' for Active; 'I' for Inactive)
REMARK    1  A    between atoms: C_9  and  C_15
REMARK    2  A    between atoms: C_10  and  C_17
REMARK    3  A    between atoms: C_14  and  C_17
REMARK    4  A    between atoms: C_18  and  O_35
REMARK    5  A    between atoms: C_23  and  O_34
REMARK    6  A    between atoms: C_24  and  C_25
REMARK    7  A    between atoms: C_26  and  O_35
REMARK                            x       y       z     vdW  Elec       q    Type
REMARK                         _______ _______ _______ _____ _____    ______ ____
ROOT
ATOM      1  C   UNL     1     114.019 124.721 136.925  0.00  0.00    +0.000 C 
ATOM      2  C   UNL     1     113.413 123.924 136.883  0.00  0.00    +0.000 C 
ATOM      3  C   UNL     1     111.387 125.043 136.275  0.00  0.00    +0.000 C 
ATOM      4  C   UNL     1     112.153 124.447 136.526  0.00  0.00    +0.000 C 
ATOM      5  C   UNL     1     112.571 127.402 136.258  0.00  0.00    +0.000 A 
ATOM      6  C   UNL     1     110.908 127.600 135.848  0.00  0.00    +0.000 A 
ATOM      7  C   UNL     1     111.528 126.031 136.186  0.00  0.00    +0.000 A 
ATOM      8  C   UNL     1     111.808 127.991 136.009  0.00  0.00    +0.000 A 
ATOM      9  C   UNL     1     112.429 126.420 136.346  0.00  0.00    +0.000 A 
ATOM     10  C   UNL     1     110.765 126.620 135.936  0.00  0.00    +0.000 A 
ATOM     11  C   UNL     1     113.053 124.838 136.686  0.00  0.00    +0.000 C 
ATOM     12  O   UNL     1     113.194 125.825 136.597  0.00  0.00    +0.000 OA
ENDROOT
BRANCH  10  14
ATOM     13  C   UNL     1     109.639 125.818 134.894  0.00  0.00    +0.000 C 
ATOM     14  O   UNL     1     109.857 126.227 135.775  0.00  0.00    +0.000 OA
ENDBRANCH  10  14
BRANCH   6  15
ATOM     15  C   UNL     1     110.142 128.196 135.597  0.00  0.00    +0.000 C 
ATOM     16  C   UNL     1     109.579 128.615 136.311  0.00  0.00    +0.000 C 
BRANCH  16  17
ATOM     17  C   UNL     1     108.813 129.209 136.060  0.00  0.00    +0.000 C 
ATOM     18  O   UNL     1     107.987 128.818 135.649  0.00  0.00    +0.000 OA
BRANCH  17  24
ATOM     19  C   UNL     1     108.992 132.169 136.539  0.00  0.00    +0.000 A 
ATOM     20  C   UNL     1     108.968 131.814 135.602  0.00  0.00    +0.000 A 
ATOM     21  C   UNL     1     108.957 131.538 137.316  0.00  0.00    +0.000 A 
ATOM     22  C   UNL     1     108.908 130.827 135.443  0.00  0.00    +0.000 A 
ATOM     23  C   UNL     1     108.897 130.551 137.156  0.00  0.00    +0.000 A 
ATOM     24  C   UNL     1     108.873 130.196 136.220  0.00  0.00    +0.000 A 
ENDBRANCH  17  24
ENDBRANCH  16  17
ENDBRANCH   6  15
BRANCH   8  25
ATOM     25  O   UNL     1     111.949 128.978 135.919  0.00  0.00    +0.000 OA
BRANCH  25  30
ATOM     26  C   UNL     1     113.865 130.454 137.000  0.00  0.00    +0.000 C 
ATOM     27  C   UNL     1     113.586 130.451 137.962  0.00  0.00    +0.000 C 
ATOM     28  C   UNL     1     113.320 129.963 136.319  0.00  0.00    +0.000 C 
ATOM     29  C   UNL     1     112.761 129.958 138.243  0.00  0.00    +0.000 C 
ATOM     30  C   UNL     1     112.495 129.469 136.601  0.00  0.00    +0.000 C 
ATOM     31  O   UNL     1     114.691 130.948 136.719  0.00  0.00    +0.000 OA
ATOM     32  O   UNL     1     114.131 130.943 138.643  0.00  0.00    +0.000 OA
ATOM     33  O   UNL     1     113.599 129.966 135.357  0.00  0.00    +0.000 OA
ATOM     34  O   UNL     1     112.216 129.467 137.562  0.00  0.00    +0.000 OA
BRANCH  29  35
ATOM     35  C   UNL     1     112.486 129.957 139.200  0.00  0.00    +0.000 C 
ATOM     36  O   UNL     1     112.744 129.194 139.786  0.00  0.00    +0.000 OA
ATOM     37  O   UNL     1     111.953 130.719 139.571  0.00  0.00    +0.000 OA
ENDBRANCH  29  35
ENDBRANCH  25  30
ENDBRANCH   8  25
TORSDOF 7
ENDMDL
MODEL 5
REMARK VINA RESULT:      -8.7      6.815      9.040
REMARK  Name = 
REMARK  7 active torsions:
REMARK  status: ('A' for Active; 'I' for Inactive)
REMARK    1  A    between atoms: C_9  and  C_15
REMARK    2  A    between atoms: C_10  and  C_17
REMARK    3  A    between atoms: C_14  and  C_17
REMARK    4  A    between atoms: C_18  and  O_35
REMARK    5  A    between atoms: C_23  and  O_34
REMARK    6  A    between atoms: C_24  and  C_25
REMARK    7  A    between atoms: C_26  and  O_35
REMARK                            x       y       z     vdW  Elec       q    Type
REMARK                         _______ _______ _______ _____ _____    ______ ____
ROOT
ATOM      1  C   UNL     1     102.780 129.005 139.884  0.00  0.00    +0.000 C 
ATOM      2  C   UNL     1     102.118 129.714 140.136  0.00  0.00    +0.000 C 
ATOM      3  C   UNL     1     102.951 130.221 142.322  0.00  0.00    +0.000 C 
ATOM      4  C   UNL     1     102.497 130.114 141.435  0.00  0.00    +0.000 C 
ATOM      5  C   UNL     1     104.889 128.440 142.111  0.00  0.00    +0.000 A 
ATOM      6  C   UNL     1     104.993 129.211 143.650  0.00  0.00    +0.000 A 
ATOM      7  C   UNL     1     103.751 129.661 142.547  0.00  0.00    +0.000 A 
ATOM      8  C   UNL     1     105.337 128.549 142.993  0.00  0.00    +0.000 A 
ATOM      9  C   UNL     1     104.094 128.998 141.889  0.00  0.00    +0.000 A 
ATOM     10  C   UNL     1     104.199 129.769 143.429  0.00  0.00    +0.000 A 
ATOM     11  C   UNL     1     102.842 129.452 140.778  0.00  0.00    +0.000 C 
ATOM     12  O   UNL     1     103.640 128.892 141.003  0.00  0.00    +0.000 OA
ENDROOT
BRANCH  10  14
ATOM     13  C   UNL     1     104.137 131.389 144.037  0.00  0.00    +0.000 C 
ATOM     14  O   UNL     1     103.853 130.436 144.092  0.00  0.00    +0.000 OA
ENDBRANCH  10  14
BRANCH   6  15
ATOM     15  C   UNL     1     105.447 129.318 144.538  0.00  0.00    +0.000 C 
ATOM     16  C   UNL     1     105.272 128.660 145.271  0.00  0.00    +0.000 C 
BRANCH  16  17
ATOM     17  C   UNL     1     105.726 128.767 146.158  0.00  0.00    +0.000 C 
ATOM     18  O   UNL     1     105.984 129.679 146.482  0.00  0.00    +0.000 OA
BRANCH  17  24
ATOM     19  C   UNL     1     106.310 126.352 147.846  0.00  0.00    +0.000 A 
ATOM     20  C   UNL     1     105.450 126.852 147.968  0.00  0.00    +0.000 A 
ATOM     21  C   UNL     1     106.975 126.657 147.161  0.00  0.00    +0.000 A 
ATOM     22  C   UNL     1     105.256 127.657 147.405  0.00  0.00    +0.000 A 
ATOM     23  C   UNL     1     106.780 127.462 146.599  0.00  0.00    +0.000 A 
ATOM     24  C   UNL     1     105.921 127.962 146.720  0.00  0.00    +0.000 A 
ENDBRANCH  17  24
ENDBRANCH  16  17
ENDBRANCH   6  15
BRANCH   8  25
ATOM     25  O   UNL     1     106.136 127.989 143.218  0.00  0.00    +0.000 OA
BRANCH  25  30
ATOM     26  C   UNL     1     108.340 127.250 141.948  0.00  0.00    +0.000 C 
ATOM     27  C   UNL     1     108.585 128.103 141.483  0.00  0.00    +0.000 C 
ATOM     28  C   UNL     1     107.524 127.212 142.526  0.00  0.00    +0.000 C 
ATOM     29  C   UNL     1     108.014 128.917 141.595  0.00  0.00    +0.000 C 
ATOM     30  C   UNL     1     106.953 128.027 142.639  0.00  0.00    +0.000 C 
ATOM     31  O   UNL     1     108.913 126.435 141.834  0.00  0.00    +0.000 OA
ATOM     32  O   UNL     1     109.401 128.141 140.904  0.00  0.00    +0.000 OA
ATOM     33  O   UNL     1     107.280 126.359 142.992  0.00  0.00    +0.000 OA
ATOM     34  O   UNL     1     107.198 128.879 142.174  0.00  0.00    +0.000 OA
BRANCH  29  35
ATOM     35  C   UNL     1     108.260 129.763 141.131  0.00  0.00    +0.000 C 
ATOM     36  O   UNL     1     107.932 129.931 140.206  0.00  0.00    +0.000 OA
ATOM     37  O   UNL     1     108.833 130.442 141.592  0.00  0.00    +0.000 OA
ENDBRANCH  29  35
ENDBRANCH  25  30
ENDBRANCH   8  25
TORSDOF 7
ENDMDL
MODEL 6
REMARK VINA RESULT:      -8.7      1.865      2.537
REMARK  Name = 
REMARK  7 active torsions:
REMARK  status: ('A' for Active; 'I' for Inactive)
REMARK    1  A    between atoms: C_9  and  C_15
REMARK    2  A    between atoms: C_10  and  C_17
REMARK    3  A    between atoms: C_14  and  C_17
REMARK    4  A    between atoms: C_18  and  O_35
REMARK    5  A    between atoms: C_23  and  O_34
REMARK    6  A    between atoms: C_24  and  C_25
REMARK    7  A    between atoms: C_26  and  O_35
REMARK                            x       y       z     vdW  Elec       q    Type
REMARK                         _______ _______ _______ _____ _____    ______ ____
ROOT
ATOM      1  C   UNL     1     109.339 131.870 135.443  0.00  0.00    +0.000 C 
ATOM      2  C   UNL     1     109.049 131.390 134.613  0.00  0.00    +0.000 C 
ATOM      3  C   UNL     1     109.578 129.155 135.283  0.00  0.00    +0.000 C 
ATOM      4  C   UNL     1     109.310 130.028 134.873  0.00  0.00    +0.000 C 
ATOM      5  C   UNL     1     110.464 129.959 137.637  0.00  0.00    +0.000 A 
ATOM      6  C   UNL     1     110.612 128.244 137.531  0.00  0.00    +0.000 A 
ATOM      7  C   UNL     1     109.964 129.132 136.208  0.00  0.00    +0.000 A 
ATOM      8  C   UNL     1     110.729 129.089 138.042  0.00  0.00    +0.000 A 
ATOM      9  C   UNL     1     110.080 129.978 136.718  0.00  0.00    +0.000 A 
ATOM     10  C   UNL     1     110.230 128.263 136.613  0.00  0.00    +0.000 A 
ATOM     11  C   UNL     1     109.427 130.873 135.383  0.00  0.00    +0.000 C 
ATOM     12  O   UNL     1     109.812 130.852 136.307  0.00  0.00    +0.000 OA
ENDROOT
BRANCH  10  14
ATOM     13  C   UNL     1     109.219 126.972 136.055  0.00  0.00    +0.000 C 
ATOM     14  O   UNL     1     110.112 127.411 136.099  0.00  0.00    +0.000 OA
ENDBRANCH  10  14
BRANCH   6  15
ATOM     15  C   UNL     1     110.881 127.370 137.942  0.00  0.00    +0.000 C 
ATOM     16  C   UNL     1     111.813 127.027 137.823  0.00  0.00    +0.000 C 
BRANCH  16  17
ATOM     17  C   UNL     1     112.081 126.153 138.233  0.00  0.00    +0.000 C 
ATOM     18  O   UNL     1     111.586 125.799 139.029  0.00  0.00    +0.000 OA
BRANCH  17  24
ATOM     19  C   UNL     1     114.372 124.592 137.076  0.00  0.00    +0.000 A 
ATOM     20  C   UNL     1     113.435 124.405 136.774  0.00  0.00    +0.000 A 
ATOM     21  C   UNL     1     114.545 125.299 137.764  0.00  0.00    +0.000 A 
ATOM     22  C   UNL     1     112.671 124.926 137.159  0.00  0.00    +0.000 A 
ATOM     23  C   UNL     1     113.782 125.819 138.150  0.00  0.00    +0.000 A 
ATOM     24  C   UNL     1     112.845 125.633 137.848  0.00  0.00    +0.000 A 
ENDBRANCH  17  24
ENDBRANCH  16  17
ENDBRANCH   6  15
BRANCH   8  25
ATOM     25  O   UNL     1     111.115 129.067 138.966  0.00  0.00    +0.000 OA
BRANCH  25  30
ATOM     26  C   UNL     1     110.865 130.679 141.053  0.00  0.00    +0.000 C 
ATOM     27  C   UNL     1     109.868 130.706 141.152  0.00  0.00    +0.000 C 
ATOM     28  C   UNL     1     111.280 130.133 140.324  0.00  0.00    +0.000 C 
ATOM     29  C   UNL     1     109.288 130.187 140.523  0.00  0.00    +0.000 C 
ATOM     30  C   UNL     1     110.699 129.614 139.695  0.00  0.00    +0.000 C 
ATOM     31  O   UNL     1     111.445 131.199 141.683  0.00  0.00    +0.000 OA
ATOM     32  O   UNL     1     109.452 131.253 141.881  0.00  0.00    +0.000 OA
ATOM     33  O   UNL     1     112.277 130.106 140.225  0.00  0.00    +0.000 OA
ATOM     34  O   UNL     1     109.703 129.641 139.794  0.00  0.00    +0.000 OA
BRANCH  29  35
ATOM     35  C   UNL     1     108.297 130.216 140.625  0.00  0.00    +0.000 C 
ATOM     36  O   UNL     1     107.827 129.470 141.087  0.00  0.00    +0.000 OA
ATOM     37  O   UNL     1     107.777 130.991 140.263  0.00  0.00    +0.000 OA
ENDBRANCH  29  35
ENDBRANCH  25  30
ENDBRANCH   8  25
TORSDOF 7
ENDMDL
MODEL 7
REMARK VINA RESULT:      -8.5      1.733      2.899
REMARK  Name = 
REMARK  7 active torsions:
REMARK  status: ('A' for Active; 'I' for Inactive)
REMARK    1  A    between atoms: C_9  and  C_15
REMARK    2  A    between atoms: C_10  and  C_17
REMARK    3  A    between atoms: C_14  and  C_17
REMARK    4  A    between atoms: C_18  and  O_35
REMARK    5  A    between atoms: C_23  and  O_34
REMARK    6  A    between atoms: C_24  and  C_25
REMARK    7  A    between atoms: C_26  and  O_35
REMARK                            x       y       z     vdW  Elec       q    Type
REMARK                         _______ _______ _______ _____ _____    ______ ____
ROOT
ATOM      1  C   UNL     1     109.707 132.239 138.162  0.00  0.00    +0.000 C 
ATOM      2  C   UNL     1     110.167 132.868 137.532  0.00  0.00    +0.000 C 
ATOM      3  C   UNL     1     111.940 131.429 136.816  0.00  0.00    +0.000 C 
ATOM      4  C   UNL     1     111.259 132.134 137.023  0.00  0.00    +0.000 C 
ATOM      5  C   UNL     1     111.092 129.450 138.343  0.00  0.00    +0.000 A 
ATOM      6  C   UNL     1     112.502 128.943 137.490  0.00  0.00    +0.000 A 
ATOM      7  C   UNL     1     111.883 130.532 137.257  0.00  0.00    +0.000 A 
ATOM      8  C   UNL     1     111.770 128.751 138.135  0.00  0.00    +0.000 A 
ATOM      9  C   UNL     1     111.151 130.341 137.902  0.00  0.00    +0.000 A 
ATOM     10  C   UNL     1     112.561 129.833 137.050  0.00  0.00    +0.000 A 
ATOM     11  C   UNL     1     110.527 131.943 137.668  0.00  0.00    +0.000 C 
ATOM     12  O   UNL     1     110.470 131.046 138.110  0.00  0.00    +0.000 OA
ENDROOT
BRANCH  10  14
ATOM     13  C   UNL     1     114.134 130.473 136.709  0.00  0.00    +0.000 C 
ATOM     14  O   UNL     1     113.299 130.025 136.400  0.00  0.00    +0.000 OA
ENDBRANCH  10  14
BRANCH   6  15
ATOM     15  C   UNL     1     113.184 128.238 137.282  0.00  0.00    +0.000 C 
ATOM     16  C   UNL     1     112.947 127.475 136.679  0.00  0.00    +0.000 C 
BRANCH  16  17
ATOM     17  C   UNL     1     113.628 126.770 136.472  0.00  0.00    +0.000 C 
ATOM     18  O   UNL     1     114.529 127.032 136.119  0.00  0.00    +0.000 OA
BRANCH  17  24
ATOM     19  C   UNL     1     112.970 123.873 136.909  0.00  0.00    +0.000 A 
ATOM     20  C   UNL     1     112.317 124.469 136.437  0.00  0.00    +0.000 A 
ATOM     21  C   UNL     1     113.842 124.242 137.236  0.00  0.00    +0.000 A 
ATOM     22  C   UNL     1     112.537 125.435 136.292  0.00  0.00    +0.000 A 
ATOM     23  C   UNL     1     114.061 125.208 137.090  0.00  0.00    +0.000 A 
ATOM     24  C   UNL     1     113.409 125.805 136.618  0.00  0.00    +0.000 A 
ENDBRANCH  17  24
ENDBRANCH  16  17
ENDBRANCH   6  15
BRANCH   8  25
ATOM     25  O   UNL     1     111.714 127.855 138.576  0.00  0.00    +0.000 OA
BRANCH  25  30
ATOM     26  C   UNL     1     111.145 126.870 140.969  0.00  0.00    +0.000 C 
ATOM     27  C   UNL     1     111.325 127.667 141.549  0.00  0.00    +0.000 C 
ATOM     28  C   UNL     1     111.274 126.933 139.979  0.00  0.00    +0.000 C 
ATOM     29  C   UNL     1     111.634 128.526 141.138  0.00  0.00    +0.000 C 
ATOM     30  C   UNL     1     111.584 127.792 139.568  0.00  0.00    +0.000 C 
ATOM     31  O   UNL     1     110.835 126.011 141.381  0.00  0.00    +0.000 OA
ATOM     32  O   UNL     1     111.195 127.605 142.540  0.00  0.00    +0.000 OA
ATOM     33  O   UNL     1     111.094 126.135 139.399  0.00  0.00    +0.000 OA
ATOM     34  O   UNL     1     111.764 128.589 140.148  0.00  0.00    +0.000 OA
BRANCH  29  35
ATOM     35  C   UNL     1     111.812 129.317 141.717  0.00  0.00    +0.000 C 
ATOM     36  O   UNL     1     111.085 129.976 141.888  0.00  0.00    +0.000 OA
ATOM     37  O   UNL     1     112.717 129.448 142.125  0.00  0.00    +0.000 OA
ENDBRANCH  29  35
ENDBRANCH  25  30
ENDBRANCH   8  25
TORSDOF 7
ENDMDL
MODEL 8
REMARK VINA RESULT:      -8.5      1.685      5.279
REMARK  Name = 
REMARK  7 active torsions:
REMARK  status: ('A' for Active; 'I' for Inactive)
REMARK    1  A    between atoms: C_9  and  C_15
REMARK    2  A    between atoms: C_10  and  C_17
REMARK    3  A    between atoms: C_14  and  C_17
REMARK    4  A    between atoms: C_18  and  O_35
REMARK    5  A    between atoms: C_23  and  O_34
REMARK    6  A    between atoms: C_24  and  C_25
REMARK    7  A    between atoms: C_26  and  O_35
REMARK                            x       y       z     vdW  Elec       q    Type
REMARK                         _______ _______ _______ _____ _____    ______ ____
ROOT
ATOM      1  C   UNL     1     114.555 125.349 137.980  0.00  0.00    +0.000 C 
ATOM      2  C   UNL     1     114.605 124.812 137.135  0.00  0.00    +0.000 C 
ATOM      3  C   UNL     1     112.557 125.533 136.129  0.00  0.00    +0.000 C 
ATOM      4  C   UNL     1     113.432 125.146 136.426  0.00  0.00    +0.000 C 
ATOM      5  C   UNL     1     111.991 127.115 138.165  0.00  0.00    +0.000 A 
ATOM      6  C   UNL     1     110.731 127.228 136.993  0.00  0.00    +0.000 A 
ATOM      7  C   UNL     1     112.076 126.191 136.711  0.00  0.00    +0.000 A 
ATOM      8  C   UNL     1     111.122 127.498 137.867  0.00  0.00    +0.000 A 
ATOM      9  C   UNL     1     112.467 126.460 137.584  0.00  0.00    +0.000 A 
ATOM     10  C   UNL     1     111.206 126.574 136.413  0.00  0.00    +0.000 A 
ATOM     11  C   UNL     1     113.822 125.416 137.300  0.00  0.00    +0.000 C 
ATOM     12  O   UNL     1     113.342 126.073 137.882  0.00  0.00    +0.000 OA
ENDROOT
BRANCH  10  14
ATOM     13  C   UNL     1     110.336 125.433 135.444  0.00  0.00    +0.000 C 
ATOM     14  O   UNL     1     110.812 126.303 135.533  0.00  0.00    +0.000 OA
ENDBRANCH  10  14
BRANCH   6  15
ATOM     15  C   UNL     1     109.856 127.615 136.695  0.00  0.00    +0.000 C 
ATOM     16  C   UNL     1     109.838 128.468 136.172  0.00  0.00    +0.000 C 
BRANCH  16  17
ATOM     17  C   UNL     1     108.963 128.854 135.874  0.00  0.00    +0.000 C 
ATOM     18  O   UNL     1     108.152 128.269 135.809  0.00  0.00    +0.000 OA
BRANCH  17  24
ATOM     19  C   UNL     1     108.771 131.769 135.176  0.00  0.00    +0.000 A 
ATOM     20  C   UNL     1     109.329 131.156 134.614  0.00  0.00    +0.000 A 
ATOM     21  C   UNL     1     108.278 131.412 135.971  0.00  0.00    +0.000 A 
ATOM     22  C   UNL     1     109.393 130.184 134.847  0.00  0.00    +0.000 A 
ATOM     23  C   UNL     1     108.342 130.440 136.204  0.00  0.00    +0.000 A 
ATOM     24  C   UNL     1     108.899 129.826 135.642  0.00  0.00    +0.000 A 
ENDBRANCH  17  24
ENDBRANCH  16  17
ENDBRANCH   6  15
BRANCH   8  25
ATOM     25  O   UNL     1     110.641 128.155 138.449  0.00  0.00    +0.000 OA
BRANCH  25  30
ATOM     26  C   UNL     1     111.445 129.575 140.536  0.00  0.00    +0.000 C 
ATOM     27  C   UNL     1     112.203 130.091 140.132  0.00  0.00    +0.000 C 
ATOM     28  C   UNL     1     110.924 128.930 139.975  0.00  0.00    +0.000 C 
ATOM     29  C   UNL     1     112.440 129.962 139.168  0.00  0.00    +0.000 C 
ATOM     30  C   UNL     1     111.162 128.801 139.010  0.00  0.00    +0.000 C 
ATOM     31  O   UNL     1     111.208 129.705 141.501  0.00  0.00    +0.000 OA
ATOM     32  O   UNL     1     112.724 130.737 140.694  0.00  0.00    +0.000 OA
ATOM     33  O   UNL     1     110.166 128.414 140.378  0.00  0.00    +0.000 OA
ATOM     34  O   UNL     1     111.920 129.317 138.607  0.00  0.00    +0.000 OA
BRANCH  29  35
ATOM     35  C   UNL     1     113.195 130.477 138.770  0.00  0.00    +0.000 C 
ATOM     36  O   UNL     1     113.002 131.260 138.186  0.00  0.00    +0.000 OA
ATOM     37  O   UNL     1     114.141 130.208 138.957  0.00  0.00    +0.000 OA
ENDBRANCH  29  35
ENDBRANCH  25  30
ENDBRANCH   8  25
TORSDOF 7
ENDMDL
MODEL 9
REMARK VINA RESULT:      -8.5      1.453      4.632
REMARK  Name = 
REMARK  7 active torsions:
REMARK  status: ('A' for Active; 'I' for Inactive)
REMARK    1  A    between atoms: C_9  and  C_15
REMARK    2  A    between atoms: C_10  and  C_17
REMARK    3  A    between atoms: C_14  and  C_17
REMARK    4  A    between atoms: C_18  and  O_35
REMARK    5  A    between atoms: C_23  and  O_34
REMARK    6  A    between atoms: C_24  and  C_25
REMARK    7  A    between atoms: C_26  and  O_35
REMARK                            x       y       z     vdW  Elec       q    Type
REMARK                         _______ _______ _______ _____ _____    ______ ____
ROOT
ATOM      1  C   UNL     1     110.916 130.981 142.616  0.00  0.00    +0.000 C 
ATOM      2  C   UNL     1     111.817 130.991 143.054  0.00  0.00    +0.000 C 
ATOM      3  C   UNL     1     113.115 130.149 141.228  0.00  0.00    +0.000 C 
ATOM      4  C   UNL     1     112.703 130.507 142.068  0.00  0.00    +0.000 C 
ATOM      5  C   UNL     1     110.990 129.946 139.675  0.00  0.00    +0.000 A 
ATOM      6  C   UNL     1     112.381 129.422 138.802  0.00  0.00    +0.000 A 
ATOM      7  C   UNL     1     112.541 129.962 140.428  0.00  0.00    +0.000 A 
ATOM      8  C   UNL     1     111.402 129.591 138.841  0.00  0.00    +0.000 A 
ATOM      9  C   UNL     1     111.562 130.132 140.468  0.00  0.00    +0.000 A 
ATOM     10  C   UNL     1     112.954 129.606 139.594  0.00  0.00    +0.000 A 
ATOM     11  C   UNL     1     111.724 130.676 142.107  0.00  0.00    +0.000 C 
ATOM     12  O   UNL     1     111.150 130.489 141.309  0.00  0.00    +0.000 OA
ENDROOT
BRANCH  10  14
ATOM     13  C   UNL     1     114.573 130.189 139.401  0.00  0.00    +0.000 C 
ATOM     14  O   UNL     1     113.940 129.435 139.554  0.00  0.00    +0.000 OA
ENDBRANCH  10  14
BRANCH   6  15
ATOM     15  C   UNL     1     112.794 129.063 137.961  0.00  0.00    +0.000 C 
ATOM     16  C   UNL     1     112.775 128.080 137.774  0.00  0.00    +0.000 C 
BRANCH  16  17
ATOM     17  C   UNL     1     113.188 127.723 136.934  0.00  0.00    +0.000 C 
ATOM     18  O   UNL     1     113.515 128.354 136.228  0.00  0.00    +0.000 OA
BRANCH  17  24
ATOM     19  C   UNL     1     113.443 124.757 136.533  0.00  0.00    +0.000 A 
ATOM     20  C   UNL     1     112.565 125.211 136.367  0.00  0.00    +0.000 A 
ATOM     21  C   UNL     1     114.236 125.292 136.832  0.00  0.00    +0.000 A 
ATOM     22  C   UNL     1     112.480 126.200 136.501  0.00  0.00    +0.000 A 
ATOM     23  C   UNL     1     114.150 126.280 136.966  0.00  0.00    +0.000 A 
ATOM     24  C   UNL     1     113.273 126.735 136.800  0.00  0.00    +0.000 A 
ENDBRANCH  17  24
ENDBRANCH  16  17
ENDBRANCH   6  15
BRANCH   8  25
ATOM     25  O   UNL     1     110.829 129.404 138.042  0.00  0.00    +0.000 OA
BRANCH  25  30
ATOM     26  C   UNL     1     108.774 130.593 136.867  0.00  0.00    +0.000 C 
ATOM     27  C   UNL     1     109.046 131.554 136.938  0.00  0.00    +0.000 C 
ATOM     28  C   UNL     1     109.368 129.876 137.235  0.00  0.00    +0.000 C 
ATOM     29  C   UNL     1     109.912 131.799 137.377  0.00  0.00    +0.000 C 
ATOM     30  C   UNL     1     110.235 130.121 137.674  0.00  0.00    +0.000 C 
ATOM     31  O   UNL     1     107.907 130.348 136.428  0.00  0.00    +0.000 OA
ATOM     32  O   UNL     1     108.451 132.271 136.571  0.00  0.00    +0.000 OA
ATOM     33  O   UNL     1     109.096 128.915 137.164  0.00  0.00    +0.000 OA
ATOM     34  O   UNL     1     110.506 131.082 137.745  0.00  0.00    +0.000 OA
BRANCH  29  35
ATOM     35  C   UNL     1     110.179 132.756 137.446  0.00  0.00    +0.000 C 
ATOM     36  O   UNL     1     110.108 133.225 138.322  0.00  0.00    +0.000 OA
ATOM     37  O   UNL     1     110.518 133.243 136.640  0.00  0.00    +0.000 OA
ENDBRANCH  29  35
ENDBRANCH  25  30
ENDBRANCH   8  25
TORSDOF 7
ENDMDL
MODEL 10
REMARK VINA RESULT:      -8.5      7.339      9.704
REMARK  Name = 
REMARK  7 active torsions:
REMARK  status: ('A' for Active; 'I' for Inactive)
REMARK    1  A    between atoms: C_9  and  C_15
REMARK    2  A    between atoms: C_10  and  C_17
REMARK    3  A    between atoms: C_14  and  C_17
REMARK    4  A    between atoms: C_18  and  O_35
REMARK    5  A    between atoms: C_23  and  O_34
REMARK    6  A    between atoms: C_24  and  C_25
REMARK    7  A    between atoms: C_26  and  O_35
REMARK                            x       y       z     vdW  Elec       q    Type
REMARK                         _______ _______ _______ _____ _____    ______ ____
ROOT
ATOM      1  C   UNL     1     103.247 129.874 142.223  0.00  0.00    +0.000 C 
ATOM      2  C   UNL     1     103.144 130.695 142.788  0.00  0.00    +0.000 C 
ATOM      3  C   UNL     1     104.626 130.096 144.569  0.00  0.00    +0.000 C 
ATOM      4  C   UNL     1     103.982 130.474 143.901  0.00  0.00    +0.000 C 
ATOM      5  C   UNL     1     105.216 127.783 143.440  0.00  0.00    +0.000 A 
ATOM      6  C   UNL     1     106.084 127.927 144.923  0.00  0.00    +0.000 A 
ATOM      7  C   UNL     1     105.038 129.195 144.414  0.00  0.00    +0.000 A 
ATOM      8  C   UNL     1     105.855 127.409 144.106  0.00  0.00    +0.000 A 
ATOM      9  C   UNL     1     104.808 128.678 143.597  0.00  0.00    +0.000 A 
ATOM     10  C   UNL     1     105.677 128.822 145.080  0.00  0.00    +0.000 A 
ATOM     11  C   UNL     1     103.753 129.956 143.084  0.00  0.00    +0.000 C 
ATOM     12  O   UNL     1     104.164 129.057 142.929  0.00  0.00    +0.000 OA
ENDROOT
BRANCH  10  14
ATOM     13  C   UNL     1     106.594 130.065 145.862  0.00  0.00    +0.000 C 
ATOM     14  O   UNL     1     105.909 129.343 145.903  0.00  0.00    +0.000 OA
ENDBRANCH  10  14
BRANCH   6  15
ATOM     15  C   UNL     1     106.728 127.548 145.591  0.00  0.00    +0.000 C 
ATOM     16  C   UNL     1     106.393 126.971 146.337  0.00  0.00    +0.000 C 
BRANCH  16  17
ATOM     17  C   UNL     1     107.037 126.592 147.005  0.00  0.00    +0.000 C 
ATOM     18  O   UNL     1     108.015 126.800 146.933  0.00  0.00    +0.000 OA
BRANCH  17  24
ATOM     19  C   UNL     1     106.036 124.834 149.224  0.00  0.00    +0.000 A 
ATOM     20  C   UNL     1     106.773 124.514 148.626  0.00  0.00    +0.000 A 
ATOM     21  C   UNL     1     105.632 125.740 149.082  0.00  0.00    +0.000 A 
ATOM     22  C   UNL     1     107.107 125.100 147.886  0.00  0.00    +0.000 A 
ATOM     23  C   UNL     1     105.966 126.325 148.343  0.00  0.00    +0.000 A 
ATOM     24  C   UNL     1     106.703 126.006 147.744  0.00  0.00    +0.000 A 
ENDBRANCH  17  24
ENDBRANCH  16  17
ENDBRANCH   6  15
BRANCH   8  25
ATOM     25  O   UNL     1     106.266 126.510 143.951  0.00  0.00    +0.000 OA
BRANCH  25  30
ATOM     26  C   UNL     1     106.755 125.317 141.636  0.00  0.00    +0.000 C 
ATOM     27  C   UNL     1     107.519 125.870 141.297  0.00  0.00    +0.000 C 
ATOM     28  C   UNL     1     106.338 125.531 142.521  0.00  0.00    +0.000 C 
ATOM     29  C   UNL     1     107.865 126.635 141.842  0.00  0.00    +0.000 C 
ATOM     30  C   UNL     1     106.684 126.297 143.066  0.00  0.00    +0.000 C 
ATOM     31  O   UNL     1     106.410 124.551 141.091  0.00  0.00    +0.000 OA
ATOM     32  O   UNL     1     107.937 125.657 140.412  0.00  0.00    +0.000 OA
ATOM     33  O   UNL     1     105.574 124.978 142.860  0.00  0.00    +0.000 OA
ATOM     34  O   UNL     1     107.448 126.849 142.726  0.00  0.00    +0.000 OA
BRANCH  29  35
ATOM     35  C   UNL     1     108.624 127.183 141.501  0.00  0.00    +0.000 C 
ATOM     36  O   UNL     1     109.556 126.949 141.763  0.00  0.00    +0.000 OA
ATOM     37  O   UNL     1     108.452 127.964 140.900  0.00  0.00    +0.000 OA
ENDBRANCH  29  35
ENDBRANCH  25  30
ENDBRANCH   8  25
TORSDOF 7
ENDMDL
