MODEL 1
REMARK VINA RESULT:      -8.9      0.000      0.000
REMARK  Name = 131838979
REMARK  7 active torsions:
REMARK  status: ('A' for Active; 'I' for Inactive)
REMARK    1  A    between atoms: O_2  and  C_15
REMARK    2  A    between atoms: O_2  and  C_17
REMARK    3  A    between atoms: C_14  and  C_16
REMARK    4  A    between atoms: C_18  and  C_20
REMARK    5  A    between atoms: C_20  and  C_21
REMARK    6  A    between atoms: C_21  and  C_23
REMARK    7  A    between atoms: C_23  and  C_26
REMARK                            x       y       z     vdW  Elec       q    Type
REMARK                         _______ _______ _______ _____ _____    ______ ____
ROOT
ATOM      1  O   UNL     1     115.125 124.992 136.692  0.00  0.00    +0.000 OA
ATOM      2  C   UNL     1     113.359 126.182 137.954  0.00  0.00    +0.000 A 
ATOM      3  C   UNL     1     113.417 126.277 137.136  0.00  0.00    +0.000 A 
ATOM      4  C   UNL     1     113.890 125.691 138.350  0.00  0.00    +0.000 A 
ATOM      5  C   UNL     1     114.005 125.880 136.715  0.00  0.00    +0.000 A 
ATOM      6  C   UNL     1     114.479 125.295 137.930  0.00  0.00    +0.000 A 
ATOM      7  C   UNL     1     114.536 125.389 137.113  0.00  0.00    +0.000 A 
ENDROOT
BRANCH   3   9
ATOM      8  O   UNL     1     113.008 127.583 136.727  0.00  0.00    +0.000 OA
ATOM      9  C   UNL     1     112.886 126.768 136.739  0.00  0.00    +0.000 C 
BRANCH   9  10
ATOM     10  C   UNL     1     112.231 126.442 136.355  0.00  0.00    +0.000 C 
BRANCH  10  11
ATOM     11  C   UNL     1     111.796 126.898 135.823  0.00  0.00    +0.000 C 
BRANCH  11  13
ATOM     12  O   UNL     1     110.837 127.854 134.880  0.00  0.00    +0.000 OA
ATOM     13  C   UNL     1     111.132 126.579 135.454  0.00  0.00    +0.000 A 
ATOM     14  C   UNL     1     110.652 127.057 134.982  0.00  0.00    +0.000 A 
ATOM     15  C   UNL     1     110.946 125.781 135.555  0.00  0.00    +0.000 A 
ATOM     16  C   UNL     1     109.987 126.737 134.613  0.00  0.00    +0.000 A 
ATOM     17  C   UNL     1     110.281 125.462 135.187  0.00  0.00    +0.000 A 
ATOM     18  C   UNL     1     109.802 125.940 134.715  0.00  0.00    +0.000 A 
ENDBRANCH  11  13
ENDBRANCH  10  11
ENDBRANCH   9  10
ENDBRANCH   3   9
BRANCH   2  19
ATOM     19  O   UNL     1     112.771 126.579 138.375  0.00  0.00    +0.000 OA
BRANCH  19  28
ATOM     20  O   UNL     1     113.512 127.142 139.459  0.00  0.00    +0.000 OA
ATOM     21  O   UNL     1     111.836 126.268 141.058  0.00  0.00    +0.000 OA
ATOM     22  O   UNL     1     111.654 125.997 139.440  0.00  0.00    +0.000 OA
ATOM     23  O   UNL     1     113.136 127.121 141.609  0.00  0.00    +0.000 OA
ATOM     24  C   UNL     1     112.395 126.559 140.525  0.00  0.00    +0.000 C 
ATOM     25  C   UNL     1     112.304 126.423 139.715  0.00  0.00    +0.000 C 
ATOM     26  C   UNL     1     113.045 126.986 140.800  0.00  0.00    +0.000 C 
ATOM     27  C   UNL     1     113.603 127.277 140.267  0.00  0.00    +0.000 C 
ATOM     28  C   UNL     1     112.862 126.715 139.183  0.00  0.00    +0.000 C 
BRANCH  27  31
ATOM     29  O   UNL     1     114.257 128.528 140.494  0.00  0.00    +0.000 OA
ATOM     30  O   UNL     1     114.899 127.307 140.868  0.00  0.00    +0.000 OA
ATOM     31  C   UNL     1     114.253 127.704 140.543  0.00  0.00    +0.000 C 
ENDBRANCH  27  31
ENDBRANCH  19  28
ENDBRANCH   2  19
TORSDOF 7
ENDMDL
MODEL 2
REMARK VINA RESULT:      -8.7      1.782      2.652
REMARK  Name = 131838979
REMARK  7 active torsions:
REMARK  status: ('A' for Active; 'I' for Inactive)
REMARK    1  A    between atoms: O_2  and  C_15
REMARK    2  A    between atoms: O_2  and  C_17
REMARK    3  A    between atoms: C_14  and  C_16
REMARK    4  A    between atoms: C_18  and  C_20
REMARK    5  A    between atoms: C_20  and  C_21
REMARK    6  A    between atoms: C_21  and  C_23
REMARK    7  A    between atoms: C_23  and  C_26
REMARK                            x       y       z     vdW  Elec       q    Type
REMARK                         _______ _______ _______ _____ _____    ______ ____
ROOT
ATOM      1  O   UNL     1     115.087 124.989 136.435  0.00  0.00    +0.000 OA
ATOM      2  C   UNL     1     113.411 126.318 137.680  0.00  0.00    +0.000 A 
ATOM      3  C   UNL     1     113.638 126.547 136.919  0.00  0.00    +0.000 A 
ATOM      4  C   UNL     1     113.744 125.647 138.024  0.00  0.00    +0.000 A 
ATOM      5  C   UNL     1     114.196 126.104 136.505  0.00  0.00    +0.000 A 
ATOM      6  C   UNL     1     114.303 125.204 137.609  0.00  0.00    +0.000 A 
ATOM      7  C   UNL     1     114.529 125.432 136.850  0.00  0.00    +0.000 A 
ENDROOT
BRANCH   3   9
ATOM      8  O   UNL     1     112.554 127.179 136.235  0.00  0.00    +0.000 OA
ATOM      9  C   UNL     1     113.305 127.218 136.575  0.00  0.00    +0.000 C 
BRANCH   9  10
ATOM     10  C   UNL     1     113.724 127.930 136.571  0.00  0.00    +0.000 C 
BRANCH  10  11
ATOM     11  C   UNL     1     113.605 128.475 135.963  0.00  0.00    +0.000 C 
BRANCH  11  13
ATOM     12  O   UNL     1     114.315 129.118 134.619  0.00  0.00    +0.000 OA
ATOM     13  C   UNL     1     113.961 129.218 136.000  0.00  0.00    +0.000 A 
ATOM     14  C   UNL     1     114.316 129.539 135.328  0.00  0.00    +0.000 A 
ATOM     15  C   UNL     1     113.963 129.640 136.709  0.00  0.00    +0.000 A 
ATOM     16  C   UNL     1     114.673 130.283 135.365  0.00  0.00    +0.000 A 
ATOM     17  C   UNL     1     114.319 130.383 136.747  0.00  0.00    +0.000 A 
ATOM     18  C   UNL     1     114.674 130.704 136.075  0.00  0.00    +0.000 A 
ENDBRANCH  11  13
ENDBRANCH  10  11
ENDBRANCH   9  10
ENDBRANCH   3   9
BRANCH   2  19
ATOM     19  O   UNL     1     112.853 126.761 138.095  0.00  0.00    +0.000 OA
BRANCH  19  28
ATOM     20  O   UNL     1     113.551 127.101 139.294  0.00  0.00    +0.000 OA
ATOM     21  O   UNL     1     111.637 126.291 140.638  0.00  0.00    +0.000 OA
ATOM     22  O   UNL     1     111.577 126.221 138.991  0.00  0.00    +0.000 OA
ATOM     23  O   UNL     1     112.973 126.901 141.389  0.00  0.00    +0.000 OA
ATOM     24  C   UNL     1     112.275 126.561 140.190  0.00  0.00    +0.000 C 
ATOM     25  C   UNL     1     112.245 126.526 139.366  0.00  0.00    +0.000 C 
ATOM     26  C   UNL     1     112.944 126.866 140.565  0.00  0.00    +0.000 C 
ATOM     27  C   UNL     1     113.581 127.136 140.117  0.00  0.00    +0.000 C 
ATOM     28  C   UNL     1     112.883 126.796 138.918  0.00  0.00    +0.000 C 
BRANCH  27  31
ATOM     29  O   UNL     1     114.825 126.930 140.790  0.00  0.00    +0.000 OA
ATOM     30  O   UNL     1     114.341 128.257 140.572  0.00  0.00    +0.000 OA
ATOM     31  C   UNL     1     114.249 127.441 140.493  0.00  0.00    +0.000 C 
ENDBRANCH  27  31
ENDBRANCH  19  28
ENDBRANCH   2  19
TORSDOF 7
ENDMDL
MODEL 3
REMARK VINA RESULT:      -8.7     10.092     12.335
REMARK  Name = 131838979
REMARK  7 active torsions:
REMARK  status: ('A' for Active; 'I' for Inactive)
REMARK    1  A    between atoms: O_2  and  C_15
REMARK    2  A    between atoms: O_2  and  C_17
REMARK    3  A    between atoms: C_14  and  C_16
REMARK    4  A    between atoms: C_18  and  C_20
REMARK    5  A    between atoms: C_20  and  C_21
REMARK    6  A    between atoms: C_21  and  C_23
REMARK    7  A    between atoms: C_23  and  C_26
REMARK                            x       y       z     vdW  Elec       q    Type
REMARK                         _______ _______ _______ _____ _____    ______ ____
ROOT
ATOM      1  O   UNL     1     107.833 124.711 149.474  0.00  0.00    +0.000 OA
ATOM      2  C   UNL     1     106.191 124.785 147.623  0.00  0.00    +0.000 A 
ATOM      3  C   UNL     1     106.877 125.243 147.585  0.00  0.00    +0.000 A 
ATOM      4  C   UNL     1     106.053 124.303 148.279  0.00  0.00    +0.000 A 
ATOM      5  C   UNL     1     107.424 125.218 148.202  0.00  0.00    +0.000 A 
ATOM      6  C   UNL     1     106.601 124.278 148.895  0.00  0.00    +0.000 A 
ATOM      7  C   UNL     1     107.286 124.736 148.857  0.00  0.00    +0.000 A 
ENDROOT
BRANCH   3   9
ATOM      8  O   UNL     1     107.291 125.395 146.226  0.00  0.00    +0.000 OA
ATOM      9  C   UNL     1     107.014 125.724 146.930  0.00  0.00    +0.000 C 
BRANCH   9  10
ATOM     10  C   UNL     1     106.874 126.537 146.979  0.00  0.00    +0.000 C 
BRANCH  10  11
ATOM     11  C   UNL     1     107.226 127.050 146.438  0.00  0.00    +0.000 C 
BRANCH  11  13
ATOM     12  O   UNL     1     108.311 128.197 145.957  0.00  0.00    +0.000 OA
ATOM     13  C   UNL     1     107.005 127.843 146.417  0.00  0.00    +0.000 A 
ATOM     14  C   UNL     1     107.547 128.417 146.177  0.00  0.00    +0.000 A 
ATOM     15  C   UNL     1     106.241 128.065 146.637  0.00  0.00    +0.000 A 
ATOM     16  C   UNL     1     107.325 129.212 146.157  0.00  0.00    +0.000 A 
ATOM     17  C   UNL     1     106.019 128.859 146.617  0.00  0.00    +0.000 A 
ATOM     18  C   UNL     1     106.561 129.432 146.377  0.00  0.00    +0.000 A 
ENDBRANCH  11  13
ENDBRANCH  10  11
ENDBRANCH   9  10
ENDBRANCH   3   9
BRANCH   2  19
ATOM     19  O   UNL     1     105.643 124.809 147.007  0.00  0.00    +0.000 OA
BRANCH  19  28
ATOM     20  O   UNL     1     104.465 125.212 147.708  0.00  0.00    +0.000 OA
ATOM     21  O   UNL     1     103.174 123.443 146.555  0.00  0.00    +0.000 OA
ATOM     22  O   UNL     1     104.782 123.630 146.238  0.00  0.00    +0.000 OA
ATOM     23  O   UNL     1     102.427 124.435 147.640  0.00  0.00    +0.000 OA
ATOM     24  C   UNL     1     103.604 124.033 146.939  0.00  0.00    +0.000 C 
ATOM     25  C   UNL     1     104.409 124.126 146.781  0.00  0.00    +0.000 C 
ATOM     26  C   UNL     1     103.231 124.529 147.482  0.00  0.00    +0.000 C 
ATOM     27  C   UNL     1     103.662 125.118 147.867  0.00  0.00    +0.000 C 
ATOM     28  C   UNL     1     104.840 124.716 147.165  0.00  0.00    +0.000 C 
BRANCH  27  31
ATOM     29  O   UNL     1     103.127 125.345 149.173  0.00  0.00    +0.000 OA
ATOM     30  O   UNL     1     103.074 126.380 148.189  0.00  0.00    +0.000 OA
ATOM     31  C   UNL     1     103.288 125.614 148.409  0.00  0.00    +0.000 C 
ENDBRANCH  27  31
ENDBRANCH  19  28
ENDBRANCH   2  19
TORSDOF 7
ENDMDL
MODEL 4
REMARK VINA RESULT:      -8.6      2.805      4.155
REMARK  Name = 131838979
REMARK  7 active torsions:
REMARK  status: ('A' for Active; 'I' for Inactive)
REMARK    1  A    between atoms: O_2  and  C_15
REMARK    2  A    between atoms: O_2  and  C_17
REMARK    3  A    between atoms: C_14  and  C_16
REMARK    4  A    between atoms: C_18  and  C_20
REMARK    5  A    between atoms: C_20  and  C_21
REMARK    6  A    between atoms: C_21  and  C_23
REMARK    7  A    between atoms: C_23  and  C_26
REMARK                            x       y       z     vdW  Elec       q    Type
REMARK                         _______ _______ _______ _____ _____    ______ ____
ROOT
ATOM      1  O   UNL     1     114.880 129.405 134.694  0.00  0.00    +0.000 OA
ATOM      2  C   UNL     1     113.439 129.080 136.679  0.00  0.00    +0.000 A 
ATOM      3  C   UNL     1     113.504 128.482 136.114  0.00  0.00    +0.000 A 
ATOM      4  C   UNL     1     113.854 129.786 136.581  0.00  0.00    +0.000 A 
ATOM      5  C   UNL     1     113.985 128.590 135.452  0.00  0.00    +0.000 A 
ATOM      6  C   UNL     1     114.334 129.894 135.920  0.00  0.00    +0.000 A 
ATOM      7  C   UNL     1     114.400 129.296 135.356  0.00  0.00    +0.000 A 
ENDROOT
BRANCH   3   9
ATOM      8  O   UNL     1     112.289 127.736 136.014  0.00  0.00    +0.000 OA
ATOM      9  C   UNL     1     113.089 127.776 136.212  0.00  0.00    +0.000 C 
BRANCH   9  10
ATOM     10  C   UNL     1     113.474 127.108 136.507  0.00  0.00    +0.000 C 
BRANCH  10  11
ATOM     11  C   UNL     1     113.118 126.366 136.450  0.00  0.00    +0.000 C 
BRANCH  11  13
ATOM     12  O   UNL     1     112.507 124.863 136.150  0.00  0.00    +0.000 OA
ATOM     13  C   UNL     1     113.508 125.699 136.736  0.00  0.00    +0.000 A 
ATOM     14  C   UNL     1     113.202 124.947 136.586  0.00  0.00    +0.000 A 
ATOM     15  C   UNL     1     114.203 125.781 137.172  0.00  0.00    +0.000 A 
ATOM     16  C   UNL     1     113.593 124.278 136.872  0.00  0.00    +0.000 A 
ATOM     17  C   UNL     1     114.593 125.113 137.458  0.00  0.00    +0.000 A 
ATOM     18  C   UNL     1     114.288 124.362 137.307  0.00  0.00    +0.000 A 
ENDBRANCH  11  13
ENDBRANCH  10  11
ENDBRANCH   9  10
ENDBRANCH   3   9
BRANCH   2  19
ATOM     19  O   UNL     1     112.958 128.972 137.341  0.00  0.00    +0.000 OA
BRANCH  19  28
ATOM     20  O   UNL     1     112.076 130.090 137.227  0.00  0.00    +0.000 OA
ATOM     21  O   UNL     1     112.426 130.611 139.621  0.00  0.00    +0.000 OA
ATOM     22  O   UNL     1     113.191 129.319 138.937  0.00  0.00    +0.000 OA
ATOM     23  O   UNL     1     111.428 131.555 138.709  0.00  0.00    +0.000 OA
ATOM     24  C   UNL     1     112.309 130.437 138.823  0.00  0.00    +0.000 C 
ATOM     25  C   UNL     1     112.692 129.791 138.480  0.00  0.00    +0.000 C 
ATOM     26  C   UNL     1     111.810 130.909 138.366  0.00  0.00    +0.000 C 
ATOM     27  C   UNL     1     111.694 130.736 137.568  0.00  0.00    +0.000 C 
ATOM     28  C   UNL     1     112.576 129.617 137.682  0.00  0.00    +0.000 C 
BRANCH  27  31
ATOM     29  O   UNL     1     111.447 131.952 136.859  0.00  0.00    +0.000 OA
ATOM     30  O   UNL     1     110.442 130.937 136.909  0.00  0.00    +0.000 OA
ATOM     31  C   UNL     1     111.195 131.208 137.112  0.00  0.00    +0.000 C 
ENDBRANCH  27  31
ENDBRANCH  19  28
ENDBRANCH   2  19
TORSDOF 7
ENDMDL
MODEL 5
REMARK VINA RESULT:      -8.4      2.070      4.974
REMARK  Name = 131838979
REMARK  7 active torsions:
REMARK  status: ('A' for Active; 'I' for Inactive)
REMARK    1  A    between atoms: O_2  and  C_15
REMARK    2  A    between atoms: O_2  and  C_17
REMARK    3  A    between atoms: C_14  and  C_16
REMARK    4  A    between atoms: C_18  and  C_20
REMARK    5  A    between atoms: C_20  and  C_21
REMARK    6  A    between atoms: C_21  and  C_23
REMARK    7  A    between atoms: C_23  and  C_26
REMARK                            x       y       z     vdW  Elec       q    Type
REMARK                         _______ _______ _______ _____ _____    ______ ____
ROOT
ATOM      1  O   UNL     1     113.531 129.568 134.612  0.00  0.00    +0.000 OA
ATOM      2  C   UNL     1     111.776 128.222 135.724  0.00  0.00    +0.000 A 
ATOM      3  C   UNL     1     112.541 128.239 136.033  0.00  0.00    +0.000 A 
ATOM      4  C   UNL     1     111.596 128.655 135.044  0.00  0.00    +0.000 A 
ATOM      5  C   UNL     1     113.126 128.687 135.662  0.00  0.00    +0.000 A 
ATOM      6  C   UNL     1     112.181 129.103 134.674  0.00  0.00    +0.000 A 
ATOM      7  C   UNL     1     112.946 129.119 134.983  0.00  0.00    +0.000 A 
ENDROOT
BRANCH   3   9
ATOM      8  O   UNL     1     112.500 128.093 137.454  0.00  0.00    +0.000 OA
ATOM      9  C   UNL     1     112.720 127.807 136.712  0.00  0.00    +0.000 C 
BRANCH   9  10
ATOM     10  C   UNL     1     113.120 127.087 136.649  0.00  0.00    +0.000 C 
BRANCH  10  11
ATOM     11  C   UNL     1     113.432 126.728 137.323  0.00  0.00    +0.000 C 
BRANCH  11  13
ATOM     12  O   UNL     1     114.017 125.984 138.675  0.00  0.00    +0.000 OA
ATOM     13  C   UNL     1     113.882 126.041 137.253  0.00  0.00    +0.000 A 
ATOM     14  C   UNL     1     114.174 125.669 137.929  0.00  0.00    +0.000 A 
ATOM     15  C   UNL     1     114.040 125.724 136.508  0.00  0.00    +0.000 A 
ATOM     16  C   UNL     1     114.625 124.980 137.859  0.00  0.00    +0.000 A 
ATOM     17  C   UNL     1     114.489 125.037 136.438  0.00  0.00    +0.000 A 
ATOM     18  C   UNL     1     114.782 124.665 137.113  0.00  0.00    +0.000 A 
ENDBRANCH  11  13
ENDBRANCH  10  11
ENDBRANCH   9  10
ENDBRANCH   3   9
BRANCH   2  19
ATOM     19  O   UNL     1     111.191 127.774 136.094  0.00  0.00    +0.000 OA
BRANCH  19  28
ATOM     20  O   UNL     1     110.170 128.761 136.261  0.00  0.00    +0.000 OA
ATOM     21  O   UNL     1     108.483 127.158 135.416  0.00  0.00    +0.000 OA
ATOM     22  O   UNL     1     110.066 126.706 135.531  0.00  0.00    +0.000 OA
ATOM     23  O   UNL     1     108.026 128.678 135.864  0.00  0.00    +0.000 OA
ATOM     24  C   UNL     1     109.046 127.692 135.698  0.00  0.00    +0.000 C 
ATOM     25  C   UNL     1     109.838 127.466 135.755  0.00  0.00    +0.000 C 
ATOM     26  C   UNL     1     108.817 128.453 135.922  0.00  0.00    +0.000 C 
ATOM     27  C   UNL     1     109.380 128.987 136.204  0.00  0.00    +0.000 C 
ATOM     28  C   UNL     1     110.400 128.000 136.037  0.00  0.00    +0.000 C 
BRANCH  27  31
ATOM     29  O   UNL     1     109.043 130.331 135.855  0.00  0.00    +0.000 OA
ATOM     30  O   UNL     1     109.029 129.922 137.224  0.00  0.00    +0.000 OA
ATOM     31  C   UNL     1     109.150 129.746 136.428  0.00  0.00    +0.000 C 
ENDBRANCH  27  31
ENDBRANCH  19  28
ENDBRANCH   2  19
TORSDOF 7
ENDMDL
MODEL 6
REMARK VINA RESULT:      -8.4      2.669      4.484
REMARK  Name = 131838979
REMARK  7 active torsions:
REMARK  status: ('A' for Active; 'I' for Inactive)
REMARK    1  A    between atoms: O_2  and  C_15
REMARK    2  A    between atoms: O_2  and  C_17
REMARK    3  A    between atoms: C_14  and  C_16
REMARK    4  A    between atoms: C_18  and  C_20
REMARK    5  A    between atoms: C_20  and  C_21
REMARK    6  A    between atoms: C_21  and  C_23
REMARK    7  A    between atoms: C_23  and  C_26
REMARK                            x       y       z     vdW  Elec       q    Type
REMARK                         _______ _______ _______ _____ _____    ______ ____
ROOT
ATOM      1  O   UNL     1     115.017 129.092 134.752  0.00  0.00    +0.000 OA
ATOM      2  C   UNL     1     112.845 128.850 135.915  0.00  0.00    +0.000 A 
ATOM      3  C   UNL     1     113.488 128.380 136.137  0.00  0.00    +0.000 A 
ATOM      4  C   UNL     1     112.928 129.399 135.305  0.00  0.00    +0.000 A 
ATOM      5  C   UNL     1     114.211 128.461 135.749  0.00  0.00    +0.000 A 
ATOM      6  C   UNL     1     113.652 129.480 134.918  0.00  0.00    +0.000 A 
ATOM      7  C   UNL     1     114.293 129.011 135.140  0.00  0.00    +0.000 A 
ENDROOT
BRANCH   3   9
ATOM      8  O   UNL     1     113.405 128.083 137.532  0.00  0.00    +0.000 OA
ATOM      9  C   UNL     1     113.405 127.831 136.747  0.00  0.00    +0.000 C 
BRANCH   9  10
ATOM     10  C   UNL     1     113.321 127.029 136.570  0.00  0.00    +0.000 C 
BRANCH  10  11
ATOM     11  C   UNL     1     113.561 126.459 137.116  0.00  0.00    +0.000 C 
BRANCH  11  13
ATOM     12  O   UNL     1     114.668 125.327 137.581  0.00  0.00    +0.000 OA
ATOM     13  C   UNL     1     113.421 125.660 136.966  0.00  0.00    +0.000 A 
ATOM     14  C   UNL     1     113.975 125.094 137.199  0.00  0.00    +0.000 A 
ATOM     15  C   UNL     1     112.729 125.426 136.583  0.00  0.00    +0.000 A 
ATOM     16  C   UNL     1     113.835 124.294 137.049  0.00  0.00    +0.000 A 
ATOM     17  C   UNL     1     112.589 124.628 136.434  0.00  0.00    +0.000 A 
ATOM     18  C   UNL     1     113.143 124.062 136.666  0.00  0.00    +0.000 A 
ENDBRANCH  11  13
ENDBRANCH  10  11
ENDBRANCH   9  10
ENDBRANCH   3   9
BRANCH   2  19
ATOM     19  O   UNL     1     112.122 128.769 136.303  0.00  0.00    +0.000 OA
BRANCH  19  28
ATOM     20  O   UNL     1     111.899 130.090 136.800  0.00  0.00    +0.000 OA
ATOM     21  O   UNL     1     109.607 130.054 135.867  0.00  0.00    +0.000 OA
ATOM     22  O   UNL     1     110.594 128.745 135.681  0.00  0.00    +0.000 OA
ATOM     23  O   UNL     1     110.148 131.386 136.675  0.00  0.00    +0.000 OA
ATOM     24  C   UNL     1     110.371 130.066 136.178  0.00  0.00    +0.000 C 
ATOM     25  C   UNL     1     110.865 129.411 136.085  0.00  0.00    +0.000 C 
ATOM     26  C   UNL     1     110.642 130.732 136.582  0.00  0.00    +0.000 C 
ATOM     27  C   UNL     1     111.406 130.744 136.893  0.00  0.00    +0.000 C 
ATOM     28  C   UNL     1     111.629 129.423 136.396  0.00  0.00    +0.000 C 
BRANCH  27  31
ATOM     29  O   UNL     1     111.936 132.071 136.876  0.00  0.00    +0.000 OA
ATOM     30  O   UNL     1     111.687 131.416 138.121  0.00  0.00    +0.000 OA
ATOM     31  C   UNL     1     111.676 131.410 137.296  0.00  0.00    +0.000 C 
ENDBRANCH  27  31
ENDBRANCH  19  28
ENDBRANCH   2  19
TORSDOF 7
ENDMDL
MODEL 7
REMARK VINA RESULT:      -8.3      2.223      3.746
REMARK  Name = 131838979
REMARK  7 active torsions:
REMARK  status: ('A' for Active; 'I' for Inactive)
REMARK    1  A    between atoms: O_2  and  C_15
REMARK    2  A    between atoms: O_2  and  C_17
REMARK    3  A    between atoms: C_14  and  C_16
REMARK    4  A    between atoms: C_18  and  C_20
REMARK    5  A    between atoms: C_20  and  C_21
REMARK    6  A    between atoms: C_21  and  C_23
REMARK    7  A    between atoms: C_23  and  C_26
REMARK                            x       y       z     vdW  Elec       q    Type
REMARK                         _______ _______ _______ _____ _____    ______ ____
ROOT
ATOM      1  O   UNL     1     114.998 127.054 141.220  0.00  0.00    +0.000 OA
ATOM      2  C   UNL     1     113.155 127.909 139.807  0.00  0.00    +0.000 A 
ATOM      3  C   UNL     1     113.362 127.111 139.777  0.00  0.00    +0.000 A 
ATOM      4  C   UNL     1     113.563 128.422 140.308  0.00  0.00    +0.000 A 
ATOM      5  C   UNL     1     113.976 126.825 140.248  0.00  0.00    +0.000 A 
ATOM      6  C   UNL     1     114.177 128.137 140.779  0.00  0.00    +0.000 A 
ATOM      7  C   UNL     1     114.383 127.339 140.749  0.00  0.00    +0.000 A 
ENDROOT
BRANCH   3   9
ATOM      8  O   UNL     1     112.171 126.396 139.440  0.00  0.00    +0.000 OA
ATOM      9  C   UNL     1     112.954 126.598 139.276  0.00  0.00    +0.000 C 
BRANCH   9  10
ATOM     10  C   UNL     1     113.329 126.288 138.609  0.00  0.00    +0.000 C 
BRANCH  10  11
ATOM     11  C   UNL     1     112.977 125.674 138.185  0.00  0.00    +0.000 C 
BRANCH  11  13
ATOM     12  O   UNL     1     112.308 124.394 137.388  0.00  0.00    +0.000 OA
ATOM     13  C   UNL     1     113.374 125.331 137.550  0.00  0.00    +0.000 A 
ATOM     14  C   UNL     1     113.040 124.691 137.151  0.00  0.00    +0.000 A 
ATOM     15  C   UNL     1     114.107 125.628 137.312  0.00  0.00    +0.000 A 
ATOM     16  C   UNL     1     113.438 124.347 136.514  0.00  0.00    +0.000 A 
ATOM     17  C   UNL     1     114.504 125.285 136.676  0.00  0.00    +0.000 A 
ATOM     18  C   UNL     1     114.170 124.644 136.278  0.00  0.00    +0.000 A 
ENDBRANCH  11  13
ENDBRANCH  10  11
ENDBRANCH   9  10
ENDBRANCH   3   9
BRANCH   2  19
ATOM     19  O   UNL     1     112.540 128.195 139.336  0.00  0.00    +0.000 OA
BRANCH  19  28
ATOM     20  O   UNL     1     113.191 129.202 138.559  0.00  0.00    +0.000 OA
ATOM     21  O   UNL     1     111.404 130.810 139.145  0.00  0.00    +0.000 OA
ATOM     22  O   UNL     1     111.349 129.267 139.727  0.00  0.00    +0.000 OA
ATOM     23  O   UNL     1     112.650 131.280 138.172  0.00  0.00    +0.000 OA
ATOM     24  C   UNL     1     111.999 130.274 138.949  0.00  0.00    +0.000 C 
ATOM     25  C   UNL     1     111.972 129.501 139.240  0.00  0.00    +0.000 C 
ATOM     26  C   UNL     1     112.623 130.508 138.463  0.00  0.00    +0.000 C 
ATOM     27  C   UNL     1     113.219 129.972 138.268  0.00  0.00    +0.000 C 
ATOM     28  C   UNL     1     112.568 128.965 139.045  0.00  0.00    +0.000 C 
BRANCH  27  31
ATOM     29  O   UNL     1     114.470 130.641 138.095  0.00  0.00    +0.000 OA
ATOM     30  O   UNL     1     113.837 130.010 136.981  0.00  0.00    +0.000 OA
ATOM     31  C   UNL     1     113.842 130.208 137.782  0.00  0.00    +0.000 C 
ENDBRANCH  27  31
ENDBRANCH  19  28
ENDBRANCH   2  19
TORSDOF 7
ENDMDL
MODEL 8
REMARK VINA RESULT:      -8.3      2.675      3.616
REMARK  Name = 131838979
REMARK  7 active torsions:
REMARK  status: ('A' for Active; 'I' for Inactive)
REMARK    1  A    between atoms: O_2  and  C_15
REMARK    2  A    between atoms: O_2  and  C_17
REMARK    3  A    between atoms: C_14  and  C_16
REMARK    4  A    between atoms: C_18  and  C_20
REMARK    5  A    between atoms: C_20  and  C_21
REMARK    6  A    between atoms: C_21  and  C_23
REMARK    7  A    between atoms: C_23  and  C_26
REMARK                            x       y       z     vdW  Elec       q    Type
REMARK                         _______ _______ _______ _____ _____    ______ ____
ROOT
ATOM      1  O   UNL     1     114.708 129.078 134.724  0.00  0.00    +0.000 OA
ATOM      2  C   UNL     1     113.331 128.894 136.773  0.00  0.00    +0.000 A 
ATOM      3  C   UNL     1     113.379 128.258 136.249  0.00  0.00    +0.000 A 
ATOM      4  C   UNL     1     113.743 129.591 136.614  0.00  0.00    +0.000 A 
ATOM      5  C   UNL     1     113.837 128.319 135.566  0.00  0.00    +0.000 A 
ATOM      6  C   UNL     1     114.202 129.652 135.931  0.00  0.00    +0.000 A 
ATOM      7  C   UNL     1     114.249 129.017 135.407  0.00  0.00    +0.000 A 
ENDROOT
BRANCH   3   9
ATOM      8  O   UNL     1     113.232 127.051 136.999  0.00  0.00    +0.000 OA
ATOM      9  C   UNL     1     112.967 127.561 136.408  0.00  0.00    +0.000 C 
BRANCH   9  10
ATOM     10  C   UNL     1     112.288 127.375 135.976  0.00  0.00    +0.000 C 
BRANCH  10  11
ATOM     11  C   UNL     1     111.973 126.614 136.010  0.00  0.00    +0.000 C 
BRANCH  11  13
ATOM     12  O   UNL     1     111.436 125.055 135.949  0.00  0.00    +0.000 OA
ATOM     13  C   UNL     1     111.300 126.427 135.572  0.00  0.00    +0.000 A 
ATOM     14  C   UNL     1     111.032 125.647 135.542  0.00  0.00    +0.000 A 
ATOM     15  C   UNL     1     110.894 127.018 135.165  0.00  0.00    +0.000 A 
ATOM     16  C   UNL     1     110.357 125.459 135.104  0.00  0.00    +0.000 A 
ATOM     17  C   UNL     1     110.221 126.831 134.728  0.00  0.00    +0.000 A 
ATOM     18  C   UNL     1     109.952 126.051 134.697  0.00  0.00    +0.000 A 
ENDBRANCH  11  13
ENDBRANCH  10  11
ENDBRANCH   9  10
ENDBRANCH   3   9
BRANCH   2  19
ATOM     19  O   UNL     1     112.873 128.833 137.456  0.00  0.00    +0.000 OA
BRANCH  19  28
ATOM     20  O   UNL     1     111.966 129.925 137.293  0.00  0.00    +0.000 OA
ATOM     21  O   UNL     1     112.427 130.654 139.613  0.00  0.00    +0.000 OA
ATOM     22  O   UNL     1     113.180 129.318 139.003  0.00  0.00    +0.000 OA
ATOM     23  O   UNL     1     111.367 131.502 138.677  0.00  0.00    +0.000 OA
ATOM     24  C   UNL     1     112.273 130.411 138.840  0.00  0.00    +0.000 C 
ATOM     25  C   UNL     1     112.650 129.743 138.534  0.00  0.00    +0.000 C 
ATOM     26  C   UNL     1     111.743 130.835 138.371  0.00  0.00    +0.000 C 
ATOM     27  C   UNL     1     111.589 130.592 137.598  0.00  0.00    +0.000 C 
ATOM     28  C   UNL     1     112.496 129.500 137.761  0.00  0.00    +0.000 C 
BRANCH  27  31
ATOM     29  O   UNL     1     110.297 130.726 137.003  0.00  0.00    +0.000 OA
ATOM     30  O   UNL     1     111.291 131.731 136.790  0.00  0.00    +0.000 OA
ATOM     31  C   UNL     1     111.059 131.016 137.131  0.00  0.00    +0.000 C 
ENDBRANCH  27  31
ENDBRANCH  19  28
ENDBRANCH   2  19
TORSDOF 7
ENDMDL
MODEL 9
REMARK VINA RESULT:      -8.2      1.941      5.037
REMARK  Name = 131838979
REMARK  7 active torsions:
REMARK  status: ('A' for Active; 'I' for Inactive)
REMARK    1  A    between atoms: O_2  and  C_15
REMARK    2  A    between atoms: O_2  and  C_17
REMARK    3  A    between atoms: C_14  and  C_16
REMARK    4  A    between atoms: C_18  and  C_20
REMARK    5  A    between atoms: C_20  and  C_21
REMARK    6  A    between atoms: C_21  and  C_23
REMARK    7  A    between atoms: C_23  and  C_26
REMARK                            x       y       z     vdW  Elec       q    Type
REMARK                         _______ _______ _______ _____ _____    ______ ____
ROOT
ATOM      1  O   UNL     1     111.903 124.044 136.177  0.00  0.00    +0.000 OA
ATOM      2  C   UNL     1     110.490 125.946 136.892  0.00  0.00    +0.000 A 
ATOM      3  C   UNL     1     110.953 125.544 137.445  0.00  0.00    +0.000 A 
ATOM      4  C   UNL     1     110.500 125.713 136.101  0.00  0.00    +0.000 A 
ATOM      5  C   UNL     1     111.424 124.910 137.207  0.00  0.00    +0.000 A 
ATOM      6  C   UNL     1     110.971 125.079 135.862  0.00  0.00    +0.000 A 
ATOM      7  C   UNL     1     111.432 124.678 136.415  0.00  0.00    +0.000 A 
ENDROOT
BRANCH   3   9
ATOM      8  O   UNL     1     110.273 125.644 138.699  0.00  0.00    +0.000 OA
ATOM      9  C   UNL     1     110.943 125.777 138.237  0.00  0.00    +0.000 C 
BRANCH   9  10
ATOM     10  C   UNL     1     111.605 126.144 138.566  0.00  0.00    +0.000 C 
BRANCH  10  11
ATOM     11  C   UNL     1     111.662 126.237 139.384  0.00  0.00    +0.000 C 
BRANCH  11  13
ATOM     12  O   UNL     1     111.848 126.276 141.023  0.00  0.00    +0.000 OA
ATOM     13  C   UNL     1     112.334 126.582 139.714  0.00  0.00    +0.000 A 
ATOM     14  C   UNL     1     112.427 126.601 140.534  0.00  0.00    +0.000 A 
ATOM     15  C   UNL     1     112.914 126.908 139.226  0.00  0.00    +0.000 A 
ATOM     16  C   UNL     1     113.100 126.947 140.865  0.00  0.00    +0.000 A 
ATOM     17  C   UNL     1     113.585 127.253 139.556  0.00  0.00    +0.000 A 
ATOM     18  C   UNL     1     113.678 127.272 140.376  0.00  0.00    +0.000 A 
ENDBRANCH  11  13
ENDBRANCH  10  11
ENDBRANCH   9  10
ENDBRANCH   3   9
BRANCH   2  19
ATOM     19  O   UNL     1     110.020 126.580 137.130  0.00  0.00    +0.000 OA
BRANCH  19  28
ATOM     20  O   UNL     1     110.500 127.616 136.271  0.00  0.00    +0.000 OA
ATOM     21  O   UNL     1     108.169 128.241 135.721  0.00  0.00    +0.000 OA
ATOM     22  O   UNL     1     108.466 126.997 136.763  0.00  0.00    +0.000 OA
ATOM     23  O   UNL     1     109.425 129.068 135.046  0.00  0.00    +0.000 OA
ATOM     24  C   UNL     1     108.946 128.033 135.904  0.00  0.00    +0.000 C 
ATOM     25  C   UNL     1     109.094 127.410 136.426  0.00  0.00    +0.000 C 
ATOM     26  C   UNL     1     109.575 128.446 135.567  0.00  0.00    +0.000 C 
ATOM     27  C   UNL     1     110.352 128.238 135.750  0.00  0.00    +0.000 C 
ATOM     28  C   UNL     1     109.871 127.202 136.609  0.00  0.00    +0.000 C 
BRANCH  27  31
ATOM     29  O   UNL     1     111.357 129.249 135.838  0.00  0.00    +0.000 OA
ATOM     30  O   UNL     1     111.231 128.468 134.648  0.00  0.00    +0.000 OA
ATOM     31  C   UNL     1     110.979 128.652 135.412  0.00  0.00    +0.000 C 
ENDBRANCH  27  31
ENDBRANCH  19  28
ENDBRANCH   2  19
TORSDOF 7
ENDMDL
MODEL 10
REMARK VINA RESULT:      -8.2      2.397      4.202
REMARK  Name = 131838979
REMARK  7 active torsions:
REMARK  status: ('A' for Active; 'I' for Inactive)
REMARK    1  A    between atoms: O_2  and  C_15
REMARK    2  A    between atoms: O_2  and  C_17
REMARK    3  A    between atoms: C_14  and  C_16
REMARK    4  A    between atoms: C_18  and  C_20
REMARK    5  A    between atoms: C_20  and  C_21
REMARK    6  A    between atoms: C_21  and  C_23
REMARK    7  A    between atoms: C_23  and  C_26
REMARK                            x       y       z     vdW  Elec       q    Type
REMARK                         _______ _______ _______ _____ _____    ______ ____
ROOT
ATOM      1  O   UNL     1     113.383 128.444 139.899  0.00  0.00    +0.000 OA
ATOM      2  C   UNL     1     112.736 127.409 137.746  0.00  0.00    +0.000 A 
ATOM      3  C   UNL     1     112.880 128.221 137.787  0.00  0.00    +0.000 A 
ATOM      4  C   UNL     1     112.807 126.944 138.423  0.00  0.00    +0.000 A 
ATOM      5  C   UNL     1     113.096 128.566 138.505  0.00  0.00    +0.000 A 
ATOM      6  C   UNL     1     113.023 127.288 139.141  0.00  0.00    +0.000 A 
ATOM      7  C   UNL     1     113.167 128.099 139.181  0.00  0.00    +0.000 A 
ENDROOT
BRANCH   3   9
ATOM      8  O   UNL     1     112.062 128.905 136.836  0.00  0.00    +0.000 OA
ATOM      9  C   UNL     1     112.809 128.687 137.110  0.00  0.00    +0.000 C 
BRANCH   9  10
ATOM     10  C   UNL     1     113.485 128.935 136.707  0.00  0.00    +0.000 C 
BRANCH  10  11
ATOM     11  C   UNL     1     113.482 129.650 136.295  0.00  0.00    +0.000 C 
BRANCH  11  13
ATOM     12  O   UNL     1     114.170 131.147 136.380  0.00  0.00    +0.000 OA
ATOM     13  C   UNL     1     114.111 129.843 135.799  0.00  0.00    +0.000 A 
ATOM     14  C   UNL     1     114.455 130.592 135.842  0.00  0.00    +0.000 A 
ATOM     15  C   UNL     1     114.398 129.288 135.260  0.00  0.00    +0.000 A 
ATOM     16  C   UNL     1     115.085 130.785 135.345  0.00  0.00    +0.000 A 
ATOM     17  C   UNL     1     115.027 129.481 134.764  0.00  0.00    +0.000 A 
ATOM     18  C   UNL     1     115.371 130.230 134.806  0.00  0.00    +0.000 A 
ENDBRANCH  11  13
ENDBRANCH  10  11
ENDBRANCH   9  10
ENDBRANCH   3   9
BRANCH   2  19
ATOM     19  O   UNL     1     112.520 127.065 137.028  0.00  0.00    +0.000 OA
BRANCH  19  28
ATOM     20  O   UNL     1     113.536 126.071 136.879  0.00  0.00    +0.000 OA
ATOM     21  O   UNL     1     111.808 124.388 136.325  0.00  0.00    +0.000 OA
ATOM     22  O   UNL     1     111.368 125.943 136.658  0.00  0.00    +0.000 OA
ATOM     23  O   UNL     1     113.399 123.955 136.362  0.00  0.00    +0.000 OA
ATOM     24  C   UNL     1     112.384 124.949 136.510  0.00  0.00    +0.000 C 
ATOM     25  C   UNL     1     112.164 125.727 136.677  0.00  0.00    +0.000 C 
ATOM     26  C   UNL     1     113.180 124.733 136.528  0.00  0.00    +0.000 C 
ATOM     27  C   UNL     1     113.756 125.294 136.713  0.00  0.00    +0.000 C 
ATOM     28  C   UNL     1     112.740 126.288 136.861  0.00  0.00    +0.000 C 
BRANCH  27  31
ATOM     29  O   UNL     1     114.855 124.676 137.385  0.00  0.00    +0.000 OA
ATOM     30  O   UNL     1     115.043 125.261 136.095  0.00  0.00    +0.000 OA
ATOM     31  C   UNL     1     114.551 125.077 136.731  0.00  0.00    +0.000 C 
ENDBRANCH  27  31
ENDBRANCH  19  28
ENDBRANCH   2  19
TORSDOF 7
ENDMDL
