MODEL 1
REMARK VINA RESULT:     -10.6      0.000      0.000
REMARK  Name = 44258173
REMARK  5 active torsions:
REMARK  status: ('A' for Active; 'I' for Inactive)
REMARK    1  A    between atoms: O_1  and  C_15
REMARK    2  A    between atoms: O_1  and  C_16
REMARK    3  A    between atoms: O_13  and  C_39
REMARK    4  A    between atoms: C_19  and  C_25
REMARK    5  A    between atoms: C_35  and  C_36
REMARK                            x       y       z     vdW  Elec       q    Type
REMARK                         _______ _______ _______ _____ _____    ______ ____
ROOT
ATOM      1  O   UNL     1     106.408 128.142 144.657  0.00  0.00    +0.000 OA
ATOM      2  O   UNL     1     105.426 125.791 143.363  0.00  0.00    +0.000 OA
ATOM      3  O   UNL     1     106.493 125.597 146.032  0.00  0.00    +0.000 OA
ATOM      4  O   UNL     1     106.950 128.087 145.993  0.00  0.00    +0.000 OA
ATOM      5  C   UNL     1     105.917 126.966 144.010  0.00  0.00    +0.000 A 
ATOM      6  C   UNL     1     106.258 127.331 144.667  0.00  0.00    +0.000 A 
ATOM      7  C   UNL     1     105.767 126.155 144.020  0.00  0.00    +0.000 A 
ATOM      8  C   UNL     1     106.449 126.884 145.334  0.00  0.00    +0.000 A 
ATOM      9  C   UNL     1     105.958 125.709 144.687  0.00  0.00    +0.000 A 
ATOM     10  C   UNL     1     106.299 126.073 145.344  0.00  0.00    +0.000 A 
ATOM     11  C   UNL     1     106.804 127.276 146.011  0.00  0.00    +0.000 A 
ATOM     12  C   UNL     1     107.005 126.815 146.710  0.00  0.00    +0.000 A 
ATOM     13  C   UNL     1     106.848 125.970 146.720  0.00  0.00    +0.000 A 
ENDROOT
BRANCH   5  18
ATOM     14  O   UNL     1     105.059 127.897 143.348  0.00  0.00    +0.000 OA
ATOM     15  O   UNL     1     106.490 127.784 141.332  0.00  0.00    +0.000 OA
ATOM     16  O   UNL     1     105.155 128.753 141.343  0.00  0.00    +0.000 OA
ATOM     17  C   UNL     1     106.204 127.375 142.671  0.00  0.00    +0.000 C 
ATOM     18  C   UNL     1     105.726 127.413 143.343  0.00  0.00    +0.000 C 
ATOM     19  C   UNL     1     106.013 127.822 142.004  0.00  0.00    +0.000 C 
ATOM     20  C   UNL     1     104.868 128.344 142.682  0.00  0.00    +0.000 C 
ATOM     21  C   UNL     1     105.345 128.306 142.009  0.00  0.00    +0.000 C 
ATOM     22  C   UNL     1     104.200 128.828 142.687  0.00  0.00    +0.000 C 
BRANCH  17  23
ATOM     23  O   UNL     1     106.872 126.890 142.666  0.00  0.00    +0.000 OA
BRANCH  23  28
ATOM     24  O   UNL     1     107.820 127.959 142.639  0.00  0.00    +0.000 OA
ATOM     25  O   UNL     1     107.885 125.968 141.748  0.00  0.00    +0.000 OA
ATOM     26  O   UNL     1     109.340 126.574 141.261  0.00  0.00    +0.000 OA
ATOM     27  O   UNL     1     109.782 128.104 141.694  0.00  0.00    +0.000 OA
ATOM     28  C   UNL     1     107.599 127.195 142.423  0.00  0.00    +0.000 C 
ATOM     29  C   UNL     1     108.106 126.733 141.964  0.00  0.00    +0.000 C 
ATOM     30  C   UNL     1     108.834 127.036 141.721  0.00  0.00    +0.000 C 
ATOM     31  C   UNL     1     109.054 127.801 141.937  0.00  0.00    +0.000 C 
ATOM     32  C   UNL     1     108.547 128.262 142.397  0.00  0.00    +0.000 C 
ATOM     33  C   UNL     1     108.769 129.027 142.613  0.00  0.00    +0.000 C 
ENDBRANCH  23  28
ENDBRANCH  17  23
ENDBRANCH   5  18
BRANCH  13  35
ATOM     34  O   UNL     1     107.609 124.175 149.382  0.00  0.00    +0.000 OA
ATOM     35  C   UNL     1     107.038 125.521 147.385  0.00  0.00    +0.000 A 
ATOM     36  C   UNL     1     106.440 125.249 147.883  0.00  0.00    +0.000 A 
ATOM     37  C   UNL     1     107.827 125.345 147.553  0.00  0.00    +0.000 A 
ATOM     38  C   UNL     1     106.631 124.799 148.549  0.00  0.00    +0.000 A 
ATOM     39  C   UNL     1     108.017 124.897 148.218  0.00  0.00    +0.000 A 
ATOM     40  C   UNL     1     107.419 124.624 148.716  0.00  0.00    +0.000 A 
BRANCH  38  41
ATOM     41  O   UNL     1     106.032 124.526 149.047  0.00  0.00    +0.000 OA
ATOM     42  C   UNL     1     105.373 124.999 149.196  0.00  0.00    +0.000 C 
ENDBRANCH  38  41
ENDBRANCH  13  35
TORSDOF 5
ENDMDL
MODEL 2
REMARK VINA RESULT:     -10.5      7.015      9.095
REMARK  Name = 44258173
REMARK  5 active torsions:
REMARK  status: ('A' for Active; 'I' for Inactive)
REMARK    1  A    between atoms: O_1  and  C_15
REMARK    2  A    between atoms: O_1  and  C_16
REMARK    3  A    between atoms: O_13  and  C_39
REMARK    4  A    between atoms: C_19  and  C_25
REMARK    5  A    between atoms: C_35  and  C_36
REMARK                            x       y       z     vdW  Elec       q    Type
REMARK                         _______ _______ _______ _____ _____    ______ ____
ROOT
ATOM      1  O   UNL     1     113.351 126.022 139.426  0.00  0.00    +0.000 OA
ATOM      2  O   UNL     1     112.788 127.447 137.013  0.00  0.00    +0.000 OA
ATOM      3  O   UNL     1     113.630 128.902 139.354  0.00  0.00    +0.000 OA
ATOM      4  O   UNL     1     113.774 126.714 140.619  0.00  0.00    +0.000 OA
ATOM      5  C   UNL     1     113.069 126.735 138.220  0.00  0.00    +0.000 A 
ATOM      6  C   UNL     1     113.302 126.734 139.011  0.00  0.00    +0.000 A 
ATOM      7  C   UNL     1     113.021 127.447 137.805  0.00  0.00    +0.000 A 
ATOM      8  C   UNL     1     113.488 127.445 139.388  0.00  0.00    +0.000 A 
ATOM      9  C   UNL     1     113.206 128.157 138.181  0.00  0.00    +0.000 A 
ATOM     10  C   UNL     1     113.440 128.156 138.973  0.00  0.00    +0.000 A 
ATOM     11  C   UNL     1     113.729 127.429 140.212  0.00  0.00    +0.000 A 
ATOM     12  C   UNL     1     113.923 128.167 140.610  0.00  0.00    +0.000 A 
ATOM     13  C   UNL     1     113.873 128.908 140.178  0.00  0.00    +0.000 A 
ENDROOT
BRANCH   5  18
ATOM     14  O   UNL     1     113.439 125.660 137.353  0.00  0.00    +0.000 OA
ATOM     15  O   UNL     1     111.219 124.622 137.694  0.00  0.00    +0.000 OA
ATOM     16  O   UNL     1     112.329 123.894 136.715  0.00  0.00    +0.000 OA
ATOM     17  C   UNL     1     112.144 125.679 137.957  0.00  0.00    +0.000 C 
ATOM     18  C   UNL     1     112.884 126.024 137.843  0.00  0.00    +0.000 C 
ATOM     19  C   UNL     1     111.959 124.968 137.580  0.00  0.00    +0.000 C 
ATOM     20  C   UNL     1     113.254 124.950 136.977  0.00  0.00    +0.000 C 
ATOM     21  C   UNL     1     112.514 124.603 137.091  0.00  0.00    +0.000 C 
ATOM     22  C   UNL     1     113.809 124.586 136.488  0.00  0.00    +0.000 C 
BRANCH  17  23
ATOM     23  O   UNL     1     111.589 126.043 138.447  0.00  0.00    +0.000 OA
BRANCH  23  28
ATOM     24  O   UNL     1     110.702 126.372 137.376  0.00  0.00    +0.000 OA
ATOM     25  O   UNL     1     110.307 125.954 139.481  0.00  0.00    +0.000 OA
ATOM     26  O   UNL     1     108.779 126.238 138.928  0.00  0.00    +0.000 OA
ATOM     27  O   UNL     1     108.533 126.612 137.339  0.00  0.00    +0.000 OA
ATOM     28  C   UNL     1     110.825 126.185 138.169  0.00  0.00    +0.000 C 
ATOM     29  C   UNL     1     110.184 126.141 138.687  0.00  0.00    +0.000 C 
ATOM     30  C   UNL     1     109.420 126.283 138.410  0.00  0.00    +0.000 C 
ATOM     31  C   UNL     1     109.298 126.469 137.616  0.00  0.00    +0.000 C 
ATOM     32  C   UNL     1     109.939 126.514 137.099  0.00  0.00    +0.000 C 
ATOM     33  C   UNL     1     109.815 126.701 136.305  0.00  0.00    +0.000 C 
ENDBRANCH  23  28
ENDBRANCH  17  23
ENDBRANCH   5  18
BRANCH  13  35
ATOM     34  O   UNL     1     114.612 131.755 141.674  0.00  0.00    +0.000 OA
ATOM     35  C   UNL     1     114.058 129.620 140.552  0.00  0.00    +0.000 A 
ATOM     36  C   UNL     1     113.484 130.013 140.996  0.00  0.00    +0.000 A 
ATOM     37  C   UNL     1     114.815 129.938 140.482  0.00  0.00    +0.000 A 
ATOM     38  C   UNL     1     113.670 130.725 141.370  0.00  0.00    +0.000 A 
ATOM     39  C   UNL     1     115.000 130.649 140.855  0.00  0.00    +0.000 A 
ATOM     40  C   UNL     1     114.428 131.043 141.300  0.00  0.00    +0.000 A 
BRANCH  38  41
ATOM     41  O   UNL     1     113.096 131.119 141.815  0.00  0.00    +0.000 OA
ATOM     42  C   UNL     1     112.503 130.690 142.194  0.00  0.00    +0.000 C 
ENDBRANCH  38  41
ENDBRANCH  13  35
TORSDOF 5
ENDMDL
MODEL 3
REMARK VINA RESULT:     -10.4      1.888      6.332
REMARK  Name = 44258173
REMARK  5 active torsions:
REMARK  status: ('A' for Active; 'I' for Inactive)
REMARK    1  A    between atoms: O_1  and  C_15
REMARK    2  A    between atoms: O_1  and  C_16
REMARK    3  A    between atoms: O_13  and  C_39
REMARK    4  A    between atoms: C_19  and  C_25
REMARK    5  A    between atoms: C_35  and  C_36
REMARK                            x       y       z     vdW  Elec       q    Type
REMARK                         _______ _______ _______ _____ _____    ______ ____
ROOT
ATOM      1  O   UNL     1     105.789 127.183 146.444  0.00  0.00    +0.000 OA
ATOM      2  O   UNL     1     106.319 124.939 144.755  0.00  0.00    +0.000 OA
ATOM      3  O   UNL     1     105.448 127.421 143.579  0.00  0.00    +0.000 OA
ATOM      4  O   UNL     1     105.351 128.443 145.894  0.00  0.00    +0.000 OA
ATOM      5  C   UNL     1     106.054 126.061 145.599  0.00  0.00    +0.000 A 
ATOM      6  C   UNL     1     105.821 126.847 145.691  0.00  0.00    +0.000 A 
ATOM      7  C   UNL     1     106.086 125.726 144.846  0.00  0.00    +0.000 A 
ATOM      8  C   UNL     1     105.621 127.298 145.028  0.00  0.00    +0.000 A 
ATOM      9  C   UNL     1     105.887 126.176 144.185  0.00  0.00    +0.000 A 
ATOM     10  C   UNL     1     105.654 126.963 144.276  0.00  0.00    +0.000 A 
ATOM     11  C   UNL     1     105.381 128.116 145.138  0.00  0.00    +0.000 A 
ATOM     12  C   UNL     1     105.171 128.591 144.452  0.00  0.00    +0.000 A 
ATOM     13  C   UNL     1     105.205 128.241 143.668  0.00  0.00    +0.000 A 
ENDROOT
BRANCH   5  18
ATOM     14  O   UNL     1     106.990 125.710 146.621  0.00  0.00    +0.000 OA
ATOM     15  O   UNL     1     105.382 124.060 147.525  0.00  0.00    +0.000 OA
ATOM     16  O   UNL     1     106.853 124.259 148.245  0.00  0.00    +0.000 OA
ATOM     17  C   UNL     1     105.718 125.061 146.562  0.00  0.00    +0.000 C 
ATOM     18  C   UNL     1     106.254 125.611 146.261  0.00  0.00    +0.000 C 
ATOM     19  C   UNL     1     105.918 124.610 147.224  0.00  0.00    +0.000 C 
ATOM     20  C   UNL     1     107.189 125.260 147.282  0.00  0.00    +0.000 C 
ATOM     21  C   UNL     1     106.654 124.709 147.584  0.00  0.00    +0.000 C 
ATOM     22  C   UNL     1     107.925 125.359 147.642  0.00  0.00    +0.000 C 
BRANCH  17  23
ATOM     23  O   UNL     1     104.982 124.962 146.202  0.00  0.00    +0.000 OA
BRANCH  23  28
ATOM     24  O   UNL     1     104.241 125.507 147.295  0.00  0.00    +0.000 OA
ATOM     25  O   UNL     1     103.711 123.976 145.832  0.00  0.00    +0.000 OA
ATOM     26  O   UNL     1     102.335 124.029 146.741  0.00  0.00    +0.000 OA
ATOM     27  O   UNL     1     102.229 125.067 148.019  0.00  0.00    +0.000 OA
ATOM     28  C   UNL     1     104.294 124.988 146.657  0.00  0.00    +0.000 C 
ATOM     29  C   UNL     1     103.659 124.496 146.472  0.00  0.00    +0.000 C 
ATOM     30  C   UNL     1     102.970 124.522 146.926  0.00  0.00    +0.000 C 
ATOM     31  C   UNL     1     102.918 125.041 147.564  0.00  0.00    +0.000 C 
ATOM     32  C   UNL     1     103.553 125.534 147.749  0.00  0.00    +0.000 C 
ATOM     33  C   UNL     1     103.500 126.053 148.388  0.00  0.00    +0.000 C 
ENDBRANCH  23  28
ENDBRANCH  17  23
ENDBRANCH   5  18
BRANCH  13  35
ATOM     34  O   UNL     1     104.406 130.034 141.016  0.00  0.00    +0.000 OA
ATOM     35  C   UNL     1     105.005 128.690 143.004  0.00  0.00    +0.000 A 
ATOM     36  C   UNL     1     105.597 128.966 142.500  0.00  0.00    +0.000 A 
ATOM     37  C   UNL     1     104.214 128.862 142.846  0.00  0.00    +0.000 A 
ATOM     38  C   UNL     1     105.397 129.414 141.837  0.00  0.00    +0.000 A 
ATOM     39  C   UNL     1     104.015 129.310 142.183  0.00  0.00    +0.000 A 
ATOM     40  C   UNL     1     104.605 129.586 141.679  0.00  0.00    +0.000 A 
BRANCH  38  41
ATOM     41  O   UNL     1     105.988 129.690 141.332  0.00  0.00    +0.000 OA
ATOM     42  C   UNL     1     106.720 129.912 141.639  0.00  0.00    +0.000 C 
ENDBRANCH  38  41
ENDBRANCH  13  35
TORSDOF 5
ENDMDL
MODEL 4
REMARK VINA RESULT:     -10.4      5.622      9.129
REMARK  Name = 44258173
REMARK  5 active torsions:
REMARK  status: ('A' for Active; 'I' for Inactive)
REMARK    1  A    between atoms: O_1  and  C_15
REMARK    2  A    between atoms: O_1  and  C_16
REMARK    3  A    between atoms: O_13  and  C_39
REMARK    4  A    between atoms: C_19  and  C_25
REMARK    5  A    between atoms: C_35  and  C_36
REMARK                            x       y       z     vdW  Elec       q    Type
REMARK                         _______ _______ _______ _____ _____    ______ ____
ROOT
ATOM      1  O   UNL     1     112.727 129.109 139.095  0.00  0.00    +0.000 OA
ATOM      2  O   UNL     1     114.248 127.710 141.070  0.00  0.00    +0.000 OA
ATOM      3  O   UNL     1     113.068 126.242 138.890  0.00  0.00    +0.000 OA
ATOM      4  O   UNL     1     112.120 128.410 137.988  0.00  0.00    +0.000 OA
ATOM      5  C   UNL     1     113.488 128.409 140.082  0.00  0.00    +0.000 A 
ATOM      6  C   UNL     1     113.037 128.404 139.391  0.00  0.00    +0.000 A 
ATOM      7  C   UNL     1     113.798 127.704 140.378  0.00  0.00    +0.000 A 
ATOM      8  C   UNL     1     112.897 127.693 138.996  0.00  0.00    +0.000 A 
ATOM      9  C   UNL     1     113.658 126.994 139.983  0.00  0.00    +0.000 A 
ATOM     10  C   UNL     1     113.207 126.988 139.292  0.00  0.00    +0.000 A 
ATOM     11  C   UNL     1     112.426 127.701 138.277  0.00  0.00    +0.000 A 
ATOM     12  C   UNL     1     112.277 126.963 137.861  0.00  0.00    +0.000 A 
ATOM     13  C   UNL     1     112.600 126.230 138.169  0.00  0.00    +0.000 A 
ENDROOT
BRANCH   5  18
ATOM     14  O   UNL     1     114.201 129.643 140.196  0.00  0.00    +0.000 OA
ATOM     15  O   UNL     1     112.903 130.205 142.227  0.00  0.00    +0.000 OA
ATOM     16  O   UNL     1     114.048 131.251 141.663  0.00  0.00    +0.000 OA
ATOM     17  C   UNL     1     113.196 129.307 141.154  0.00  0.00    +0.000 C 
ATOM     18  C   UNL     1     113.628 129.120 140.478  0.00  0.00    +0.000 C 
ATOM     19  C   UNL     1     113.336 130.018 141.550  0.00  0.00    +0.000 C 
ATOM     20  C   UNL     1     114.341 130.353 140.591  0.00  0.00    +0.000 C 
ATOM     21  C   UNL     1     113.909 130.541 141.268  0.00  0.00    +0.000 C 
ATOM     22  C   UNL     1     114.913 130.876 140.309  0.00  0.00    +0.000 C 
BRANCH  17  23
ATOM     23  O   UNL     1     112.623 128.784 141.436  0.00  0.00    +0.000 OA
BRANCH  23  28
ATOM     24  O   UNL     1     111.516 129.638 141.138  0.00  0.00    +0.000 OA
ATOM     25  O   UNL     1     111.803 128.173 142.731  0.00  0.00    +0.000 OA
ATOM     26  O   UNL     1     110.286 128.721 143.080  0.00  0.00    +0.000 OA
ATOM     27  O   UNL     1     109.590 129.881 142.135  0.00  0.00    +0.000 OA
ATOM     28  C   UNL     1     111.864 129.059 141.611  0.00  0.00    +0.000 C 
ATOM     29  C   UNL     1     111.454 128.753 142.258  0.00  0.00    +0.000 C 
ATOM     30  C   UNL     1     110.696 129.027 142.433  0.00  0.00    +0.000 C 
ATOM     31  C   UNL     1     110.349 129.606 141.960  0.00  0.00    +0.000 C 
ATOM     32  C   UNL     1     110.759 129.912 141.313  0.00  0.00    +0.000 C 
ATOM     33  C   UNL     1     110.410 130.492 140.841  0.00  0.00    +0.000 C 
ENDBRANCH  23  28
ENDBRANCH  17  23
ENDBRANCH   5  18
BRANCH  13  35
ATOM     34  O   UNL     1     112.043 123.382 136.597  0.00  0.00    +0.000 OA
ATOM     35  C   UNL     1     112.461 125.518 137.776  0.00  0.00    +0.000 A 
ATOM     36  C   UNL     1     113.040 125.200 137.281  0.00  0.00    +0.000 A 
ATOM     37  C   UNL     1     111.743 125.124 137.877  0.00  0.00    +0.000 A 
ATOM     38  C   UNL     1     112.900 124.488 136.888  0.00  0.00    +0.000 A 
ATOM     39  C   UNL     1     111.604 124.412 137.485  0.00  0.00    +0.000 A 
ATOM     40  C   UNL     1     112.182 124.094 136.990  0.00  0.00    +0.000 A 
BRANCH  38  41
ATOM     41  O   UNL     1     113.479 124.170 136.393  0.00  0.00    +0.000 OA
ATOM     42  C   UNL     1     114.194 124.566 136.288  0.00  0.00    +0.000 C 
ENDBRANCH  38  41
ENDBRANCH  13  35
TORSDOF 5
ENDMDL
MODEL 5
REMARK VINA RESULT:     -10.2      7.172     10.385
REMARK  Name = 44258173
REMARK  5 active torsions:
REMARK  status: ('A' for Active; 'I' for Inactive)
REMARK    1  A    between atoms: O_1  and  C_15
REMARK    2  A    between atoms: O_1  and  C_16
REMARK    3  A    between atoms: O_13  and  C_39
REMARK    4  A    between atoms: C_19  and  C_25
REMARK    5  A    between atoms: C_35  and  C_36
REMARK                            x       y       z     vdW  Elec       q    Type
REMARK                         _______ _______ _______ _____ _____    ______ ____
ROOT
ATOM      1  O   UNL     1     113.220 128.135 136.905  0.00  0.00    +0.000 OA
ATOM      2  O   UNL     1     111.557 125.875 136.361  0.00  0.00    +0.000 OA
ATOM      3  O   UNL     1     110.540 128.528 135.885  0.00  0.00    +0.000 OA
ATOM      4  O   UNL     1     112.748 129.480 136.680  0.00  0.00    +0.000 OA
ATOM      5  C   UNL     1     112.388 127.005 136.633  0.00  0.00    +0.000 A 
ATOM      6  C   UNL     1     112.502 127.822 136.646  0.00  0.00    +0.000 A 
ATOM      7  C   UNL     1     111.670 126.693 136.374  0.00  0.00    +0.000 A 
ATOM      8  C   UNL     1     111.896 128.327 136.401  0.00  0.00    +0.000 A 
ATOM      9  C   UNL     1     111.065 127.197 136.130  0.00  0.00    +0.000 A 
ATOM     10  C   UNL     1     111.178 128.014 136.143  0.00  0.00    +0.000 A 
ATOM     11  C   UNL     1     112.027 129.176 136.420  0.00  0.00    +0.000 A 
ATOM     12  C   UNL     1     111.400 129.707 136.166  0.00  0.00    +0.000 A 
ATOM     13  C   UNL     1     110.652 129.381 135.897  0.00  0.00    +0.000 A 
ENDROOT
BRANCH   5  18
ATOM     14  O   UNL     1     113.628 126.342 136.375  0.00  0.00    +0.000 OA
ATOM     15  O   UNL     1     113.541 125.305 138.620  0.00  0.00    +0.000 OA
ATOM     16  O   UNL     1     114.809 124.988 137.614  0.00  0.00    +0.000 OA
ATOM     17  C   UNL     1     112.964 126.155 137.626  0.00  0.00    +0.000 C 
ATOM     18  C   UNL     1     112.994 126.501 136.878  0.00  0.00    +0.000 C 
ATOM     19  C   UNL     1     113.570 125.651 137.872  0.00  0.00    +0.000 C 
ATOM     20  C   UNL     1     114.233 125.839 136.620  0.00  0.00    +0.000 C 
ATOM     21  C   UNL     1     114.205 125.492 137.368  0.00  0.00    +0.000 C 
ATOM     22  C   UNL     1     114.867 125.680 136.117  0.00  0.00    +0.000 C 
BRANCH  17  23
ATOM     23  O   UNL     1     112.330 126.313 138.130  0.00  0.00    +0.000 OA
BRANCH  23  28
ATOM     24  O   UNL     1     113.096 127.057 139.079  0.00  0.00    +0.000 OA
ATOM     25  O   UNL     1     111.357 125.766 139.344  0.00  0.00    +0.000 OA
ATOM     26  O   UNL     1     111.637 126.236 140.901  0.00  0.00    +0.000 OA
ATOM     27  O   UNL     1     112.889 127.254 141.243  0.00  0.00    +0.000 OA
ATOM     28  C   UNL     1     112.471 126.549 138.908  0.00  0.00    +0.000 C 
ATOM     29  C   UNL     1     111.984 126.275 139.515  0.00  0.00    +0.000 C 
ATOM     30  C   UNL     1     112.123 126.510 140.294  0.00  0.00    +0.000 C 
ATOM     31  C   UNL     1     112.750 127.019 140.464  0.00  0.00    +0.000 C 
ATOM     32  C   UNL     1     113.236 127.292 139.857  0.00  0.00    +0.000 C 
ATOM     33  C   UNL     1     113.863 127.801 140.028  0.00  0.00    +0.000 C 
ENDBRANCH  23  28
ENDBRANCH  17  23
ENDBRANCH   5  18
BRANCH  13  35
ATOM     34  O   UNL     1     108.225 131.389 134.913  0.00  0.00    +0.000 OA
ATOM     35  C   UNL     1     110.045 129.883 135.651  0.00  0.00    +0.000 A 
ATOM     36  C   UNL     1     109.497 130.167 136.199  0.00  0.00    +0.000 A 
ATOM     37  C   UNL     1     109.986 130.101 134.858  0.00  0.00    +0.000 A 
ATOM     38  C   UNL     1     108.890 130.669 135.953  0.00  0.00    +0.000 A 
ATOM     39  C   UNL     1     109.379 130.602 134.612  0.00  0.00    +0.000 A 
ATOM     40  C   UNL     1     108.832 130.887 135.159  0.00  0.00    +0.000 A 
BRANCH  38  41
ATOM     41  O   UNL     1     108.343 130.953 136.501  0.00  0.00    +0.000 OA
ATOM     42  C   UNL     1     108.595 131.192 137.248  0.00  0.00    +0.000 C 
ENDBRANCH  38  41
ENDBRANCH  13  35
TORSDOF 5
ENDMDL
MODEL 6
REMARK VINA RESULT:     -10.2      6.144      7.390
REMARK  Name = 44258173
REMARK  5 active torsions:
REMARK  status: ('A' for Active; 'I' for Inactive)
REMARK    1  A    between atoms: O_1  and  C_15
REMARK    2  A    between atoms: O_1  and  C_16
REMARK    3  A    between atoms: O_13  and  C_39
REMARK    4  A    between atoms: C_19  and  C_25
REMARK    5  A    between atoms: C_35  and  C_36
REMARK                            x       y       z     vdW  Elec       q    Type
REMARK                         _______ _______ _______ _____ _____    ______ ____
ROOT
ATOM      1  O   UNL     1     111.533 132.408 142.489  0.00  0.00    +0.000 OA
ATOM      2  O   UNL     1     111.023 129.660 143.086  0.00  0.00    +0.000 OA
ATOM      3  O   UNL     1     111.876 131.432 145.192  0.00  0.00    +0.000 OA
ATOM      4  O   UNL     1     111.962 133.327 143.516  0.00  0.00    +0.000 OA
ATOM      5  C   UNL     1     111.278 131.034 142.788  0.00  0.00    +0.000 A 
ATOM      6  C   UNL     1     111.504 131.788 143.033  0.00  0.00    +0.000 A 
ATOM      7  C   UNL     1     111.249 130.414 143.333  0.00  0.00    +0.000 A 
ATOM      8  C   UNL     1     111.702 131.923 143.823  0.00  0.00    +0.000 A 
ATOM      9  C   UNL     1     111.446 130.549 144.121  0.00  0.00    +0.000 A 
ATOM     10  C   UNL     1     111.673 131.304 144.368  0.00  0.00    +0.000 A 
ATOM     11  C   UNL     1     111.936 132.714 144.066  0.00  0.00    +0.000 A 
ATOM     12  C   UNL     1     112.143 132.860 144.888  0.00  0.00    +0.000 A 
ATOM     13  C   UNL     1     112.112 132.215 145.454  0.00  0.00    +0.000 A 
ENDROOT
BRANCH   5  18
ATOM     14  O   UNL     1     110.288 130.863 141.771  0.00  0.00    +0.000 OA
ATOM     15  O   UNL     1     112.074 130.564 140.084  0.00  0.00    +0.000 OA
ATOM     16  O   UNL     1     110.489 130.494 139.630  0.00  0.00    +0.000 OA
ATOM     17  C   UNL     1     111.676 130.799 141.436  0.00  0.00    +0.000 C 
ATOM     18  C   UNL     1     111.081 130.899 141.998  0.00  0.00    +0.000 C 
ATOM     19  C   UNL     1     111.479 130.664 140.646  0.00  0.00    +0.000 C 
ATOM     20  C   UNL     1     110.091 130.729 140.982  0.00  0.00    +0.000 C 
ATOM     21  C   UNL     1     110.686 130.629 140.419  0.00  0.00    +0.000 C 
ATOM     22  C   UNL     1     109.299 130.693 140.755  0.00  0.00    +0.000 C 
BRANCH  17  23
ATOM     23  O   UNL     1     112.468 130.834 141.663  0.00  0.00    +0.000 OA
BRANCH  23  28
ATOM     24  O   UNL     1     112.754 129.460 141.396  0.00  0.00    +0.000 OA
ATOM     25  O   UNL     1     114.002 131.241 141.210  0.00  0.00    +0.000 OA
ATOM     26  O   UNL     1     115.054 130.070 140.716  0.00  0.00    +0.000 OA
ATOM     27  O   UNL     1     114.573 128.492 140.676  0.00  0.00    +0.000 OA
ATOM     28  C   UNL     1     112.994 130.248 141.416  0.00  0.00    +0.000 C 
ATOM     29  C   UNL     1     113.761 130.451 141.190  0.00  0.00    +0.000 C 
ATOM     30  C   UNL     1     114.287 129.866 140.943  0.00  0.00    +0.000 C 
ATOM     31  C   UNL     1     114.046 129.078 140.923  0.00  0.00    +0.000 C 
ATOM     32  C   UNL     1     113.280 128.875 141.150  0.00  0.00    +0.000 C 
ATOM     33  C   UNL     1     113.040 128.085 141.129  0.00  0.00    +0.000 C 
ENDBRANCH  23  28
ENDBRANCH  17  23
ENDBRANCH   5  18
BRANCH  13  35
ATOM     34  O   UNL     1     112.901 132.744 148.614  0.00  0.00    +0.000 OA
ATOM     35  C   UNL     1     112.309 132.348 146.245  0.00  0.00    +0.000 A 
ATOM     36  C   UNL     1     111.818 132.810 146.720  0.00  0.00    +0.000 A 
ATOM     37  C   UNL     1     112.997 132.018 146.559  0.00  0.00    +0.000 A 
ATOM     38  C   UNL     1     112.016 132.941 147.511  0.00  0.00    +0.000 A 
ATOM     39  C   UNL     1     113.194 132.150 147.348  0.00  0.00    +0.000 A 
ATOM     40  C   UNL     1     112.704 132.611 147.824  0.00  0.00    +0.000 A 
BRANCH  38  41
ATOM     41  O   UNL     1     111.525 133.403 147.987  0.00  0.00    +0.000 OA
ATOM     42  C   UNL     1     110.707 133.369 147.889  0.00  0.00    +0.000 C 
ENDBRANCH  38  41
ENDBRANCH  13  35
TORSDOF 5
ENDMDL
MODEL 7
REMARK VINA RESULT:     -10.1      6.659      9.945
REMARK  Name = 44258173
REMARK  5 active torsions:
REMARK  status: ('A' for Active; 'I' for Inactive)
REMARK    1  A    between atoms: O_1  and  C_15
REMARK    2  A    between atoms: O_1  and  C_16
REMARK    3  A    between atoms: O_13  and  C_39
REMARK    4  A    between atoms: C_19  and  C_25
REMARK    5  A    between atoms: C_35  and  C_36
REMARK                            x       y       z     vdW  Elec       q    Type
REMARK                         _______ _______ _______ _____ _____    ______ ____
ROOT
ATOM      1  O   UNL     1     109.564 126.445 136.498  0.00  0.00    +0.000 OA
ATOM      2  O   UNL     1     112.306 127.249 136.544  0.00  0.00    +0.000 OA
ATOM      3  O   UNL     1     110.271 129.191 135.919  0.00  0.00    +0.000 OA
ATOM      4  O   UNL     1     108.515 127.387 136.189  0.00  0.00    +0.000 OA
ATOM      5  C   UNL     1     110.935 126.848 136.521  0.00  0.00    +0.000 A 
ATOM      6  C   UNL     1     110.138 127.030 136.410  0.00  0.00    +0.000 A 
ATOM      7  C   UNL     1     111.509 127.433 136.433  0.00  0.00    +0.000 A 
ATOM      8  C   UNL     1     109.916 127.800 136.212  0.00  0.00    +0.000 A 
ATOM      9  C   UNL     1     111.287 128.202 136.235  0.00  0.00    +0.000 A 
ATOM     10  C   UNL     1     110.490 128.386 136.125  0.00  0.00    +0.000 A 
ATOM     11  C   UNL     1     109.082 127.978 136.100  0.00  0.00    +0.000 A 
ATOM     12  C   UNL     1     108.845 128.779 135.893  0.00  0.00    +0.000 A 
ATOM     13  C   UNL     1     109.443 129.389 135.802  0.00  0.00    +0.000 A 
ENDROOT
BRANCH   5  18
ATOM     14  O   UNL     1     111.448 125.569 136.138  0.00  0.00    +0.000 OA
ATOM     15  O   UNL     1     111.242 124.786 138.477  0.00  0.00    +0.000 OA
ATOM     16  O   UNL     1     111.824 123.770 137.314  0.00  0.00    +0.000 OA
ATOM     17  C   UNL     1     111.089 125.817 137.499  0.00  0.00    +0.000 C 
ATOM     18  C   UNL     1     111.157 126.077 136.719  0.00  0.00    +0.000 C 
ATOM     19  C   UNL     1     111.311 125.047 137.697  0.00  0.00    +0.000 C 
ATOM     20  C   UNL     1     111.670 124.801 136.336  0.00  0.00    +0.000 C 
ATOM     21  C   UNL     1     111.602 124.539 137.116  0.00  0.00    +0.000 C 
ATOM     22  C   UNL     1     111.961 124.292 135.755  0.00  0.00    +0.000 C 
BRANCH  17  23
ATOM     23  O   UNL     1     110.798 126.325 138.080  0.00  0.00    +0.000 OA
BRANCH  23  28
ATOM     24  O   UNL     1     112.033 126.457 138.786  0.00  0.00    +0.000 OA
ATOM     25  O   UNL     1     109.972 126.433 139.504  0.00  0.00    +0.000 OA
ATOM     26  O   UNL     1     110.794 126.620 140.923  0.00  0.00    +0.000 OA
ATOM     27  O   UNL     1     112.442 126.698 140.917  0.00  0.00    +0.000 OA
ATOM     28  C   UNL     1     111.210 126.418 138.789  0.00  0.00    +0.000 C 
ATOM     29  C   UNL     1     110.797 126.473 139.501  0.00  0.00    +0.000 C 
ATOM     30  C   UNL     1     111.207 126.566 140.211  0.00  0.00    +0.000 C 
ATOM     31  C   UNL     1     112.031 126.605 140.207  0.00  0.00    +0.000 C 
ATOM     32  C   UNL     1     112.444 126.551 139.495  0.00  0.00    +0.000 C 
ATOM     33  C   UNL     1     113.268 126.590 139.493  0.00  0.00    +0.000 C 
ENDBRANCH  23  28
ENDBRANCH  17  23
ENDBRANCH   5  18
BRANCH  13  35
ATOM     34  O   UNL     1     108.565 132.469 135.008  0.00  0.00    +0.000 OA
ATOM     35  C   UNL     1     109.223 130.159 135.604  0.00  0.00    +0.000 A 
ATOM     36  C   UNL     1     108.967 130.679 136.191  0.00  0.00    +0.000 A 
ATOM     37  C   UNL     1     109.260 130.409 134.819  0.00  0.00    +0.000 A 
ATOM     38  C   UNL     1     108.747 131.449 135.992  0.00  0.00    +0.000 A 
ATOM     39  C   UNL     1     109.040 131.178 134.620  0.00  0.00    +0.000 A 
ATOM     40  C   UNL     1     108.784 131.698 135.207  0.00  0.00    +0.000 A 
BRANCH  38  41
ATOM     41  O   UNL     1     108.491 131.969 136.579  0.00  0.00    +0.000 OA
ATOM     42  C   UNL     1     108.867 131.979 137.313  0.00  0.00    +0.000 C 
ENDBRANCH  38  41
ENDBRANCH  13  35
TORSDOF 5
ENDMDL
MODEL 8
REMARK VINA RESULT:     -10.1      8.654     10.063
REMARK  Name = 44258173
REMARK  5 active torsions:
REMARK  status: ('A' for Active; 'I' for Inactive)
REMARK    1  A    between atoms: O_1  and  C_15
REMARK    2  A    between atoms: O_1  and  C_16
REMARK    3  A    between atoms: O_13  and  C_39
REMARK    4  A    between atoms: C_19  and  C_25
REMARK    5  A    between atoms: C_35  and  C_36
REMARK                            x       y       z     vdW  Elec       q    Type
REMARK                         _______ _______ _______ _____ _____    ______ ____
ROOT
ATOM      1  O   UNL     1     112.233 129.188 135.748  0.00  0.00    +0.000 OA
ATOM      2  O   UNL     1     111.945 129.416 138.582  0.00  0.00    +0.000 OA
ATOM      3  O   UNL     1     112.143 126.803 137.385  0.00  0.00    +0.000 OA
ATOM      4  O   UNL     1     112.335 127.897 135.110  0.00  0.00    +0.000 OA
ATOM      5  C   UNL     1     112.089 129.301 137.165  0.00  0.00    +0.000 A 
ATOM      6  C   UNL     1     112.170 128.834 136.490  0.00  0.00    +0.000 A 
ATOM      7  C   UNL     1     112.026 128.948 137.907  0.00  0.00    +0.000 A 
ATOM      8  C   UNL     1     112.188 128.011 136.558  0.00  0.00    +0.000 A 
ATOM      9  C   UNL     1     112.044 128.126 137.975  0.00  0.00    +0.000 A 
ATOM     10  C   UNL     1     112.125 127.657 137.301  0.00  0.00    +0.000 A 
ATOM     11  C   UNL     1     112.273 127.536 135.848  0.00  0.00    +0.000 A 
ATOM     12  C   UNL     1     112.293 126.678 135.913  0.00  0.00    +0.000 A 
ATOM     13  C   UNL     1     112.227 126.309 136.686  0.00  0.00    +0.000 A 
ENDROOT
BRANCH   5  18
ATOM     14  O   UNL     1     112.773 130.545 136.994  0.00  0.00    +0.000 OA
ATOM     15  O   UNL     1     110.612 131.747 137.098  0.00  0.00    +0.000 OA
ATOM     16  O   UNL     1     112.016 132.589 136.892  0.00  0.00    +0.000 OA
ATOM     17  C   UNL     1     111.350 130.524 137.131  0.00  0.00    +0.000 C 
ATOM     18  C   UNL     1     112.071 130.124 137.097  0.00  0.00    +0.000 C 
ATOM     19  C   UNL     1     111.332 131.347 137.063  0.00  0.00    +0.000 C 
ATOM     20  C   UNL     1     112.754 131.367 136.926  0.00  0.00    +0.000 C 
ATOM     21  C   UNL     1     112.034 131.768 136.960  0.00  0.00    +0.000 C 
ATOM     22  C   UNL     1     113.456 131.788 136.823  0.00  0.00    +0.000 C 
BRANCH  17  23
ATOM     23  O   UNL     1     110.648 130.103 137.234  0.00  0.00    +0.000 OA
BRANCH  23  28
ATOM     24  O   UNL     1     110.149 130.375 135.923  0.00  0.00    +0.000 OA
ATOM     25  O   UNL     1     109.104 130.069 137.815  0.00  0.00    +0.000 OA
ATOM     26  O   UNL     1     107.833 130.323 136.795  0.00  0.00    +0.000 OA
ATOM     27  O   UNL     1     108.105 130.612 135.193  0.00  0.00    +0.000 OA
ATOM     28  C   UNL     1     110.013 130.230 136.723  0.00  0.00    +0.000 C 
ATOM     29  C   UNL     1     109.241 130.213 137.014  0.00  0.00    +0.000 C 
ATOM     30  C   UNL     1     108.605 130.340 136.504  0.00  0.00    +0.000 C 
ATOM     31  C   UNL     1     108.742 130.485 135.704  0.00  0.00    +0.000 C 
ATOM     32  C   UNL     1     109.514 130.502 135.413  0.00  0.00    +0.000 C 
ATOM     33  C   UNL     1     109.649 130.646 134.612  0.00  0.00    +0.000 C 
ENDBRANCH  23  28
ENDBRANCH  17  23
ENDBRANCH   5  18
BRANCH  13  35
ATOM     34  O   UNL     1     112.297 123.023 136.970  0.00  0.00    +0.000 OA
ATOM     35  C   UNL     1     112.245 125.488 136.757  0.00  0.00    +0.000 A 
ATOM     36  C   UNL     1     112.964 125.099 136.870  0.00  0.00    +0.000 A 
ATOM     37  C   UNL     1     111.544 125.055 136.715  0.00  0.00    +0.000 A 
ATOM     38  C   UNL     1     112.981 124.277 136.941  0.00  0.00    +0.000 A 
ATOM     39  C   UNL     1     111.561 124.234 136.786  0.00  0.00    +0.000 A 
ATOM     40  C   UNL     1     112.279 123.845 136.899  0.00  0.00    +0.000 A 
BRANCH  38  41
ATOM     41  O   UNL     1     113.700 123.888 137.054  0.00  0.00    +0.000 OA
ATOM     42  C   UNL     1     114.356 124.307 137.324  0.00  0.00    +0.000 C 
ENDBRANCH  38  41
ENDBRANCH  13  35
TORSDOF 5
ENDMDL
MODEL 9
REMARK VINA RESULT:      -9.9      8.149      9.844
REMARK  Name = 44258173
REMARK  5 active torsions:
REMARK  status: ('A' for Active; 'I' for Inactive)
REMARK    1  A    between atoms: O_1  and  C_15
REMARK    2  A    between atoms: O_1  and  C_16
REMARK    3  A    between atoms: O_13  and  C_39
REMARK    4  A    between atoms: C_19  and  C_25
REMARK    5  A    between atoms: C_35  and  C_36
REMARK                            x       y       z     vdW  Elec       q    Type
REMARK                         _______ _______ _______ _____ _____    ______ ____
ROOT
ATOM      1  O   UNL     1     110.674 128.998 137.653  0.00  0.00    +0.000 OA
ATOM      2  O   UNL     1     112.491 129.623 135.537  0.00  0.00    +0.000 OA
ATOM      3  O   UNL     1     112.026 126.867 136.235  0.00  0.00    +0.000 OA
ATOM      4  O   UNL     1     110.414 127.630 138.033  0.00  0.00    +0.000 OA
ATOM      5  C   UNL     1     111.583 129.310 136.595  0.00  0.00    +0.000 A 
ATOM      6  C   UNL     1     111.200 128.752 137.066  0.00  0.00    +0.000 A 
ATOM      7  C   UNL     1     112.109 129.064 136.009  0.00  0.00    +0.000 A 
ATOM      8  C   UNL     1     111.343 127.947 136.951  0.00  0.00    +0.000 A 
ATOM      9  C   UNL     1     112.251 128.260 135.894  0.00  0.00    +0.000 A 
ATOM     10  C   UNL     1     111.868 127.701 136.365  0.00  0.00    +0.000 A 
ATOM     11  C   UNL     1     110.937 127.376 137.449  0.00  0.00    +0.000 A 
ATOM     12  C   UNL     1     111.082 126.536 137.334  0.00  0.00    +0.000 A 
ATOM     13  C   UNL     1     111.630 126.280 136.723  0.00  0.00    +0.000 A 
ENDROOT
BRANCH   5  18
ATOM     14  O   UNL     1     110.741 130.454 136.432  0.00  0.00    +0.000 OA
ATOM     15  O   UNL     1     112.409 131.849 137.613  0.00  0.00    +0.000 OA
ATOM     16  O   UNL     1     111.012 132.527 137.056  0.00  0.00    +0.000 OA
ATOM     17  C   UNL     1     111.996 130.580 137.104  0.00  0.00    +0.000 C 
ATOM     18  C   UNL     1     111.440 130.115 136.710  0.00  0.00    +0.000 C 
ATOM     19  C   UNL     1     111.853 131.385 137.219  0.00  0.00    +0.000 C 
ATOM     20  C   UNL     1     110.599 131.258 136.547  0.00  0.00    +0.000 C 
ATOM     21  C   UNL     1     111.154 131.724 136.940  0.00  0.00    +0.000 C 
ATOM     22  C   UNL     1     109.900 131.597 136.268  0.00  0.00    +0.000 C 
BRANCH  17  23
ATOM     23  O   UNL     1     112.695 130.241 137.382  0.00  0.00    +0.000 OA
BRANCH  23  28
ATOM     24  O   UNL     1     112.334 130.310 138.763  0.00  0.00    +0.000 OA
ATOM     25  O   UNL     1     114.279 130.466 137.785  0.00  0.00    +0.000 OA
ATOM     26  O   UNL     1     114.710 130.648 139.368  0.00  0.00    +0.000 OA
ATOM     27  O   UNL     1     113.557 130.604 140.547  0.00  0.00    +0.000 OA
ATOM     28  C   UNL     1     112.910 130.331 138.174  0.00  0.00    +0.000 C 
ATOM     29  C   UNL     1     113.702 130.444 138.375  0.00  0.00    +0.000 C 
ATOM     30  C   UNL     1     113.918 130.535 139.166  0.00  0.00    +0.000 C 
ATOM     31  C   UNL     1     113.341 130.513 139.755  0.00  0.00    +0.000 C 
ATOM     32  C   UNL     1     112.549 130.400 139.554  0.00  0.00    +0.000 C 
ATOM     33  C   UNL     1     111.973 130.378 140.144  0.00  0.00    +0.000 C 
ENDBRANCH  23  28
ENDBRANCH  17  23
ENDBRANCH   5  18
BRANCH  13  35
ATOM     34  O   UNL     1     112.207 123.065 136.254  0.00  0.00    +0.000 OA
ATOM     35  C   UNL     1     111.774 125.476 136.606  0.00  0.00    +0.000 A 
ATOM     36  C   UNL     1     112.458 125.131 136.913  0.00  0.00    +0.000 A 
ATOM     37  C   UNL     1     111.235 125.018 136.182  0.00  0.00    +0.000 A 
ATOM     38  C   UNL     1     112.602 124.327 136.795  0.00  0.00    +0.000 A 
ATOM     39  C   UNL     1     111.379 124.215 136.065  0.00  0.00    +0.000 A 
ATOM     40  C   UNL     1     112.063 123.869 136.371  0.00  0.00    +0.000 A 
BRANCH  38  41
ATOM     41  O   UNL     1     113.286 123.982 137.102  0.00  0.00    +0.000 OA
ATOM     42  C   UNL     1     113.989 124.411 137.125  0.00  0.00    +0.000 C 
ENDBRANCH  38  41
ENDBRANCH  13  35
TORSDOF 5
ENDMDL
MODEL 10
REMARK VINA RESULT:      -9.8      5.335      6.956
REMARK  Name = 44258173
REMARK  5 active torsions:
REMARK  status: ('A' for Active; 'I' for Inactive)
REMARK    1  A    between atoms: O_1  and  C_15
REMARK    2  A    between atoms: O_1  and  C_16
REMARK    3  A    between atoms: O_13  and  C_39
REMARK    4  A    between atoms: C_19  and  C_25
REMARK    5  A    between atoms: C_35  and  C_36
REMARK                            x       y       z     vdW  Elec       q    Type
REMARK                         _______ _______ _______ _____ _____    ______ ____
ROOT
ATOM      1  O   UNL     1     112.216 131.119 142.129  0.00  0.00    +0.000 OA
ATOM      2  O   UNL     1     111.392 128.682 143.374  0.00  0.00    +0.000 OA
ATOM      3  O   UNL     1     111.438 131.114 144.917  0.00  0.00    +0.000 OA
ATOM      4  O   UNL     1     112.253 132.358 142.868  0.00  0.00    +0.000 OA
ATOM      5  C   UNL     1     111.804 129.901 142.752  0.00  0.00    +0.000 A 
ATOM      6  C   UNL     1     111.951 130.711 142.795  0.00  0.00    +0.000 A 
ATOM      7  C   UNL     1     111.538 129.493 143.418  0.00  0.00    +0.000 A 
ATOM      8  C   UNL     1     111.832 131.114 143.506  0.00  0.00    +0.000 A 
ATOM      9  C   UNL     1     111.420 129.896 144.128  0.00  0.00    +0.000 A 
ATOM     10  C   UNL     1     111.566 130.706 144.172  0.00  0.00    +0.000 A 
ATOM     11  C   UNL     1     111.988 131.959 143.538  0.00  0.00    +0.000 A 
ATOM     12  C   UNL     1     111.866 132.384 144.276  0.00  0.00    +0.000 A 
ATOM     13  C   UNL     1     111.589 131.959 144.970  0.00  0.00    +0.000 A 
ENDROOT
BRANCH   5  18
ATOM     14  O   UNL     1     112.687 129.297 141.804  0.00  0.00    +0.000 OA
ATOM     15  O   UNL     1     110.750 128.690 140.387  0.00  0.00    +0.000 OA
ATOM     16  O   UNL     1     112.279 128.290 139.911  0.00  0.00    +0.000 OA
ATOM     17  C   UNL     1     111.277 129.295 141.570  0.00  0.00    +0.000 C 
ATOM     18  C   UNL     1     111.923 129.497 142.041  0.00  0.00    +0.000 C 
ATOM     19  C   UNL     1     111.396 128.892 140.859  0.00  0.00    +0.000 C 
ATOM     20  C   UNL     1     112.805 128.895 141.094  0.00  0.00    +0.000 C 
ATOM     21  C   UNL     1     112.160 128.692 140.621  0.00  0.00    +0.000 C 
ATOM     22  C   UNL     1     113.570 128.695 140.856  0.00  0.00    +0.000 C 
BRANCH  17  23
ATOM     23  O   UNL     1     110.513 129.495 141.808  0.00  0.00    +0.000 OA
BRANCH  23  28
ATOM     24  O   UNL     1     110.290 130.447 140.765  0.00  0.00    +0.000 OA
ATOM     25  O   UNL     1     108.914 129.090 141.780  0.00  0.00    +0.000 OA
ATOM     26  O   UNL     1     107.891 129.839 140.725  0.00  0.00    +0.000 OA
ATOM     27  O   UNL     1     108.467 130.993 139.696  0.00  0.00    +0.000 OA
ATOM     28  C   UNL     1     110.002 129.870 141.279  0.00  0.00    +0.000 C 
ATOM     29  C   UNL     1     109.202 129.668 141.266  0.00  0.00    +0.000 C 
ATOM     30  C   UNL     1     108.690 130.042 140.738  0.00  0.00    +0.000 C 
ATOM     31  C   UNL     1     108.979 130.619 140.224  0.00  0.00    +0.000 C 
ATOM     32  C   UNL     1     109.779 130.821 140.238  0.00  0.00    +0.000 C 
ATOM     33  C   UNL     1     110.066 131.399 139.723  0.00  0.00    +0.000 C 
ENDBRANCH  23  28
ENDBRANCH  17  23
ENDBRANCH   5  18
BRANCH  13  35
ATOM     34  O   UNL     1     111.112 133.560 147.815  0.00  0.00    +0.000 OA
ATOM     35  C   UNL     1     111.470 132.360 145.681  0.00  0.00    +0.000 A 
ATOM     36  C   UNL     1     110.744 132.722 145.833  0.00  0.00    +0.000 A 
ATOM     37  C   UNL     1     112.075 132.397 146.240  0.00  0.00    +0.000 A 
ATOM     38  C   UNL     1     110.625 133.123 146.545  0.00  0.00    +0.000 A 
ATOM     39  C   UNL     1     111.956 132.797 146.951  0.00  0.00    +0.000 A 
ATOM     40  C   UNL     1     111.232 133.160 147.103  0.00  0.00    +0.000 A 
BRANCH  38  41
ATOM     41  O   UNL     1     109.900 133.485 146.697  0.00  0.00    +0.000 OA
ATOM     42  C   UNL     1     109.206 133.161 146.395  0.00  0.00    +0.000 C 
ENDBRANCH  38  41
ENDBRANCH  13  35
TORSDOF 5
ENDMDL
