MODEL 1
REMARK VINA RESULT:     -10.3      0.000      0.000
REMARK  Name = 74977681
REMARK  15 active torsions:
REMARK  status: ('A' for Active; 'I' for Inactive)
REMARK    1  A    between atoms: O_1  and  C_28
REMARK    2  A    between atoms: O_1  and  C_30
REMARK    3  A    between atoms: O_4  and  C_31
REMARK    4  A    between atoms: O_4  and  C_46
REMARK    5  A    between atoms: O_6  and  C_34
REMARK    6  A    between atoms: O_6  and  C_43
REMARK    7  A    between atoms: O_15  and  C_45
REMARK    8  A    between atoms: O_15  and  C_54
REMARK    9  A    between atoms: O_26  and  C_67
REMARK   10  A    between atoms: C_36  and  C_38
REMARK   11  A    between atoms: C_37  and  C_39
REMARK   12  A    between atoms: C_44  and  C_49
REMARK   13  A    between atoms: C_46  and  C_51
REMARK   14  A    between atoms: C_56  and  C_58
REMARK   15  A    between atoms: C_57  and  C_64
REMARK                            x       y       z     vdW  Elec       q    Type
REMARK                         _______ _______ _______ _____ _____    ______ ____
ROOT
ATOM      1  O   UNL     1     109.648 126.673 137.373  0.00  0.00    +0.000 OA
ATOM      2  O   UNL     1     111.732 127.178 136.136  0.00  0.00    +0.000 OA
ATOM      3  O   UNL     1     110.268 127.391 135.408  0.00  0.00    +0.000 OA
ATOM      4  C   UNL     1     111.076 126.734 137.326  0.00  0.00    +0.000 C 
ATOM      5  C   UNL     1     111.037 127.009 136.549  0.00  0.00    +0.000 C 
ATOM      6  C   UNL     1     110.306 127.116 136.184  0.00  0.00    +0.000 C 
ATOM      7  C   UNL     1     110.381 126.566 137.738  0.00  0.00    +0.000 C 
ATOM      8  C   UNL     1     109.611 126.948 136.596  0.00  0.00    +0.000 C 
ENDROOT
BRANCH   8  11
ATOM      9  O   UNL     1     108.532 126.432 135.815  0.00  0.00    +0.000 OA
ATOM     10  O   UNL     1     108.494 127.782 136.284  0.00  0.00    +0.000 OA
ATOM     11  C   UNL     1     108.879 127.054 136.232  0.00  0.00    +0.000 C 
ENDBRANCH   8  11
BRANCH   4  12
ATOM     12  O   UNL     1     111.807 126.627 137.690  0.00  0.00    +0.000 OA
BRANCH  12  16
ATOM     13  O   UNL     1     111.876 125.256 137.295  0.00  0.00    +0.000 OA
ATOM     14  O   UNL     1     114.339 125.311 137.531  0.00  0.00    +0.000 OA
ATOM     15  O   UNL     1     113.586 123.921 137.057  0.00  0.00    +0.000 OA
ATOM     16  C   UNL     1     112.252 125.951 137.532  0.00  0.00    +0.000 C 
ATOM     17  C   UNL     1     113.074 125.969 137.611  0.00  0.00    +0.000 C 
ATOM     18  C   UNL     1     113.519 125.292 137.453  0.00  0.00    +0.000 C 
ATOM     19  C   UNL     1     113.142 124.598 137.216  0.00  0.00    +0.000 C 
ATOM     20  C   UNL     1     112.321 124.579 137.137  0.00  0.00    +0.000 C 
BRANCH  20  23
ATOM     21  O   UNL     1     111.688 123.341 137.466  0.00  0.00    +0.000 OA
ATOM     22  O   UNL     1     111.823 123.733 136.099  0.00  0.00    +0.000 OA
ATOM     23  C   UNL     1     111.944 123.884 136.900  0.00  0.00    +0.000 C 
ENDBRANCH  20  23
BRANCH  17  24
ATOM     24  O   UNL     1     113.449 126.664 137.848  0.00  0.00    +0.000 OA
BRANCH  24  26
ATOM     25  O   UNL     1     113.631 126.133 139.163  0.00  0.00    +0.000 OA
ATOM     26  C   UNL     1     113.658 126.771 138.640  0.00  0.00    +0.000 C 
BRANCH  26  27
ATOM     27  C   UNL     1     113.893 127.515 138.907  0.00  0.00    +0.000 C 
ATOM     28  C   UNL     1     113.535 127.845 139.574  0.00  0.00    +0.000 C 
BRANCH  28  30
ATOM     29  O   UNL     1     114.477 130.821 140.646  0.00  0.00    +0.000 OA
ATOM     30  C   UNL     1     113.770 128.589 139.841  0.00  0.00    +0.000 A 
ATOM     31  C   UNL     1     113.531 129.267 139.438  0.00  0.00    +0.000 A 
ATOM     32  C   UNL     1     114.246 128.654 140.513  0.00  0.00    +0.000 A 
ATOM     33  C   UNL     1     113.767 130.011 139.706  0.00  0.00    +0.000 A 
ATOM     34  C   UNL     1     114.481 129.398 140.781  0.00  0.00    +0.000 A 
ATOM     35  C   UNL     1     114.241 130.077 140.377  0.00  0.00    +0.000 A 
BRANCH  33  36
ATOM     36  O   UNL     1     113.528 130.690 139.303  0.00  0.00    +0.000 OA
ATOM     37  C   UNL     1     113.065 130.624 138.623  0.00  0.00    +0.000 C 
ENDBRANCH  33  36
ENDBRANCH  28  30
ENDBRANCH  26  27
ENDBRANCH  24  26
ENDBRANCH  17  24
ENDBRANCH  12  16
ENDBRANCH   4  12
BRANCH   7  38
ATOM     38  O   UNL     1     110.418 126.291 138.514  0.00  0.00    +0.000 OA
BRANCH  38  42
ATOM     39  O   UNL     1     110.336 128.532 140.372  0.00  0.00    +0.000 OA
ATOM     40  O   UNL     1     108.182 126.608 140.365  0.00  0.00    +0.000 OA
ATOM     41  O   UNL     1     108.174 127.730 141.271  0.00  0.00    +0.000 OA
ATOM     42  C   UNL     1     110.039 126.706 139.118  0.00  0.00    +0.000 A 
ATOM     43  C   UNL     1     110.394 127.421 139.439  0.00  0.00    +0.000 A 
ATOM     44  C   UNL     1     109.289 126.428 139.430  0.00  0.00    +0.000 A 
ATOM     45  C   UNL     1     109.992 127.847 140.068  0.00  0.00    +0.000 A 
ATOM     46  C   UNL     1     108.902 126.868 140.059  0.00  0.00    +0.000 A 
ATOM     47  C   UNL     1     109.271 127.580 140.368  0.00  0.00    +0.000 A 
ATOM     48  C   UNL     1     108.895 127.997 140.972  0.00  0.00    +0.000 A 
ATOM     49  C   UNL     1     109.960 128.950 140.976  0.00  0.00    +0.000 A 
ATOM     50  C   UNL     1     109.239 128.683 141.276  0.00  0.00    +0.000 A 
BRANCH  49  53
ATOM     51  O   UNL     1     110.347 131.780 140.875  0.00  0.00    +0.000 OA
ATOM     52  C   UNL     1     110.993 131.005 141.889  0.00  0.00    +0.000 A 
ATOM     53  C   UNL     1     110.304 129.635 141.280  0.00  0.00    +0.000 A 
ATOM     54  C   UNL     1     110.498 131.050 141.230  0.00  0.00    +0.000 A 
ATOM     55  C   UNL     1     111.143 130.276 142.243  0.00  0.00    +0.000 A 
ATOM     56  C   UNL     1     110.154 130.365 140.926  0.00  0.00    +0.000 A 
ATOM     57  C   UNL     1     110.799 129.591 141.939  0.00  0.00    +0.000 A 
BRANCH  52  58
ATOM     58  O   UNL     1     111.337 131.691 142.193  0.00  0.00    +0.000 OA
BRANCH  58  67
ATOM     59  O   UNL     1     110.646 131.728 143.443  0.00  0.00    +0.000 OA
ATOM     60  O   UNL     1     112.734 132.428 144.574  0.00  0.00    +0.000 OA
ATOM     61  O   UNL     1     111.348 132.232 145.448  0.00  0.00    +0.000 OA
ATOM     62  O   UNL     1     112.728 132.157 142.947  0.00  0.00    +0.000 OA
ATOM     63  C   UNL     1     112.038 132.194 144.198  0.00  0.00    +0.000 C 
ATOM     64  C   UNL     1     111.345 132.097 144.634  0.00  0.00    +0.000 C 
ATOM     65  C   UNL     1     112.035 132.059 143.384  0.00  0.00    +0.000 C 
ATOM     66  C   UNL     1     110.649 131.864 144.257  0.00  0.00    +0.000 C 
ATOM     67  C   UNL     1     111.339 131.826 143.006  0.00  0.00    +0.000 C 
BRANCH  66  70
ATOM     68  O   UNL     1     109.406 132.379 144.737  0.00  0.00    +0.000 OA
ATOM     69  O   UNL     1     109.814 131.055 145.088  0.00  0.00    +0.000 OA
ATOM     70  C   UNL     1     109.956 131.766 144.694  0.00  0.00    +0.000 C 
ENDBRANCH  66  70
ENDBRANCH  58  67
ENDBRANCH  52  58
ENDBRANCH  49  53
ENDBRANCH  38  42
ENDBRANCH   7  38
TORSDOF 15
ENDMDL
MODEL 2
REMARK VINA RESULT:     -10.3      7.336     10.986
REMARK  Name = 74977681
REMARK  15 active torsions:
REMARK  status: ('A' for Active; 'I' for Inactive)
REMARK    1  A    between atoms: O_1  and  C_28
REMARK    2  A    between atoms: O_1  and  C_30
REMARK    3  A    between atoms: O_4  and  C_31
REMARK    4  A    between atoms: O_4  and  C_46
REMARK    5  A    between atoms: O_6  and  C_34
REMARK    6  A    between atoms: O_6  and  C_43
REMARK    7  A    between atoms: O_15  and  C_45
REMARK    8  A    between atoms: O_15  and  C_54
REMARK    9  A    between atoms: O_26  and  C_67
REMARK   10  A    between atoms: C_36  and  C_38
REMARK   11  A    between atoms: C_37  and  C_39
REMARK   12  A    between atoms: C_44  and  C_49
REMARK   13  A    between atoms: C_46  and  C_51
REMARK   14  A    between atoms: C_56  and  C_58
REMARK   15  A    between atoms: C_57  and  C_64
REMARK                            x       y       z     vdW  Elec       q    Type
REMARK                         _______ _______ _______ _____ _____    ______ ____
ROOT
ATOM      1  O   UNL     1     105.164 133.767 144.583  0.00  0.00    +0.000 OA
ATOM      2  O   UNL     1     104.761 134.261 142.192  0.00  0.00    +0.000 OA
ATOM      3  O   UNL     1     106.043 134.946 142.971  0.00  0.00    +0.000 OA
ATOM      4  C   UNL     1     104.388 133.588 143.396  0.00  0.00    +0.000 C 
ATOM      5  C   UNL     1     104.895 134.096 142.989  0.00  0.00    +0.000 C 
ATOM      6  C   UNL     1     105.536 134.439 143.378  0.00  0.00    +0.000 C 
ATOM      7  C   UNL     1     104.523 133.424 144.193  0.00  0.00    +0.000 C 
ATOM      8  C   UNL     1     105.671 134.274 144.175  0.00  0.00    +0.000 C 
ENDROOT
BRANCH   8  11
ATOM      9  O   UNL     1     107.068 134.298 144.474  0.00  0.00    +0.000 OA
ATOM     10  O   UNL     1     106.197 135.277 145.046  0.00  0.00    +0.000 OA
ATOM     11  C   UNL     1     106.312 134.617 144.565  0.00  0.00    +0.000 C 
ENDBRANCH   8  11
BRANCH   4  12
ATOM     12  O   UNL     1     103.747 133.246 143.007  0.00  0.00    +0.000 OA
BRANCH  12  16
ATOM     13  O   UNL     1     102.873 134.303 143.407  0.00  0.00    +0.000 OA
ATOM     14  O   UNL     1     101.316 133.708 141.578  0.00  0.00    +0.000 OA
ATOM     15  O   UNL     1     100.961 134.963 142.589  0.00  0.00    +0.000 OA
ATOM     16  C   UNL     1     103.051 133.675 142.902  0.00  0.00    +0.000 C 
ATOM     17  C   UNL     1     102.531 133.477 142.292  0.00  0.00    +0.000 C 
ATOM     18  C   UNL     1     101.834 133.906 142.188  0.00  0.00    +0.000 C 
ATOM     19  C   UNL     1     101.657 134.534 142.693  0.00  0.00    +0.000 C 
ATOM     20  C   UNL     1     102.176 134.732 143.303  0.00  0.00    +0.000 C 
BRANCH  20  23
ATOM     21  O   UNL     1     102.206 136.130 143.597  0.00  0.00    +0.000 OA
ATOM     22  O   UNL     1     101.616 135.218 144.524  0.00  0.00    +0.000 OA
ATOM     23  C   UNL     1     101.999 135.360 143.809  0.00  0.00    +0.000 C 
ENDBRANCH  20  23
BRANCH  17  24
ATOM     24  O   UNL     1     102.709 132.849 141.787  0.00  0.00    +0.000 OA
BRANCH  24  26
ATOM     25  O   UNL     1     101.778 132.021 142.489  0.00  0.00    +0.000 OA
ATOM     26  C   UNL     1     102.321 132.126 141.877  0.00  0.00    +0.000 C 
BRANCH  26  27
ATOM     27  C   UNL     1     102.478 131.507 141.354  0.00  0.00    +0.000 C 
ATOM     28  C   UNL     1     102.417 130.725 141.611  0.00  0.00    +0.000 C 
BRANCH  28  30
ATOM     29  O   UNL     1     103.041 128.252 139.517  0.00  0.00    +0.000 OA
ATOM     30  C   UNL     1     102.573 130.107 141.088  0.00  0.00    +0.000 A 
ATOM     31  C   UNL     1     103.216 129.607 141.220  0.00  0.00    +0.000 A 
ATOM     32  C   UNL     1     102.086 129.988 140.432  0.00  0.00    +0.000 A 
ATOM     33  C   UNL     1     103.372 128.988 140.696  0.00  0.00    +0.000 A 
ATOM     34  C   UNL     1     102.243 129.370 139.909  0.00  0.00    +0.000 A 
ATOM     35  C   UNL     1     102.886 128.870 140.041  0.00  0.00    +0.000 A 
BRANCH  33  36
ATOM     36  O   UNL     1     104.015 128.488 140.828  0.00  0.00    +0.000 OA
ATOM     37  C   UNL     1     104.359 128.448 141.576  0.00  0.00    +0.000 C 
ENDBRANCH  33  36
ENDBRANCH  28  30
ENDBRANCH  26  27
ENDBRANCH  24  26
ENDBRANCH  17  24
ENDBRANCH  12  16
ENDBRANCH   4  12
BRANCH   7  38
ATOM     38  O   UNL     1     104.016 132.916 144.601  0.00  0.00    +0.000 OA
BRANCH  38  42
ATOM     39  O   UNL     1     105.200 130.296 145.062  0.00  0.00    +0.000 OA
ATOM     40  O   UNL     1     104.732 132.062 147.300  0.00  0.00    +0.000 OA
ATOM     41  O   UNL     1     105.316 130.757 147.492  0.00  0.00    +0.000 OA
ATOM     42  C   UNL     1     104.325 132.351 145.117  0.00  0.00    +0.000 A 
ATOM     43  C   UNL     1     104.609 131.598 144.814  0.00  0.00    +0.000 A 
ATOM     44  C   UNL     1     104.366 132.511 145.959  0.00  0.00    +0.000 A 
ATOM     45  C   UNL     1     104.929 131.016 145.359  0.00  0.00    +0.000 A 
ATOM     46  C   UNL     1     104.689 131.916 146.489  0.00  0.00    +0.000 A 
ATOM     47  C   UNL     1     104.968 131.170 146.169  0.00  0.00    +0.000 A 
ATOM     48  C   UNL     1     105.277 130.603 146.682  0.00  0.00    +0.000 A 
ATOM     49  C   UNL     1     105.509 129.729 145.576  0.00  0.00    +0.000 A 
ATOM     50  C   UNL     1     105.548 129.882 146.386  0.00  0.00    +0.000 A 
BRANCH  49  53
ATOM     51  O   UNL     1     107.670 128.034 144.783  0.00  0.00    +0.000 OA
ATOM     52  C   UNL     1     106.322 127.566 144.688  0.00  0.00    +0.000 A 
ATOM     53  C   UNL     1     105.780 129.008 145.280  0.00  0.00    +0.000 A 
ATOM     54  C   UNL     1     106.860 128.160 144.883  0.00  0.00    +0.000 A 
ATOM     55  C   UNL     1     105.513 127.693 144.788  0.00  0.00    +0.000 A 
ATOM     56  C   UNL     1     106.589 128.881 145.179  0.00  0.00    +0.000 A 
ATOM     57  C   UNL     1     105.242 128.414 145.084  0.00  0.00    +0.000 A 
BRANCH  52  58
ATOM     58  O   UNL     1     106.593 126.845 144.392  0.00  0.00    +0.000 OA
BRANCH  58  67
ATOM     59  O   UNL     1     106.403 125.971 145.506  0.00  0.00    +0.000 OA
ATOM     60  O   UNL     1     105.261 124.343 144.032  0.00  0.00    +0.000 OA
ATOM     61  O   UNL     1     105.451 124.011 145.636  0.00  0.00    +0.000 OA
ATOM     62  O   UNL     1     105.833 125.760 143.410  0.00  0.00    +0.000 OA
ATOM     63  C   UNL     1     105.642 124.885 144.523  0.00  0.00    +0.000 C 
ATOM     64  C   UNL     1     105.737 124.720 145.325  0.00  0.00    +0.000 C 
ATOM     65  C   UNL     1     105.927 125.594 144.212  0.00  0.00    +0.000 C 
ATOM     66  C   UNL     1     106.117 125.263 145.817  0.00  0.00    +0.000 C 
ATOM     67  C   UNL     1     106.308 126.137 144.703  0.00  0.00    +0.000 C 
BRANCH  66  70
ATOM     68  O   UNL     1     105.601 125.260 147.150  0.00  0.00    +0.000 OA
ATOM     69  O   UNL     1     106.917 124.766 146.892  0.00  0.00    +0.000 OA
ATOM     70  C   UNL     1     106.212 125.096 146.619  0.00  0.00    +0.000 C 
ENDBRANCH  66  70
ENDBRANCH  58  67
ENDBRANCH  52  58
ENDBRANCH  49  53
ENDBRANCH  38  42
ENDBRANCH   7  38
TORSDOF 15
ENDMDL
MODEL 3
REMARK VINA RESULT:     -10.3      4.160      6.984
REMARK  Name = 74977681
REMARK  15 active torsions:
REMARK  status: ('A' for Active; 'I' for Inactive)
REMARK    1  A    between atoms: O_1  and  C_28
REMARK    2  A    between atoms: O_1  and  C_30
REMARK    3  A    between atoms: O_4  and  C_31
REMARK    4  A    between atoms: O_4  and  C_46
REMARK    5  A    between atoms: O_6  and  C_34
REMARK    6  A    between atoms: O_6  and  C_43
REMARK    7  A    between atoms: O_15  and  C_45
REMARK    8  A    between atoms: O_15  and  C_54
REMARK    9  A    between atoms: O_26  and  C_67
REMARK   10  A    between atoms: C_36  and  C_38
REMARK   11  A    between atoms: C_37  and  C_39
REMARK   12  A    between atoms: C_44  and  C_49
REMARK   13  A    between atoms: C_46  and  C_51
REMARK   14  A    between atoms: C_56  and  C_58
REMARK   15  A    between atoms: C_57  and  C_64
REMARK                            x       y       z     vdW  Elec       q    Type
REMARK                         _______ _______ _______ _____ _____    ______ ____
ROOT
ATOM      1  O   UNL     1     109.041 127.198 140.963  0.00  0.00    +0.000 OA
ATOM      2  O   UNL     1     111.372 126.951 141.755  0.00  0.00    +0.000 OA
ATOM      3  O   UNL     1     110.769 125.909 140.627  0.00  0.00    +0.000 OA
ATOM      4  C   UNL     1     110.120 127.637 141.791  0.00  0.00    +0.000 C 
ATOM      5  C   UNL     1     110.595 127.033 141.491  0.00  0.00    +0.000 C 
ATOM      6  C   UNL     1     110.294 126.513 140.927  0.00  0.00    +0.000 C 
ATOM      7  C   UNL     1     109.343 127.720 141.527  0.00  0.00    +0.000 C 
ATOM      8  C   UNL     1     109.517 126.595 140.663  0.00  0.00    +0.000 C 
ENDROOT
BRANCH   8  11
ATOM      9  O   UNL     1     108.925 125.337 140.333  0.00  0.00    +0.000 OA
ATOM     10  O   UNL     1     109.202 126.290 139.303  0.00  0.00    +0.000 OA
ATOM     11  C   UNL     1     109.215 126.074 140.099  0.00  0.00    +0.000 C 
ENDBRANCH   8  11
BRANCH   4  12
ATOM     12  O   UNL     1     110.421 128.158 142.355  0.00  0.00    +0.000 OA
BRANCH  12  16
ATOM     13  O   UNL     1     110.910 129.019 141.324  0.00  0.00    +0.000 OA
ATOM     14  O   UNL     1     112.230 130.275 142.999  0.00  0.00    +0.000 OA
ATOM     15  O   UNL     1     112.278 130.717 141.410  0.00  0.00    +0.000 OA
ATOM     16  C   UNL     1     110.885 128.798 142.118  0.00  0.00    +0.000 C 
ATOM     17  C   UNL     1     111.326 129.217 142.677  0.00  0.00    +0.000 C 
ATOM     18  C   UNL     1     111.790 129.857 142.441  0.00  0.00    +0.000 C 
ATOM     19  C   UNL     1     111.814 130.077 141.646  0.00  0.00    +0.000 C 
ATOM     20  C   UNL     1     111.374 129.659 141.088  0.00  0.00    +0.000 C 
BRANCH  20  23
ATOM     21  O   UNL     1     111.989 129.582 139.801  0.00  0.00    +0.000 OA
ATOM     22  O   UNL     1     110.832 130.397 139.991  0.00  0.00    +0.000 OA
ATOM     23  C   UNL     1     111.398 129.880 140.293  0.00  0.00    +0.000 C 
ENDBRANCH  20  23
BRANCH  17  24
ATOM     24  O   UNL     1     111.301 128.996 143.471  0.00  0.00    +0.000 OA
BRANCH  24  26
ATOM     25  O   UNL     1     111.505 130.087 144.372  0.00  0.00    +0.000 OA
ATOM     26  C   UNL     1     111.007 129.521 144.037  0.00  0.00    +0.000 C 
BRANCH  26  27
ATOM     27  C   UNL     1     110.216 129.478 144.266  0.00  0.00    +0.000 C 
ATOM     28  C   UNL     1     109.968 129.846 144.962  0.00  0.00    +0.000 C 
BRANCH  28  30
ATOM     29  O   UNL     1     106.803 129.674 145.880  0.00  0.00    +0.000 OA
ATOM     30  C   UNL     1     109.177 129.803 145.191  0.00  0.00    +0.000 A 
ATOM     31  C   UNL     1     108.641 130.374 144.932  0.00  0.00    +0.000 A 
ATOM     32  C   UNL     1     108.922 129.189 145.681  0.00  0.00    +0.000 A 
ATOM     33  C   UNL     1     107.850 130.331 145.162  0.00  0.00    +0.000 A 
ATOM     34  C   UNL     1     108.131 129.147 145.910  0.00  0.00    +0.000 A 
ATOM     35  C   UNL     1     107.594 129.718 145.650  0.00  0.00    +0.000 A 
BRANCH  33  36
ATOM     36  O   UNL     1     107.313 130.902 144.902  0.00  0.00    +0.000 OA
ATOM     37  C   UNL     1     107.576 131.540 144.450  0.00  0.00    +0.000 C 
ENDBRANCH  33  36
ENDBRANCH  28  30
ENDBRANCH  26  27
ENDBRANCH  24  26
ENDBRANCH  17  24
ENDBRANCH  12  16
ENDBRANCH   4  12
BRANCH   7  38
ATOM     38  O   UNL     1     108.867 128.323 141.827  0.00  0.00    +0.000 OA
BRANCH  38  42
ATOM     39  O   UNL     1     106.933 126.926 143.497  0.00  0.00    +0.000 OA
ATOM     40  O   UNL     1     106.002 128.751 141.460  0.00  0.00    +0.000 OA
ATOM     41  O   UNL     1     105.073 128.042 142.305  0.00  0.00    +0.000 OA
ATOM     42  C   UNL     1     108.085 128.166 142.038  0.00  0.00    +0.000 A 
ATOM     43  C   UNL     1     107.912 127.614 142.673  0.00  0.00    +0.000 A 
ATOM     44  C   UNL     1     107.440 128.553 141.625  0.00  0.00    +0.000 A 
ATOM     45  C   UNL     1     107.093 127.457 142.886  0.00  0.00    +0.000 A 
ATOM     46  C   UNL     1     106.628 128.383 141.852  0.00  0.00    +0.000 A 
ATOM     47  C   UNL     1     106.473 127.829 142.489  0.00  0.00    +0.000 A 
ATOM     48  C   UNL     1     105.692 127.670 142.703  0.00  0.00    +0.000 A 
ATOM     49  C   UNL     1     106.152 126.767 143.710  0.00  0.00    +0.000 A 
ATOM     50  C   UNL     1     105.532 127.139 143.313  0.00  0.00    +0.000 A 
BRANCH  49  53
ATOM     51  O   UNL     1     106.106 124.092 144.716  0.00  0.00    +0.000 OA
ATOM     52  C   UNL     1     105.670 125.174 145.542  0.00  0.00    +0.000 A 
ATOM     53  C   UNL     1     105.991 126.236 144.321  0.00  0.00    +0.000 A 
ATOM     54  C   UNL     1     105.968 124.899 144.824  0.00  0.00    +0.000 A 
ATOM     55  C   UNL     1     105.532 125.980 145.650  0.00  0.00    +0.000 A 
ATOM     56  C   UNL     1     106.129 125.430 144.213  0.00  0.00    +0.000 A 
ATOM     57  C   UNL     1     105.693 126.511 145.039  0.00  0.00    +0.000 A 
BRANCH  52  58
ATOM     58  O   UNL     1     105.509 124.643 146.153  0.00  0.00    +0.000 OA
BRANCH  58  67
ATOM     59  O   UNL     1     106.652 124.916 146.965  0.00  0.00    +0.000 OA
ATOM     60  O   UNL     1     105.243 124.765 148.995  0.00  0.00    +0.000 OA
ATOM     61  O   UNL     1     106.855 125.088 149.131  0.00  0.00    +0.000 OA
ATOM     62  O   UNL     1     104.570 124.542 147.505  0.00  0.00    +0.000 OA
ATOM     63  C   UNL     1     105.713 124.815 148.319  0.00  0.00    +0.000 C 
ATOM     64  C   UNL     1     106.518 124.977 148.386  0.00  0.00    +0.000 C 
ATOM     65  C   UNL     1     105.376 124.704 147.574  0.00  0.00    +0.000 C 
ATOM     66  C   UNL     1     106.988 125.027 147.710  0.00  0.00    +0.000 C 
ATOM     67  C   UNL     1     105.845 124.754 146.896  0.00  0.00    +0.000 C 
BRANCH  66  70
ATOM     68  O   UNL     1     108.089 125.923 147.543  0.00  0.00    +0.000 OA
ATOM     69  O   UNL     1     108.305 124.618 148.083  0.00  0.00    +0.000 OA
ATOM     70  C   UNL     1     107.794 125.189 147.779  0.00  0.00    +0.000 C 
ENDBRANCH  66  70
ENDBRANCH  58  67
ENDBRANCH  52  58
ENDBRANCH  49  53
ENDBRANCH  38  42
ENDBRANCH   7  38
TORSDOF 15
ENDMDL
MODEL 4
REMARK VINA RESULT:     -10.2      2.416      4.698
REMARK  Name = 74977681
REMARK  15 active torsions:
REMARK  status: ('A' for Active; 'I' for Inactive)
REMARK    1  A    between atoms: O_1  and  C_28
REMARK    2  A    between atoms: O_1  and  C_30
REMARK    3  A    between atoms: O_4  and  C_31
REMARK    4  A    between atoms: O_4  and  C_46
REMARK    5  A    between atoms: O_6  and  C_34
REMARK    6  A    between atoms: O_6  and  C_43
REMARK    7  A    between atoms: O_15  and  C_45
REMARK    8  A    between atoms: O_15  and  C_54
REMARK    9  A    between atoms: O_26  and  C_67
REMARK   10  A    between atoms: C_36  and  C_38
REMARK   11  A    between atoms: C_37  and  C_39
REMARK   12  A    between atoms: C_44  and  C_49
REMARK   13  A    between atoms: C_46  and  C_51
REMARK   14  A    between atoms: C_56  and  C_58
REMARK   15  A    between atoms: C_57  and  C_64
REMARK                            x       y       z     vdW  Elec       q    Type
REMARK                         _______ _______ _______ _____ _____    ______ ____
ROOT
ATOM      1  O   UNL     1     109.645 129.780 137.053  0.00  0.00    +0.000 OA
ATOM      2  O   UNL     1     109.988 127.612 135.910  0.00  0.00    +0.000 OA
ATOM      3  O   UNL     1     108.806 128.639 135.393  0.00  0.00    +0.000 OA
ATOM      4  C   UNL     1     110.351 128.543 136.931  0.00  0.00    +0.000 C 
ATOM      5  C   UNL     1     109.874 128.335 136.291  0.00  0.00    +0.000 C 
ATOM      6  C   UNL     1     109.283 128.848 136.032  0.00  0.00    +0.000 C 
ATOM      7  C   UNL     1     110.237 129.266 137.312  0.00  0.00    +0.000 C 
ATOM      8  C   UNL     1     109.168 129.571 136.413  0.00  0.00    +0.000 C 
ENDROOT
BRANCH   8  11
ATOM      9  O   UNL     1     108.728 130.606 135.531  0.00  0.00    +0.000 OA
ATOM     10  O   UNL     1     107.837 130.079 136.518  0.00  0.00    +0.000 OA
ATOM     11  C   UNL     1     108.577 130.085 136.154  0.00  0.00    +0.000 C 
ENDBRANCH   8  11
BRANCH   4  12
ATOM     12  O   UNL     1     110.942 128.030 137.190  0.00  0.00    +0.000 OA
BRANCH  12  16
ATOM     13  O   UNL     1     111.885 128.637 136.304  0.00  0.00    +0.000 OA
ATOM     14  O   UNL     1     113.458 126.767 136.698  0.00  0.00    +0.000 OA
ATOM     15  O   UNL     1     113.876 127.998 135.681  0.00  0.00    +0.000 OA
ATOM     16  C   UNL     1     111.675 128.022 136.812  0.00  0.00    +0.000 C 
ATOM     17  C   UNL     1     112.201 127.398 136.944  0.00  0.00    +0.000 C 
ATOM     18  C   UNL     1     112.934 127.390 136.566  0.00  0.00    +0.000 C 
ATOM     19  C   UNL     1     113.143 128.006 136.058  0.00  0.00    +0.000 C 
ATOM     20  C   UNL     1     112.619 128.628 135.927  0.00  0.00    +0.000 C 
BRANCH  20  23
ATOM     21  O   UNL     1     113.201 129.916 135.717  0.00  0.00    +0.000 OA
ATOM     22  O   UNL     1     112.662 129.188 134.612  0.00  0.00    +0.000 OA
ATOM     23  C   UNL     1     112.827 129.244 135.418  0.00  0.00    +0.000 C 
ENDBRANCH  20  23
BRANCH  17  24
ATOM     24  O   UNL     1     111.991 126.784 137.452  0.00  0.00    +0.000 OA
BRANCH  24  26
ATOM     25  O   UNL     1     113.147 126.236 138.090  0.00  0.00    +0.000 OA
ATOM     26  C   UNL     1     112.433 126.645 138.136  0.00  0.00    +0.000 C 
BRANCH  26  27
ATOM     27  C   UNL     1     112.159 126.917 138.865  0.00  0.00    +0.000 C 
ATOM     28  C   UNL     1     112.511 126.650 139.563  0.00  0.00    +0.000 C 
BRANCH  28  30
ATOM     29  O   UNL     1     111.413 127.736 142.480  0.00  0.00    +0.000 OA
ATOM     30  C   UNL     1     112.237 126.922 140.292  0.00  0.00    +0.000 A 
ATOM     31  C   UNL     1     112.615 127.553 140.666  0.00  0.00    +0.000 A 
ATOM     32  C   UNL     1     111.584 126.563 140.647  0.00  0.00    +0.000 A 
ATOM     33  C   UNL     1     112.340 127.824 141.395  0.00  0.00    +0.000 A 
ATOM     34  C   UNL     1     111.310 126.835 141.376  0.00  0.00    +0.000 A 
ATOM     35  C   UNL     1     111.688 127.465 141.750  0.00  0.00    +0.000 A 
BRANCH  33  36
ATOM     36  O   UNL     1     112.718 128.454 141.770  0.00  0.00    +0.000 OA
ATOM     37  C   UNL     1     113.027 129.075 141.322  0.00  0.00    +0.000 C 
ENDBRANCH  33  36
ENDBRANCH  28  30
ENDBRANCH  26  27
ENDBRANCH  24  26
ENDBRANCH  17  24
ENDBRANCH  12  16
ENDBRANCH   4  12
BRANCH   7  38
ATOM     38  O   UNL     1     110.713 129.475 137.952  0.00  0.00    +0.000 OA
BRANCH  38  42
ATOM     39  O   UNL     1     108.935 129.207 140.242  0.00  0.00    +0.000 OA
ATOM     40  O   UNL     1     110.398 131.667 139.855  0.00  0.00    +0.000 OA
ATOM     41  O   UNL     1     109.509 131.500 140.978  0.00  0.00    +0.000 OA
ATOM     42  C   UNL     1     110.373 129.790 138.634  0.00  0.00    +0.000 A 
ATOM     43  C   UNL     1     109.817 129.323 139.095  0.00  0.00    +0.000 A 
ATOM     44  C   UNL     1     110.572 130.585 138.889  0.00  0.00    +0.000 A 
ATOM     45  C   UNL     1     109.468 129.659 139.805  0.00  0.00    +0.000 A 
ATOM     46  C   UNL     1     110.213 130.905 139.602  0.00  0.00    +0.000 A 
ATOM     47  C   UNL     1     109.659 130.424 140.050  0.00  0.00    +0.000 A 
ATOM     48  C   UNL     1     109.318 130.735 140.733  0.00  0.00    +0.000 A 
ATOM     49  C   UNL     1     108.594 129.519 140.926  0.00  0.00    +0.000 A 
ATOM     50  C   UNL     1     108.785 130.283 141.171  0.00  0.00    +0.000 A 
BRANCH  49  53
ATOM     51  O   UNL     1     105.945 129.072 141.902  0.00  0.00    +0.000 OA
ATOM     52  C   UNL     1     106.995 128.162 142.240  0.00  0.00    +0.000 A 
ATOM     53  C   UNL     1     108.061 129.066 141.364  0.00  0.00    +0.000 A 
ATOM     54  C   UNL     1     106.737 128.843 141.853  0.00  0.00    +0.000 A 
ATOM     55  C   UNL     1     107.786 127.933 142.190  0.00  0.00    +0.000 A 
ATOM     56  C   UNL     1     107.270 129.295 141.414  0.00  0.00    +0.000 A 
ATOM     57  C   UNL     1     108.319 128.386 141.752  0.00  0.00    +0.000 A 
BRANCH  52  58
ATOM     58  O   UNL     1     106.462 127.710 142.679  0.00  0.00    +0.000 OA
BRANCH  58  67
ATOM     59  O   UNL     1     106.221 126.683 141.715  0.00  0.00    +0.000 OA
ATOM     60  O   UNL     1     106.258 124.985 143.515  0.00  0.00    +0.000 OA
ATOM     61  O   UNL     1     106.005 124.524 141.952  0.00  0.00    +0.000 OA
ATOM     62  O   UNL     1     106.487 126.578 143.878  0.00  0.00    +0.000 OA
ATOM     63  C   UNL     1     106.246 125.551 142.915  0.00  0.00    +0.000 C 
ATOM     64  C   UNL     1     106.119 125.321 142.133  0.00  0.00    +0.000 C 
ATOM     65  C   UNL     1     106.360 126.348 143.097  0.00  0.00    +0.000 C 
ATOM     66  C   UNL     1     106.106 125.887 141.533  0.00  0.00    +0.000 C 
ATOM     67  C   UNL     1     106.347 126.914 142.496  0.00  0.00    +0.000 C 
BRANCH  66  70
ATOM     68  O   UNL     1     105.229 125.726 140.417  0.00  0.00    +0.000 OA
ATOM     69  O   UNL     1     106.604 125.354 140.304  0.00  0.00    +0.000 OA
ATOM     70  C   UNL     1     105.980 125.656 140.751  0.00  0.00    +0.000 C 
ENDBRANCH  66  70
ENDBRANCH  58  67
ENDBRANCH  52  58
ENDBRANCH  49  53
ENDBRANCH  38  42
ENDBRANCH   7  38
TORSDOF 15
ENDMDL
MODEL 5
REMARK VINA RESULT:     -10.2      6.864     10.114
REMARK  Name = 74977681
REMARK  15 active torsions:
REMARK  status: ('A' for Active; 'I' for Inactive)
REMARK    1  A    between atoms: O_1  and  C_28
REMARK    2  A    between atoms: O_1  and  C_30
REMARK    3  A    between atoms: O_4  and  C_31
REMARK    4  A    between atoms: O_4  and  C_46
REMARK    5  A    between atoms: O_6  and  C_34
REMARK    6  A    between atoms: O_6  and  C_43
REMARK    7  A    between atoms: O_15  and  C_45
REMARK    8  A    between atoms: O_15  and  C_54
REMARK    9  A    between atoms: O_26  and  C_67
REMARK   10  A    between atoms: C_36  and  C_38
REMARK   11  A    between atoms: C_37  and  C_39
REMARK   12  A    between atoms: C_44  and  C_49
REMARK   13  A    between atoms: C_46  and  C_51
REMARK   14  A    between atoms: C_56  and  C_58
REMARK   15  A    between atoms: C_57  and  C_64
REMARK                            x       y       z     vdW  Elec       q    Type
REMARK                         _______ _______ _______ _____ _____    ______ ____
ROOT
ATOM      1  O   UNL     1     105.762 125.473 144.872  0.00  0.00    +0.000 OA
ATOM      2  O   UNL     1     104.190 124.618 146.582  0.00  0.00    +0.000 OA
ATOM      3  O   UNL     1     104.538 123.706 145.253  0.00  0.00    +0.000 OA
ATOM      4  C   UNL     1     105.063 125.644 146.108  0.00  0.00    +0.000 C 
ATOM      5  C   UNL     1     104.714 124.903 146.012  0.00  0.00    +0.000 C 
ATOM      6  C   UNL     1     104.888 124.447 145.348  0.00  0.00    +0.000 C 
ATOM      7  C   UNL     1     105.587 125.929 145.538  0.00  0.00    +0.000 C 
ATOM      8  C   UNL     1     105.412 124.732 144.778  0.00  0.00    +0.000 C 
ENDROOT
BRANCH   8  11
ATOM      9  O   UNL     1     105.047 124.235 143.488  0.00  0.00    +0.000 OA
ATOM     10  O   UNL     1     106.298 123.862 144.071  0.00  0.00    +0.000 OA
ATOM     11  C   UNL     1     105.586 124.276 144.112  0.00  0.00    +0.000 C 
ENDBRANCH   8  11
BRANCH   4  12
ATOM     12  O   UNL     1     104.890 126.100 146.772  0.00  0.00    +0.000 OA
BRANCH  12  16
ATOM     13  O   UNL     1     105.938 125.455 147.500  0.00  0.00    +0.000 OA
ATOM     14  O   UNL     1     105.176 126.561 149.578  0.00  0.00    +0.000 OA
ATOM     15  O   UNL     1     106.478 125.548 149.612  0.00  0.00    +0.000 OA
ATOM     16  C   UNL     1     105.287 125.962 147.482  0.00  0.00    +0.000 C 
ATOM     17  C   UNL     1     105.033 126.331 148.176  0.00  0.00    +0.000 C 
ATOM     18  C   UNL     1     105.430 126.193 148.886  0.00  0.00    +0.000 C 
ATOM     19  C   UNL     1     106.081 125.686 148.902  0.00  0.00    +0.000 C 
ATOM     20  C   UNL     1     106.334 125.318 148.210  0.00  0.00    +0.000 C 
BRANCH  20  23
ATOM     21  O   UNL     1     106.889 124.023 148.452  0.00  0.00    +0.000 OA
ATOM     22  O   UNL     1     107.732 125.091 148.017  0.00  0.00    +0.000 OA
ATOM     23  C   UNL     1     106.985 124.811 148.226  0.00  0.00    +0.000 C 
ENDBRANCH  20  23
BRANCH  17  24
ATOM     24  O   UNL     1     104.382 126.837 148.158  0.00  0.00    +0.000 OA
BRANCH  24  26
ATOM     25  O   UNL     1     104.282 127.772 149.235  0.00  0.00    +0.000 OA
ATOM     26  C   UNL     1     104.452 127.608 148.445  0.00  0.00    +0.000 C 
BRANCH  26  27
ATOM     27  C   UNL     1     104.692 128.215 147.940  0.00  0.00    +0.000 C 
ATOM     28  C   UNL     1     104.318 128.951 147.973  0.00  0.00    +0.000 C 
BRANCH  28  30
ATOM     29  O   UNL     1     105.281 131.377 145.954  0.00  0.00    +0.000 OA
ATOM     30  C   UNL     1     104.558 129.557 147.468  0.00  0.00    +0.000 A 
ATOM     31  C   UNL     1     104.001 129.958 147.010  0.00  0.00    +0.000 A 
ATOM     32  C   UNL     1     105.356 129.764 147.422  0.00  0.00    +0.000 A 
ATOM     33  C   UNL     1     104.243 130.564 146.505  0.00  0.00    +0.000 A 
ATOM     34  C   UNL     1     105.596 130.370 146.918  0.00  0.00    +0.000 A 
ATOM     35  C   UNL     1     105.039 130.771 146.459  0.00  0.00    +0.000 A 
BRANCH  33  36
ATOM     36  O   UNL     1     103.686 130.964 146.046  0.00  0.00    +0.000 OA
ATOM     37  C   UNL     1     102.939 131.131 146.355  0.00  0.00    +0.000 C 
ENDBRANCH  33  36
ENDBRANCH  28  30
ENDBRANCH  26  27
ENDBRANCH  24  26
ENDBRANCH  17  24
ENDBRANCH  12  16
ENDBRANCH   4  12
BRANCH   7  38
ATOM     38  O   UNL     1     105.937 126.670 145.632  0.00  0.00    +0.000 OA
BRANCH  38  42
ATOM     39  O   UNL     1     104.935 128.456 143.562  0.00  0.00    +0.000 OA
ATOM     40  O   UNL     1     107.754 127.835 143.666  0.00  0.00    +0.000 OA
ATOM     41  O   UNL     1     107.223 128.715 142.654  0.00  0.00    +0.000 OA
ATOM     42  C   UNL     1     106.071 127.150 144.975  0.00  0.00    +0.000 A 
ATOM     43  C   UNL     1     105.417 127.563 144.601  0.00  0.00    +0.000 A 
ATOM     44  C   UNL     1     106.865 127.240 144.660  0.00  0.00    +0.000 A 
ATOM     45  C   UNL     1     105.567 128.062 143.916  0.00  0.00    +0.000 A 
ATOM     46  C   UNL     1     106.995 127.743 143.975  0.00  0.00    +0.000 A 
ATOM     47  C   UNL     1     106.329 128.148 143.614  0.00  0.00    +0.000 A 
ATOM     48  C   UNL     1     106.460 128.629 142.957  0.00  0.00    +0.000 A 
ATOM     49  C   UNL     1     105.066 128.937 142.904  0.00  0.00    +0.000 A 
ATOM     50  C   UNL     1     105.829 129.024 142.601  0.00  0.00    +0.000 A 
BRANCH  49  53
ATOM     51  O   UNL     1     103.178 129.170 140.771  0.00  0.00    +0.000 OA
ATOM     52  C   UNL     1     103.171 130.121 141.839  0.00  0.00    +0.000 A 
ATOM     53  C   UNL     1     104.434 129.331 142.549  0.00  0.00    +0.000 A 
ATOM     54  C   UNL     1     103.490 129.448 141.483  0.00  0.00    +0.000 A 
ATOM     55  C   UNL     1     103.484 130.398 142.550  0.00  0.00    +0.000 A 
ATOM     56  C   UNL     1     104.122 129.054 141.838  0.00  0.00    +0.000 A 
ATOM     57  C   UNL     1     104.115 130.004 142.905  0.00  0.00    +0.000 A 
BRANCH  52  58
ATOM     58  O   UNL     1     102.540 130.515 141.484  0.00  0.00    +0.000 OA
BRANCH  58  67
ATOM     59  O   UNL     1     103.246 131.624 140.924  0.00  0.00    +0.000 OA
ATOM     60  O   UNL     1     101.441 133.147 141.668  0.00  0.00    +0.000 OA
ATOM     61  O   UNL     1     102.748 133.748 140.860  0.00  0.00    +0.000 OA
ATOM     62  O   UNL     1     101.338 131.530 141.980  0.00  0.00    +0.000 OA
ATOM     63  C   UNL     1     102.043 132.639 141.420  0.00  0.00    +0.000 C 
ATOM     64  C   UNL     1     102.696 132.940 141.016  0.00  0.00    +0.000 C 
ATOM     65  C   UNL     1     101.991 131.831 141.576  0.00  0.00    +0.000 C 
ATOM     66  C   UNL     1     103.298 132.432 140.768  0.00  0.00    +0.000 C 
ATOM     67  C   UNL     1     102.592 131.323 141.328  0.00  0.00    +0.000 C 
BRANCH  66  70
ATOM     68  O   UNL     1     104.564 133.095 140.782  0.00  0.00    +0.000 OA
ATOM     69  O   UNL     1     103.991 132.674 139.542  0.00  0.00    +0.000 OA
ATOM     70  C   UNL     1     103.951 132.734 140.364  0.00  0.00    +0.000 C 
ENDBRANCH  66  70
ENDBRANCH  58  67
ENDBRANCH  52  58
ENDBRANCH  49  53
ENDBRANCH  38  42
ENDBRANCH   7  38
TORSDOF 15
ENDMDL
MODEL 6
REMARK VINA RESULT:     -10.2      2.077      3.563
REMARK  Name = 74977681
REMARK  15 active torsions:
REMARK  status: ('A' for Active; 'I' for Inactive)
REMARK    1  A    between atoms: O_1  and  C_28
REMARK    2  A    between atoms: O_1  and  C_30
REMARK    3  A    between atoms: O_4  and  C_31
REMARK    4  A    between atoms: O_4  and  C_46
REMARK    5  A    between atoms: O_6  and  C_34
REMARK    6  A    between atoms: O_6  and  C_43
REMARK    7  A    between atoms: O_15  and  C_45
REMARK    8  A    between atoms: O_15  and  C_54
REMARK    9  A    between atoms: O_26  and  C_67
REMARK   10  A    between atoms: C_36  and  C_38
REMARK   11  A    between atoms: C_37  and  C_39
REMARK   12  A    between atoms: C_44  and  C_49
REMARK   13  A    between atoms: C_46  and  C_51
REMARK   14  A    between atoms: C_56  and  C_58
REMARK   15  A    between atoms: C_57  and  C_64
REMARK                            x       y       z     vdW  Elec       q    Type
REMARK                         _______ _______ _______ _____ _____    ______ ____
ROOT
ATOM      1  O   UNL     1     110.242 131.396 137.989  0.00  0.00    +0.000 OA
ATOM      2  O   UNL     1     112.405 131.105 136.822  0.00  0.00    +0.000 OA
ATOM      3  O   UNL     1     111.644 132.567 136.796  0.00  0.00    +0.000 OA
ATOM      4  C   UNL     1     111.344 130.566 137.613  0.00  0.00    +0.000 C 
ATOM      5  C   UNL     1     111.684 131.202 137.211  0.00  0.00    +0.000 C 
ATOM      6  C   UNL     1     111.304 131.933 137.198  0.00  0.00    +0.000 C 
ATOM      7  C   UNL     1     110.623 130.664 138.002  0.00  0.00    +0.000 C 
ATOM      8  C   UNL     1     110.583 132.030 137.587  0.00  0.00    +0.000 C 
ENDROOT
BRANCH   8  11
ATOM      9  O   UNL     1     110.349 133.313 138.171  0.00  0.00    +0.000 OA
ATOM     10  O   UNL     1     109.675 132.943 136.966  0.00  0.00    +0.000 OA
ATOM     11  C   UNL     1     110.202 132.762 137.574  0.00  0.00    +0.000 C 
ENDBRANCH   8  11
BRANCH   4  12
ATOM     12  O   UNL     1     111.724 129.835 137.626  0.00  0.00    +0.000 OA
BRANCH  12  16
ATOM     13  O   UNL     1     111.026 129.416 136.452  0.00  0.00    +0.000 OA
ATOM     14  O   UNL     1     112.642 127.567 136.150  0.00  0.00    +0.000 OA
ATOM     15  O   UNL     1     111.405 127.764 135.077  0.00  0.00    +0.000 OA
ATOM     16  C   UNL     1     111.644 129.317 136.989  0.00  0.00    +0.000 C 
ATOM     17  C   UNL     1     112.183 128.700 136.888  0.00  0.00    +0.000 C 
ATOM     18  C   UNL     1     112.103 128.183 136.251  0.00  0.00    +0.000 C 
ATOM     19  C   UNL     1     111.485 128.282 135.714  0.00  0.00    +0.000 C 
ATOM     20  C   UNL     1     110.946 128.898 135.814  0.00  0.00    +0.000 C 
BRANCH  20  23
ATOM     21  O   UNL     1     109.605 128.620 135.407  0.00  0.00    +0.000 OA
ATOM     22  O   UNL     1     110.430 129.473 134.613  0.00  0.00    +0.000 OA
ATOM     23  C   UNL     1     110.327 128.998 135.278  0.00  0.00    +0.000 C 
ENDBRANCH  20  23
BRANCH  17  24
ATOM     24  O   UNL     1     112.801 128.602 137.425  0.00  0.00    +0.000 OA
BRANCH  24  26
ATOM     25  O   UNL     1     113.006 127.200 137.617  0.00  0.00    +0.000 OA
ATOM     26  C   UNL     1     112.815 127.943 137.922  0.00  0.00    +0.000 C 
BRANCH  26  27
ATOM     27  C   UNL     1     112.637 128.027 138.723  0.00  0.00    +0.000 C 
ATOM     28  C   UNL     1     112.966 127.509 139.275  0.00  0.00    +0.000 C 
BRANCH  28  30
ATOM     29  O   UNL     1     112.255 127.848 142.480  0.00  0.00    +0.000 OA
ATOM     30  C   UNL     1     112.788 127.593 140.076  0.00  0.00    +0.000 A 
ATOM     31  C   UNL     1     112.121 127.223 140.392  0.00  0.00    +0.000 A 
ATOM     32  C   UNL     1     113.277 128.048 140.561  0.00  0.00    +0.000 A 
ATOM     33  C   UNL     1     111.944 127.308 141.194  0.00  0.00    +0.000 A 
ATOM     34  C   UNL     1     113.099 128.133 141.362  0.00  0.00    +0.000 A 
ATOM     35  C   UNL     1     112.432 127.763 141.679  0.00  0.00    +0.000 A 
BRANCH  33  36
ATOM     36  O   UNL     1     111.278 126.939 141.510  0.00  0.00    +0.000 OA
ATOM     37  C   UNL     1     110.621 126.792 141.033  0.00  0.00    +0.000 C 
ENDBRANCH  33  36
ENDBRANCH  28  30
ENDBRANCH  26  27
ENDBRANCH  24  26
ENDBRANCH  17  24
ENDBRANCH  12  16
ENDBRANCH   4  12
BRANCH   7  38
ATOM     38  O   UNL     1     110.282 130.029 138.405  0.00  0.00    +0.000 OA
BRANCH  38  42
ATOM     39  O   UNL     1     110.640 130.671 141.222  0.00  0.00    +0.000 OA
ATOM     40  O   UNL     1     107.997 130.070 140.222  0.00  0.00    +0.000 OA
ATOM     41  O   UNL     1     108.211 130.392 141.612  0.00  0.00    +0.000 OA
ATOM     42  C   UNL     1     109.967 130.140 139.159  0.00  0.00    +0.000 A 
ATOM     43  C   UNL     1     110.480 130.353 139.815  0.00  0.00    +0.000 A 
ATOM     44  C   UNL     1     109.124 130.043 139.294  0.00  0.00    +0.000 A 
ATOM     45  C   UNL     1     110.142 130.467 140.597  0.00  0.00    +0.000 A 
ATOM     46  C   UNL     1     108.805 130.161 140.084  0.00  0.00    +0.000 A 
ATOM     47  C   UNL     1     109.333 130.374 140.727  0.00  0.00    +0.000 A 
ATOM     48  C   UNL     1     109.021 130.485 141.482  0.00  0.00    +0.000 A 
ATOM     49  C   UNL     1     110.327 130.783 141.978  0.00  0.00    +0.000 A 
ATOM     50  C   UNL     1     109.518 130.690 142.108  0.00  0.00    +0.000 A 
BRANCH  49  53
ATOM     51  O   UNL     1     112.796 131.868 142.925  0.00  0.00    +0.000 OA
ATOM     52  C   UNL     1     111.819 131.397 143.856  0.00  0.00    +0.000 A 
ATOM     53  C   UNL     1     110.824 130.987 142.604  0.00  0.00    +0.000 A 
ATOM     54  C   UNL     1     112.059 131.530 143.078  0.00  0.00    +0.000 A 
ATOM     55  C   UNL     1     111.081 131.059 144.008  0.00  0.00    +0.000 A 
ATOM     56  C   UNL     1     111.561 131.325 142.452  0.00  0.00    +0.000 A 
ATOM     57  C   UNL     1     110.584 130.854 143.382  0.00  0.00    +0.000 A 
BRANCH  52  58
ATOM     58  O   UNL     1     112.316 131.601 144.482  0.00  0.00    +0.000 OA
BRANCH  58  67
ATOM     59  O   UNL     1     111.716 132.859 144.798  0.00  0.00    +0.000 OA
ATOM     60  O   UNL     1     112.035 132.402 147.210  0.00  0.00    +0.000 OA
ATOM     61  O   UNL     1     111.330 133.812 146.723  0.00  0.00    +0.000 OA
ATOM     62  O   UNL     1     112.528 131.297 146.088  0.00  0.00    +0.000 OA
ATOM     63  C   UNL     1     111.929 132.555 146.406  0.00  0.00    +0.000 C 
ATOM     64  C   UNL     1     111.576 133.259 146.162  0.00  0.00    +0.000 C 
ATOM     65  C   UNL     1     112.175 132.002 145.845  0.00  0.00    +0.000 C 
ATOM     66  C   UNL     1     111.470 133.412 145.359  0.00  0.00    +0.000 C 
ATOM     67  C   UNL     1     112.069 132.154 145.041  0.00  0.00    +0.000 C 
BRANCH  66  70
ATOM     68  O   UNL     1     111.586 134.771 144.934  0.00  0.00    +0.000 OA
ATOM     69  O   UNL     1     110.296 134.168 145.054  0.00  0.00    +0.000 OA
ATOM     70  C   UNL     1     111.117 134.117 145.116  0.00  0.00    +0.000 C 
ENDBRANCH  66  70
ENDBRANCH  58  67
ENDBRANCH  52  58
ENDBRANCH  49  53
ENDBRANCH  38  42
ENDBRANCH   7  38
TORSDOF 15
ENDMDL
MODEL 7
REMARK VINA RESULT:     -10.1      1.898      4.283
REMARK  Name = 74977681
REMARK  15 active torsions:
REMARK  status: ('A' for Active; 'I' for Inactive)
REMARK    1  A    between atoms: O_1  and  C_28
REMARK    2  A    between atoms: O_1  and  C_30
REMARK    3  A    between atoms: O_4  and  C_31
REMARK    4  A    between atoms: O_4  and  C_46
REMARK    5  A    between atoms: O_6  and  C_34
REMARK    6  A    between atoms: O_6  and  C_43
REMARK    7  A    between atoms: O_15  and  C_45
REMARK    8  A    between atoms: O_15  and  C_54
REMARK    9  A    between atoms: O_26  and  C_67
REMARK   10  A    between atoms: C_36  and  C_38
REMARK   11  A    between atoms: C_37  and  C_39
REMARK   12  A    between atoms: C_44  and  C_49
REMARK   13  A    between atoms: C_46  and  C_51
REMARK   14  A    between atoms: C_56  and  C_58
REMARK   15  A    between atoms: C_57  and  C_64
REMARK                            x       y       z     vdW  Elec       q    Type
REMARK                         _______ _______ _______ _____ _____    ______ ____
ROOT
ATOM      1  O   UNL     1     110.804 131.299 138.059  0.00  0.00    +0.000 OA
ATOM      2  O   UNL     1     108.542 130.361 137.699  0.00  0.00    +0.000 OA
ATOM      3  O   UNL     1     108.756 131.995 137.768  0.00  0.00    +0.000 OA
ATOM      4  C   UNL     1     109.942 130.168 137.905  0.00  0.00    +0.000 C 
ATOM      5  C   UNL     1     109.296 130.674 137.819  0.00  0.00    +0.000 C 
ATOM      6  C   UNL     1     109.402 131.490 137.853  0.00  0.00    +0.000 C 
ATOM      7  C   UNL     1     110.696 130.481 138.025  0.00  0.00    +0.000 C 
ATOM      8  C   UNL     1     110.156 131.803 137.973  0.00  0.00    +0.000 C 
ENDROOT
BRANCH   8  11
ATOM      9  O   UNL     1     110.490 133.035 137.330  0.00  0.00    +0.000 OA
ATOM     10  O   UNL     1     110.146 133.023 138.718  0.00  0.00    +0.000 OA
ATOM     11  C   UNL     1     110.264 132.620 138.008  0.00  0.00    +0.000 C 
ENDBRANCH   8  11
BRANCH   4  12
ATOM     12  O   UNL     1     109.835 129.352 137.871  0.00  0.00    +0.000 OA
BRANCH  12  16
ATOM     13  O   UNL     1     109.991 129.369 136.450  0.00  0.00    +0.000 OA
ATOM     14  O   UNL     1     109.129 127.053 136.326  0.00  0.00    +0.000 OA
ATOM     15  O   UNL     1     109.573 127.844 134.947  0.00  0.00    +0.000 OA
ATOM     16  C   UNL     1     109.770 128.975 137.140  0.00  0.00    +0.000 C 
ATOM     17  C   UNL     1     109.482 128.202 137.098  0.00  0.00    +0.000 C 
ATOM     18  C   UNL     1     109.416 127.825 136.367  0.00  0.00    +0.000 C 
ATOM     19  C   UNL     1     109.638 128.221 135.678  0.00  0.00    +0.000 C 
ATOM     20  C   UNL     1     109.926 128.992 135.719  0.00  0.00    +0.000 C 
BRANCH  20  23
ATOM     21  O   UNL     1     109.592 129.833 134.613  0.00  0.00    +0.000 OA
ATOM     22  O   UNL     1     110.924 129.339 134.758  0.00  0.00    +0.000 OA
ATOM     23  C   UNL     1     110.148 129.388 135.030  0.00  0.00    +0.000 C 
ENDBRANCH  20  23
BRANCH  17  24
ATOM     24  O   UNL     1     109.260 127.807 137.788  0.00  0.00    +0.000 OA
BRANCH  24  26
ATOM     25  O   UNL     1     109.528 126.409 137.656  0.00  0.00    +0.000 OA
ATOM     26  C   UNL     1     109.672 127.132 138.027  0.00  0.00    +0.000 C 
BRANCH  26  27
ATOM     27  C   UNL     1     110.225 127.182 138.636  0.00  0.00    +0.000 C 
ATOM     28  C   UNL     1     110.528 126.492 138.975  0.00  0.00    +0.000 C 
BRANCH  28  30
ATOM     29  O   UNL     1     112.742 126.690 141.414  0.00  0.00    +0.000 OA
ATOM     30  C   UNL     1     111.082 126.541 139.584  0.00  0.00    +0.000 A 
ATOM     31  C   UNL     1     111.888 126.495 139.414  0.00  0.00    +0.000 A 
ATOM     32  C   UNL     1     110.829 126.638 140.364  0.00  0.00    +0.000 A 
ATOM     33  C   UNL     1     112.441 126.544 140.025  0.00  0.00    +0.000 A 
ATOM     34  C   UNL     1     111.382 126.687 140.973  0.00  0.00    +0.000 A 
ATOM     35  C   UNL     1     112.189 126.640 140.804  0.00  0.00    +0.000 A 
BRANCH  33  36
ATOM     36  O   UNL     1     113.247 126.497 139.855  0.00  0.00    +0.000 OA
ATOM     37  C   UNL     1     113.507 126.534 139.074  0.00  0.00    +0.000 C 
ENDBRANCH  33  36
ENDBRANCH  28  30
ENDBRANCH  26  27
ENDBRANCH  24  26
ENDBRANCH  17  24
ENDBRANCH  12  16
ENDBRANCH   4  12
BRANCH   7  38
ATOM     38  O   UNL     1     111.343 129.977 138.111  0.00  0.00    +0.000 OA
BRANCH  38  42
ATOM     39  O   UNL     1     111.777 130.230 140.979  0.00  0.00    +0.000 OA
ATOM     40  O   UNL     1     114.042 130.273 139.186  0.00  0.00    +0.000 OA
ATOM     41  O   UNL     1     114.219 130.396 140.613  0.00  0.00    +0.000 OA
ATOM     42  C   UNL     1     111.855 130.066 138.752  0.00  0.00    +0.000 A 
ATOM     43  C   UNL     1     111.542 130.102 139.552  0.00  0.00    +0.000 A 
ATOM     44  C   UNL     1     112.702 130.124 138.625  0.00  0.00    +0.000 A 
ATOM     45  C   UNL     1     112.082 130.196 140.214  0.00  0.00    +0.000 A 
ATOM     46  C   UNL     1     113.227 130.217 139.300  0.00  0.00    +0.000 A 
ATOM     47  C   UNL     1     112.896 130.251 140.092  0.00  0.00    +0.000 A 
ATOM     48  C   UNL     1     113.405 130.341 140.735  0.00  0.00    +0.000 A 
ATOM     49  C   UNL     1     112.285 130.319 141.623  0.00  0.00    +0.000 A 
ATOM     50  C   UNL     1     113.100 130.375 141.501  0.00  0.00    +0.000 A 
BRANCH  49  53
ATOM     51  O   UNL     1     111.810 129.081 144.155  0.00  0.00    +0.000 OA
ATOM     52  C   UNL     1     111.370 130.421 143.920  0.00  0.00    +0.000 A 
ATOM     53  C   UNL     1     111.980 130.353 142.388  0.00  0.00    +0.000 A 
ATOM     54  C   UNL     1     111.742 129.735 143.654  0.00  0.00    +0.000 A 
ATOM     55  C   UNL     1     111.302 131.074 143.420  0.00  0.00    +0.000 A 
ATOM     56  C   UNL     1     112.048 129.701 142.889  0.00  0.00    +0.000 A 
ATOM     57  C   UNL     1     111.607 131.040 142.654  0.00  0.00    +0.000 A 
BRANCH  52  58
ATOM     58  O   UNL     1     111.064 130.455 144.686  0.00  0.00    +0.000 OA
BRANCH  58  67
ATOM     59  O   UNL     1     111.947 131.396 145.300  0.00  0.00    +0.000 OA
ATOM     60  O   UNL     1     110.001 132.611 146.230  0.00  0.00    +0.000 OA
ATOM     61  O   UNL     1     111.531 133.147 146.535  0.00  0.00    +0.000 OA
ATOM     62  O   UNL     1     109.768 131.265 145.305  0.00  0.00    +0.000 OA
ATOM     63  C   UNL     1     110.650 132.206 145.920  0.00  0.00    +0.000 C 
ATOM     64  C   UNL     1     111.414 132.474 146.072  0.00  0.00    +0.000 C 
ATOM     65  C   UNL     1     110.533 131.533 145.458  0.00  0.00    +0.000 C 
ATOM     66  C   UNL     1     112.063 132.069 145.763  0.00  0.00    +0.000 C 
ATOM     67  C   UNL     1     111.182 131.127 145.147  0.00  0.00    +0.000 C 
BRANCH  66  70
ATOM     68  O   UNL     1     113.247 132.043 146.562  0.00  0.00    +0.000 OA
ATOM     69  O   UNL     1     113.174 132.900 145.421  0.00  0.00    +0.000 OA
ATOM     70  C   UNL     1     112.828 132.337 145.915  0.00  0.00    +0.000 C 
ENDBRANCH  66  70
ENDBRANCH  58  67
ENDBRANCH  52  58
ENDBRANCH  49  53
ENDBRANCH  38  42
ENDBRANCH   7  38
TORSDOF 15
ENDMDL
MODEL 8
REMARK VINA RESULT:     -10.1      1.501      3.975
REMARK  Name = 74977681
REMARK  15 active torsions:
REMARK  status: ('A' for Active; 'I' for Inactive)
REMARK    1  A    between atoms: O_1  and  C_28
REMARK    2  A    between atoms: O_1  and  C_30
REMARK    3  A    between atoms: O_4  and  C_31
REMARK    4  A    between atoms: O_4  and  C_46
REMARK    5  A    between atoms: O_6  and  C_34
REMARK    6  A    between atoms: O_6  and  C_43
REMARK    7  A    between atoms: O_15  and  C_45
REMARK    8  A    between atoms: O_15  and  C_54
REMARK    9  A    between atoms: O_26  and  C_67
REMARK   10  A    between atoms: C_36  and  C_38
REMARK   11  A    between atoms: C_37  and  C_39
REMARK   12  A    between atoms: C_44  and  C_49
REMARK   13  A    between atoms: C_46  and  C_51
REMARK   14  A    between atoms: C_56  and  C_58
REMARK   15  A    between atoms: C_57  and  C_64
REMARK                            x       y       z     vdW  Elec       q    Type
REMARK                         _______ _______ _______ _____ _____    ______ ____
ROOT
ATOM      1  O   UNL     1     113.278 129.285 137.883  0.00  0.00    +0.000 OA
ATOM      2  O   UNL     1     111.289 128.125 136.973  0.00  0.00    +0.000 OA
ATOM      3  O   UNL     1     111.975 129.368 136.134  0.00  0.00    +0.000 OA
ATOM      4  C   UNL     1     112.272 128.275 138.000  0.00  0.00    +0.000 C 
ATOM      5  C   UNL     1     111.952 128.511 137.277  0.00  0.00    +0.000 C 
ATOM      6  C   UNL     1     112.294 129.133 136.857  0.00  0.00    +0.000 C 
ATOM      7  C   UNL     1     112.934 128.662 138.303  0.00  0.00    +0.000 C 
ATOM      8  C   UNL     1     112.957 129.519 137.160  0.00  0.00    +0.000 C 
ENDROOT
BRANCH   8  11
ATOM      9  O   UNL     1     113.018 130.911 136.840  0.00  0.00    +0.000 OA
ATOM     10  O   UNL     1     113.925 129.995 136.222  0.00  0.00    +0.000 OA
ATOM     11  C   UNL     1     113.300 130.141 136.741  0.00  0.00    +0.000 C 
ENDBRANCH   8  11
BRANCH   4  12
ATOM     12  O   UNL     1     111.929 127.654 138.420  0.00  0.00    +0.000 OA
BRANCH  12  16
ATOM     13  O   UNL     1     112.779 126.692 137.790  0.00  0.00    +0.000 OA
ATOM     14  O   UNL     1     111.188 124.894 138.388  0.00  0.00    +0.000 OA
ATOM     15  O   UNL     1     112.569 124.533 137.559  0.00  0.00    +0.000 OA
ATOM     16  C   UNL     1     112.089 126.874 138.204  0.00  0.00    +0.000 C 
ATOM     17  C   UNL     1     111.559 126.273 138.404  0.00  0.00    +0.000 C 
ATOM     18  C   UNL     1     111.718 125.493 138.188  0.00  0.00    +0.000 C 
ATOM     19  C   UNL     1     112.409 125.313 137.774  0.00  0.00    +0.000 C 
ATOM     20  C   UNL     1     112.939 125.912 137.575  0.00  0.00    +0.000 C 
BRANCH  20  23
ATOM     21  O   UNL     1     114.325 125.563 137.572  0.00  0.00    +0.000 OA
ATOM     22  O   UNL     1     113.626 125.722 136.336  0.00  0.00    +0.000 OA
ATOM     23  C   UNL     1     113.630 125.732 137.160  0.00  0.00    +0.000 C 
ENDBRANCH  20  23
BRANCH  17  24
ATOM     24  O   UNL     1     110.869 126.454 138.818  0.00  0.00    +0.000 OA
BRANCH  24  26
ATOM     25  O   UNL     1     111.328 125.795 140.000  0.00  0.00    +0.000 OA
ATOM     26  C   UNL     1     110.841 126.353 139.637  0.00  0.00    +0.000 C 
BRANCH  26  27
ATOM     27  C   UNL     1     110.327 126.810 140.091  0.00  0.00    +0.000 C 
ATOM     28  C   UNL     1     110.148 126.584 140.865  0.00  0.00    +0.000 C 
BRANCH  28  30
ATOM     29  O   UNL     1     108.091 128.415 142.683  0.00  0.00    +0.000 OA
ATOM     30  C   UNL     1     109.633 127.041 141.319  0.00  0.00    +0.000 A 
ATOM     31  C   UNL     1     108.838 126.830 141.381  0.00  0.00    +0.000 A 
ATOM     32  C   UNL     1     109.914 127.711 141.712  0.00  0.00    +0.000 A 
ATOM     33  C   UNL     1     108.324 127.288 141.836  0.00  0.00    +0.000 A 
ATOM     34  C   UNL     1     109.400 128.168 142.166  0.00  0.00    +0.000 A 
ATOM     35  C   UNL     1     108.605 127.957 142.228  0.00  0.00    +0.000 A 
BRANCH  33  36
ATOM     36  O   UNL     1     107.529 127.077 141.898  0.00  0.00    +0.000 OA
ATOM     37  C   UNL     1     107.314 126.281 141.918  0.00  0.00    +0.000 C 
ENDBRANCH  33  36
ENDBRANCH  28  30
ENDBRANCH  26  27
ENDBRANCH  24  26
ENDBRANCH  17  24
ENDBRANCH  12  16
ENDBRANCH   4  12
BRANCH   7  38
ATOM     38  O   UNL     1     113.255 128.427 139.026  0.00  0.00    +0.000 OA
BRANCH  38  42
ATOM     39  O   UNL     1     112.492 130.073 141.304  0.00  0.00    +0.000 OA
ATOM     40  O   UNL     1     115.178 130.248 140.255  0.00  0.00    +0.000 OA
ATOM     41  O   UNL     1     114.766 131.049 141.381  0.00  0.00    +0.000 OA
ATOM     42  C   UNL     1     113.445 128.992 139.596  0.00  0.00    +0.000 A 
ATOM     43  C   UNL     1     112.855 129.245 140.167  0.00  0.00    +0.000 A 
ATOM     44  C   UNL     1     114.234 129.330 139.623  0.00  0.00    +0.000 A 
ATOM     45  C   UNL     1     113.062 129.834 140.758  0.00  0.00    +0.000 A 
ATOM     46  C   UNL     1     114.423 129.918 140.221  0.00  0.00    +0.000 A 
ATOM     47  C   UNL     1     113.820 130.159 140.784  0.00  0.00    +0.000 A 
ATOM     48  C   UNL     1     114.008 130.724 141.356  0.00  0.00    +0.000 A 
ATOM     49  C   UNL     1     112.679 130.638 141.875  0.00  0.00    +0.000 A 
ATOM     50  C   UNL     1     113.438 130.964 141.901  0.00  0.00    +0.000 A 
BRANCH  49  53
ATOM     51  O   UNL     1     110.065 131.644 142.442  0.00  0.00    +0.000 OA
ATOM     52  C   UNL     1     110.968 131.357 143.513  0.00  0.00    +0.000 A 
ATOM     53  C   UNL     1     112.109 130.878 142.421  0.00  0.00    +0.000 A 
ATOM     54  C   UNL     1     110.802 131.381 142.705  0.00  0.00    +0.000 A 
ATOM     55  C   UNL     1     111.705 131.094 143.775  0.00  0.00    +0.000 A 
ATOM     56  C   UNL     1     111.372 131.141 142.159  0.00  0.00    +0.000 A 
ATOM     57  C   UNL     1     112.275 130.854 143.229  0.00  0.00    +0.000 A 
BRANCH  52  58
ATOM     58  O   UNL     1     110.398 131.597 144.059  0.00  0.00    +0.000 OA
BRANCH  58  67
ATOM     59  O   UNL     1     110.983 132.863 144.367  0.00  0.00    +0.000 OA
ATOM     60  O   UNL     1     110.273 132.615 146.725  0.00  0.00    +0.000 OA
ATOM     61  O   UNL     1     111.095 133.964 146.249  0.00  0.00    +0.000 OA
ATOM     62  O   UNL     1     109.925 131.432 145.630  0.00  0.00    +0.000 OA
ATOM     63  C   UNL     1     110.510 132.698 145.940  0.00  0.00    +0.000 C 
ATOM     64  C   UNL     1     110.920 133.372 145.701  0.00  0.00    +0.000 C 
ATOM     65  C   UNL     1     110.336 132.106 145.392  0.00  0.00    +0.000 C 
ATOM     66  C   UNL     1     111.157 133.455 144.915  0.00  0.00    +0.000 C 
ATOM     67  C   UNL     1     110.572 132.188 144.605  0.00  0.00    +0.000 C 
BRANCH  66  70
ATOM     68  O   UNL     1     111.162 134.762 144.338  0.00  0.00    +0.000 OA
ATOM     69  O   UNL     1     112.386 134.172 144.778  0.00  0.00    +0.000 OA
ATOM     70  C   UNL     1     111.568 134.130 144.677  0.00  0.00    +0.000 C 
ENDBRANCH  66  70
ENDBRANCH  58  67
ENDBRANCH  52  58
ENDBRANCH  49  53
ENDBRANCH  38  42
ENDBRANCH   7  38
TORSDOF 15
ENDMDL
MODEL 9
REMARK VINA RESULT:     -10.1      3.806      7.396
REMARK  Name = 74977681
REMARK  15 active torsions:
REMARK  status: ('A' for Active; 'I' for Inactive)
REMARK    1  A    between atoms: O_1  and  C_28
REMARK    2  A    between atoms: O_1  and  C_30
REMARK    3  A    between atoms: O_4  and  C_31
REMARK    4  A    between atoms: O_4  and  C_46
REMARK    5  A    between atoms: O_6  and  C_34
REMARK    6  A    between atoms: O_6  and  C_43
REMARK    7  A    between atoms: O_15  and  C_45
REMARK    8  A    between atoms: O_15  and  C_54
REMARK    9  A    between atoms: O_26  and  C_67
REMARK   10  A    between atoms: C_36  and  C_38
REMARK   11  A    between atoms: C_37  and  C_39
REMARK   12  A    between atoms: C_44  and  C_49
REMARK   13  A    between atoms: C_46  and  C_51
REMARK   14  A    between atoms: C_56  and  C_58
REMARK   15  A    between atoms: C_57  and  C_64
REMARK                            x       y       z     vdW  Elec       q    Type
REMARK                         _______ _______ _______ _____ _____    ______ ____
ROOT
ATOM      1  O   UNL     1     108.525 130.112 142.298  0.00  0.00    +0.000 OA
ATOM      2  O   UNL     1     109.981 131.410 140.774  0.00  0.00    +0.000 OA
ATOM      3  O   UNL     1     108.500 130.895 140.261  0.00  0.00    +0.000 OA
ATOM      4  C   UNL     1     109.752 130.802 142.047  0.00  0.00    +0.000 C 
ATOM      5  C   UNL     1     109.495 130.977 141.282  0.00  0.00    +0.000 C 
ATOM      6  C   UNL     1     108.755 130.720 141.025  0.00  0.00    +0.000 C 
ATOM      7  C   UNL     1     109.266 130.370 142.555  0.00  0.00    +0.000 C 
ATOM      8  C   UNL     1     108.270 130.288 141.534  0.00  0.00    +0.000 C 
ENDROOT
BRANCH   8  11
ATOM      9  O   UNL     1     106.874 130.528 141.346  0.00  0.00    +0.000 OA
ATOM     10  O   UNL     1     107.443 129.277 140.954  0.00  0.00    +0.000 OA
ATOM     11  C   UNL     1     107.529 130.031 141.278  0.00  0.00    +0.000 C 
ENDBRANCH   8  11
BRANCH   4  12
ATOM     12  O   UNL     1     110.492 131.059 142.303  0.00  0.00    +0.000 OA
BRANCH  12  16
ATOM     13  O   UNL     1     111.115 129.842 141.886  0.00  0.00    +0.000 OA
ATOM     14  O   UNL     1     113.315 130.973 141.871  0.00  0.00    +0.000 OA
ATOM     15  O   UNL     1     113.204 129.379 141.458  0.00  0.00    +0.000 OA
ATOM     16  C   UNL     1     111.170 130.639 142.092  0.00  0.00    +0.000 C 
ATOM     17  C   UNL     1     111.904 131.016 142.087  0.00  0.00    +0.000 C 
ATOM     18  C   UNL     1     112.582 130.596 141.876  0.00  0.00    +0.000 C 
ATOM     19  C   UNL     1     112.526 129.799 141.669  0.00  0.00    +0.000 C 
ATOM     20  C   UNL     1     111.793 129.422 141.674  0.00  0.00    +0.000 C 
BRANCH  20  23
ATOM     21  O   UNL     1     111.633 128.411 140.678  0.00  0.00    +0.000 OA
ATOM     22  O   UNL     1     111.783 128.044 142.051  0.00  0.00    +0.000 OA
ATOM     23  C   UNL     1     111.736 128.625 141.468  0.00  0.00    +0.000 C 
ENDBRANCH  20  23
BRANCH  17  24
ATOM     24  O   UNL     1     111.959 131.813 142.293  0.00  0.00    +0.000 OA
BRANCH  24  26
ATOM     25  O   UNL     1     113.223 132.069 142.911  0.00  0.00    +0.000 OA
ATOM     26  C   UNL     1     112.400 132.038 142.954  0.00  0.00    +0.000 C 
BRANCH  26  27
ATOM     27  C   UNL     1     112.016 132.232 143.658  0.00  0.00    +0.000 C 
ATOM     28  C   UNL     1     112.335 132.808 144.156  0.00  0.00    +0.000 C 
BRANCH  28  30
ATOM     29  O   UNL     1     110.797 133.585 146.971  0.00  0.00    +0.000 OA
ATOM     30  C   UNL     1     111.951 133.002 144.860  0.00  0.00    +0.000 A 
ATOM     31  C   UNL     1     112.173 132.638 145.566  0.00  0.00    +0.000 A 
ATOM     32  C   UNL     1     111.343 133.561 144.858  0.00  0.00    +0.000 A 
ATOM     33  C   UNL     1     111.788 132.832 146.269  0.00  0.00    +0.000 A 
ATOM     34  C   UNL     1     110.959 133.755 145.562  0.00  0.00    +0.000 A 
ATOM     35  C   UNL     1     111.182 133.391 146.267  0.00  0.00    +0.000 A 
BRANCH  33  36
ATOM     36  O   UNL     1     112.011 132.468 146.975  0.00  0.00    +0.000 OA
ATOM     37  C   UNL     1     112.799 132.259 147.101  0.00  0.00    +0.000 C 
ENDBRANCH  33  36
ENDBRANCH  28  30
ENDBRANCH  26  27
ENDBRANCH  24  26
ENDBRANCH  17  24
ENDBRANCH  12  16
ENDBRANCH   4  12
BRANCH   7  38
ATOM     38  O   UNL     1     109.521 130.194 143.319  0.00  0.00    +0.000 OA
BRANCH  38  42
ATOM     39  O   UNL     1     107.791 128.868 145.249  0.00  0.00    +0.000 OA
ATOM     40  O   UNL     1     107.998 131.749 145.265  0.00  0.00    +0.000 OA
ATOM     41  O   UNL     1     107.150 131.059 146.206  0.00  0.00    +0.000 OA
ATOM     42  C   UNL     1     108.991 130.233 143.950  0.00  0.00    +0.000 A 
ATOM     43  C   UNL     1     108.658 129.512 144.280  0.00  0.00    +0.000 A 
ATOM     44  C   UNL     1     108.769 130.993 144.282  0.00  0.00    +0.000 A 
ATOM     45  C   UNL     1     108.107 129.562 144.938  0.00  0.00    +0.000 A 
ATOM     46  C   UNL     1     108.216 131.023 144.940  0.00  0.00    +0.000 A 
ATOM     47  C   UNL     1     107.894 130.293 145.256  0.00  0.00    +0.000 A 
ATOM     48  C   UNL     1     107.364 130.328 145.888  0.00  0.00    +0.000 A 
ATOM     49  C   UNL     1     107.261 128.903 145.881  0.00  0.00    +0.000 A 
ATOM     50  C   UNL     1     107.047 129.634 146.200  0.00  0.00    +0.000 A 
BRANCH  49  53
ATOM     51  O   UNL     1     107.616 126.410 147.231  0.00  0.00    +0.000 OA
ATOM     52  C   UNL     1     106.310 126.819 146.818  0.00  0.00    +0.000 A 
ATOM     53  C   UNL     1     106.944 128.208 146.193  0.00  0.00    +0.000 A 
ATOM     54  C   UNL     1     107.121 126.961 146.868  0.00  0.00    +0.000 A 
ATOM     55  C   UNL     1     105.816 127.371 146.455  0.00  0.00    +0.000 A 
ATOM     56  C   UNL     1     107.438 127.656 146.556  0.00  0.00    +0.000 A 
ATOM     57  C   UNL     1     106.133 128.066 146.143  0.00  0.00    +0.000 A 
BRANCH  52  58
ATOM     58  O   UNL     1     105.993 126.124 147.130  0.00  0.00    +0.000 OA
BRANCH  58  67
ATOM     59  O   UNL     1     105.833 125.404 145.907  0.00  0.00    +0.000 OA
ATOM     60  O   UNL     1     103.656 124.537 146.704  0.00  0.00    +0.000 OA
ATOM     61  O   UNL     1     104.221 124.106 145.215  0.00  0.00    +0.000 OA
ATOM     62  O   UNL     1     104.543 125.546 147.662  0.00  0.00    +0.000 OA
ATOM     63  C   UNL     1     104.381 124.826 146.438  0.00  0.00    +0.000 C 
ATOM     64  C   UNL     1     104.664 124.610 145.694  0.00  0.00    +0.000 C 
ATOM     65  C   UNL     1     104.825 125.331 146.917  0.00  0.00    +0.000 C 
ATOM     66  C   UNL     1     105.390 124.899 145.428  0.00  0.00    +0.000 C 
ATOM     67  C   UNL     1     105.551 125.620 146.652  0.00  0.00    +0.000 C 
BRANCH  66  70
ATOM     68  O   UNL     1     106.255 124.104 144.615  0.00  0.00    +0.000 OA
ATOM     69  O   UNL     1     105.371 125.047 144.007  0.00  0.00    +0.000 OA
ATOM     70  C   UNL     1     105.672 124.683 144.683  0.00  0.00    +0.000 C 
ENDBRANCH  66  70
ENDBRANCH  58  67
ENDBRANCH  52  58
ENDBRANCH  49  53
ENDBRANCH  38  42
ENDBRANCH   7  38
TORSDOF 15
ENDMDL
MODEL 10
REMARK VINA RESULT:     -10.1      3.484      6.759
REMARK  Name = 74977681
REMARK  15 active torsions:
REMARK  status: ('A' for Active; 'I' for Inactive)
REMARK    1  A    between atoms: O_1  and  C_28
REMARK    2  A    between atoms: O_1  and  C_30
REMARK    3  A    between atoms: O_4  and  C_31
REMARK    4  A    between atoms: O_4  and  C_46
REMARK    5  A    between atoms: O_6  and  C_34
REMARK    6  A    between atoms: O_6  and  C_43
REMARK    7  A    between atoms: O_15  and  C_45
REMARK    8  A    between atoms: O_15  and  C_54
REMARK    9  A    between atoms: O_26  and  C_67
REMARK   10  A    between atoms: C_36  and  C_38
REMARK   11  A    between atoms: C_37  and  C_39
REMARK   12  A    between atoms: C_44  and  C_49
REMARK   13  A    between atoms: C_46  and  C_51
REMARK   14  A    between atoms: C_56  and  C_58
REMARK   15  A    between atoms: C_57  and  C_64
REMARK                            x       y       z     vdW  Elec       q    Type
REMARK                         _______ _______ _______ _____ _____    ______ ____
ROOT
ATOM      1  O   UNL     1     109.895 130.307 143.195  0.00  0.00    +0.000 OA
ATOM      2  O   UNL     1     111.915 129.158 144.046  0.00  0.00    +0.000 OA
ATOM      3  O   UNL     1     111.228 130.376 144.921  0.00  0.00    +0.000 OA
ATOM      4  C   UNL     1     110.912 129.314 143.040  0.00  0.00    +0.000 C 
ATOM      5  C   UNL     1     111.242 129.541 143.762  0.00  0.00    +0.000 C 
ATOM      6  C   UNL     1     110.899 130.150 144.200  0.00  0.00    +0.000 C 
ATOM      7  C   UNL     1     110.239 129.697 142.757  0.00  0.00    +0.000 C 
ATOM      8  C   UNL     1     110.225 130.533 143.916  0.00  0.00    +0.000 C 
ENDROOT
BRANCH   8  11
ATOM      9  O   UNL     1     110.073 131.927 144.187  0.00  0.00    +0.000 OA
ATOM     10  O   UNL     1     109.346 130.966 144.956  0.00  0.00    +0.000 OA
ATOM     11  C   UNL     1     109.881 131.142 144.353  0.00  0.00    +0.000 C 
ENDBRANCH   8  11
BRANCH   4  12
ATOM     12  O   UNL     1     111.255 128.706 142.603  0.00  0.00    +0.000 OA
BRANCH  12  16
ATOM     13  O   UNL     1     112.120 129.636 141.947  0.00  0.00    +0.000 OA
ATOM     14  O   UNL     1     113.484 127.760 141.083  0.00  0.00    +0.000 OA
ATOM     15  O   UNL     1     113.893 129.316 140.716  0.00  0.00    +0.000 OA
ATOM     16  C   UNL     1     111.915 128.858 142.131  0.00  0.00    +0.000 C 
ATOM     17  C   UNL     1     112.370 128.233 141.843  0.00  0.00    +0.000 C 
ATOM     18  C   UNL     1     113.029 128.385 141.371  0.00  0.00    +0.000 C 
ATOM     19  C   UNL     1     113.234 129.163 141.188  0.00  0.00    +0.000 C 
ATOM     20  C   UNL     1     112.780 129.788 141.476  0.00  0.00    +0.000 C 
BRANCH  20  23
ATOM     21  O   UNL     1     113.538 130.967 141.755  0.00  0.00    +0.000 OA
ATOM     22  O   UNL     1     112.636 130.944 140.648  0.00  0.00    +0.000 OA
ATOM     23  C   UNL     1     112.984 130.566 141.292  0.00  0.00    +0.000 C 
ENDBRANCH  20  23
BRANCH  17  24
ATOM     24  O   UNL     1     112.165 127.455 142.027  0.00  0.00    +0.000 OA
BRANCH  24  26
ATOM     25  O   UNL     1     112.587 126.512 141.039  0.00  0.00    +0.000 OA
ATOM     26  C   UNL     1     111.983 126.923 141.422  0.00  0.00    +0.000 C 
BRANCH  26  27
ATOM     27  C   UNL     1     111.197 126.803 141.202  0.00  0.00    +0.000 C 
ATOM     28  C   UNL     1     111.006 126.199 140.672  0.00  0.00    +0.000 C 
BRANCH  28  30
ATOM     29  O   UNL     1     107.862 125.716 139.793  0.00  0.00    +0.000 OA
ATOM     30  C   UNL     1     110.220 126.079 140.452  0.00  0.00    +0.000 A 
ATOM     31  C   UNL     1     109.952 126.342 139.717  0.00  0.00    +0.000 A 
ATOM     32  C   UNL     1     109.702 125.694 140.967  0.00  0.00    +0.000 A 
ATOM     33  C   UNL     1     109.166 126.221 139.498  0.00  0.00    +0.000 A 
ATOM     34  C   UNL     1     108.916 125.574 140.746  0.00  0.00    +0.000 A 
ATOM     35  C   UNL     1     108.648 125.837 140.012  0.00  0.00    +0.000 A 
BRANCH  33  36
ATOM     36  O   UNL     1     108.897 126.485 138.763  0.00  0.00    +0.000 OA
ATOM     37  C   UNL     1     109.434 126.613 138.150  0.00  0.00    +0.000 C 
ENDBRANCH  33  36
ENDBRANCH  28  30
ENDBRANCH  26  27
ENDBRANCH  24  26
ENDBRANCH  17  24
ENDBRANCH  12  16
ENDBRANCH   4  12
BRANCH   7  38
ATOM     38  O   UNL     1     109.908 129.471 142.035  0.00  0.00    +0.000 OA
BRANCH  38  42
ATOM     39  O   UNL     1     107.573 127.950 142.879  0.00  0.00    +0.000 OA
ATOM     40  O   UNL     1     107.284 130.011 140.875  0.00  0.00    +0.000 OA
ATOM     41  O   UNL     1     106.149 129.238 141.316  0.00  0.00    +0.000 OA
ATOM     42  C   UNL     1     109.101 129.313 141.983  0.00  0.00    +0.000 A 
ATOM     43  C   UNL     1     108.748 128.699 142.470  0.00  0.00    +0.000 A 
ATOM     44  C   UNL     1     108.607 129.760 141.441  0.00  0.00    +0.000 A 
ATOM     45  C   UNL     1     107.905 128.540 142.408  0.00  0.00    +0.000 A 
ATOM     46  C   UNL     1     107.766 129.587 141.393  0.00  0.00    +0.000 A 
ATOM     47  C   UNL     1     107.431 128.970 141.888  0.00  0.00    +0.000 A 
ATOM     48  C   UNL     1     106.623 128.809 141.837  0.00  0.00    +0.000 A 
ATOM     49  C   UNL     1     106.765 127.789 142.828  0.00  0.00    +0.000 A 
ATOM     50  C   UNL     1     106.290 128.219 142.307  0.00  0.00    +0.000 A 
BRANCH  49  53
ATOM     51  O   UNL     1     106.321 125.020 143.380  0.00  0.00    +0.000 OA
ATOM     52  C   UNL     1     105.765 126.018 144.239  0.00  0.00    +0.000 A 
ATOM     53  C   UNL     1     106.432 127.199 143.298  0.00  0.00    +0.000 A 
ATOM     54  C   UNL     1     106.210 125.815 143.575  0.00  0.00    +0.000 A 
ATOM     55  C   UNL     1     105.654 126.812 144.433  0.00  0.00    +0.000 A 
ATOM     56  C   UNL     1     106.543 126.405 143.104  0.00  0.00    +0.000 A 
ATOM     57  C   UNL     1     105.987 127.403 143.963  0.00  0.00    +0.000 A 
BRANCH  52  58
ATOM     58  O   UNL     1     105.432 125.428 144.709  0.00  0.00    +0.000 OA
BRANCH  58  67
ATOM     59  O   UNL     1     106.356 125.540 145.793  0.00  0.00    +0.000 OA
ATOM     60  O   UNL     1     104.529 125.069 147.396  0.00  0.00    +0.000 OA
ATOM     61  O   UNL     1     106.061 125.338 147.947  0.00  0.00    +0.000 OA
ATOM     62  O   UNL     1     104.215 125.114 145.777  0.00  0.00    +0.000 OA
ATOM     63  C   UNL     1     105.138 125.226 146.862  0.00  0.00    +0.000 C 
ATOM     64  C   UNL     1     105.904 125.361 147.137  0.00  0.00    +0.000 C 
ATOM     65  C   UNL     1     104.981 125.249 146.053  0.00  0.00    +0.000 C 
ATOM     66  C   UNL     1     106.513 125.518 146.603  0.00  0.00    +0.000 C 
ATOM     67  C   UNL     1     105.590 125.406 145.518  0.00  0.00    +0.000 C 
BRANCH  66  70
ATOM     68  O   UNL     1     107.510 126.413 147.101  0.00  0.00    +0.000 OA
ATOM     69  O   UNL     1     107.814 125.027 146.932  0.00  0.00    +0.000 OA
ATOM     70  C   UNL     1     107.279 125.652 146.878  0.00  0.00    +0.000 C 
ENDBRANCH  66  70
ENDBRANCH  58  67
ENDBRANCH  52  58
ENDBRANCH  49  53
ENDBRANCH  38  42
ENDBRANCH   7  38
TORSDOF 15
ENDMDL
