MODEL 1
REMARK VINA RESULT:      -9.3      0.000      0.000
REMARK  Name = 44257088
REMARK  4 active torsions:
REMARK  status: ('A' for Active; 'I' for Inactive)
REMARK    1  A    between atoms: O_2  and  C_16
REMARK    2  A    between atoms: O_2  and  C_23
REMARK    3  A    between atoms: C_15  and  C_18
REMARK    4  A    between atoms: C_17  and  C_21
REMARK                            x       y       z     vdW  Elec       q    Type
REMARK                         _______ _______ _______ _____ _____    ______ ____
ROOT
ATOM      1  O   UNL     1     111.201 124.407 135.762  0.00  0.00    +0.000 OA
ATOM      2  C   UNL     1     110.111 126.628 135.833  0.00  0.00    +0.000 A 
ATOM      3  C   UNL     1     110.756 125.544 136.505  0.00  0.00    +0.000 A 
ATOM      4  C   UNL     1     110.392 126.284 136.528  0.00  0.00    +0.000 A 
ATOM      5  C   UNL     1     110.193 126.232 135.115  0.00  0.00    +0.000 A 
ATOM      6  C   UNL     1     110.838 125.147 135.785  0.00  0.00    +0.000 A 
ATOM      7  C   UNL     1     110.556 125.491 135.090  0.00  0.00    +0.000 A 
ENDROOT
BRANCH   2  12
ATOM      8  O   UNL     1     110.209 128.054 135.858  0.00  0.00    +0.000 OA
ATOM      9  O   UNL     1     108.466 126.740 135.881  0.00  0.00    +0.000 OA
ATOM     10  O   UNL     1     107.811 129.662 135.957  0.00  0.00    +0.000 OA
ATOM     11  O   UNL     1     110.428 130.958 135.909  0.00  0.00    +0.000 OA
ATOM     12  C   UNL     1     109.748 127.369 135.858  0.00  0.00    +0.000 C 
ATOM     13  C   UNL     1     108.926 127.425 135.882  0.00  0.00    +0.000 C 
ATOM     14  C   UNL     1     108.563 128.165 135.907  0.00  0.00    +0.000 C 
ATOM     15  C   UNL     1     109.023 128.851 135.907  0.00  0.00    +0.000 A 
ATOM     16  C   UNL     1     109.846 128.794 135.883  0.00  0.00    +0.000 A 
ATOM     17  C   UNL     1     108.634 129.616 135.933  0.00  0.00    +0.000 A 
ATOM     18  C   UNL     1     110.336 129.500 135.883  0.00  0.00    +0.000 A 
ATOM     19  C   UNL     1     109.108 130.333 135.934  0.00  0.00    +0.000 A 
ATOM     20  C   UNL     1     109.965 130.275 135.909  0.00  0.00    +0.000 A 
ENDBRANCH   2  12
BRANCH   3  21
ATOM     21  O   UNL     1     111.037 125.200 137.199  0.00  0.00    +0.000 OA
BRANCH  21  30
ATOM     22  O   UNL     1     112.247 125.947 137.334  0.00  0.00    +0.000 OA
ATOM     23  O   UNL     1     111.853 126.147 139.769  0.00  0.00    +0.000 OA
ATOM     24  O   UNL     1     113.195 126.828 139.092  0.00  0.00    +0.000 OA
ATOM     25  O   UNL     1     110.774 125.333 138.823  0.00  0.00    +0.000 OA
ATOM     26  C   UNL     1     111.984 126.080 138.957  0.00  0.00    +0.000 C 
ATOM     27  C   UNL     1     112.655 126.421 138.619  0.00  0.00    +0.000 C 
ATOM     28  C   UNL     1     111.444 125.673 138.484  0.00  0.00    +0.000 C 
ATOM     29  C   UNL     1     112.786 126.354 137.807  0.00  0.00    +0.000 C 
ATOM     30  C   UNL     1     111.576 125.607 137.673  0.00  0.00    +0.000 C 
BRANCH  29  32
ATOM     31  O   UNL     1     113.934 126.250 136.963  0.00  0.00    +0.000 OA
ATOM     32  C   UNL     1     113.457 126.695 137.468  0.00  0.00    +0.000 C 
ENDBRANCH  29  32
ENDBRANCH  21  30
ENDBRANCH   3  21
TORSDOF 4
ENDMDL
MODEL 2
REMARK VINA RESULT:      -9.2      1.740      3.099
REMARK  Name = 44257088
REMARK  4 active torsions:
REMARK  status: ('A' for Active; 'I' for Inactive)
REMARK    1  A    between atoms: O_2  and  C_16
REMARK    2  A    between atoms: O_2  and  C_23
REMARK    3  A    between atoms: C_15  and  C_18
REMARK    4  A    between atoms: C_17  and  C_21
REMARK                            x       y       z     vdW  Elec       q    Type
REMARK                         _______ _______ _______ _____ _____    ______ ____
ROOT
ATOM      1  O   UNL     1     114.730 125.391 138.312  0.00  0.00    +0.000 OA
ATOM      2  C   UNL     1     112.745 125.661 136.859  0.00  0.00    +0.000 A 
ATOM      3  C   UNL     1     113.360 125.763 138.145  0.00  0.00    +0.000 A 
ATOM      4  C   UNL     1     112.699 125.853 137.660  0.00  0.00    +0.000 A 
ATOM      5  C   UNL     1     113.452 125.380 136.542  0.00  0.00    +0.000 A 
ATOM      6  C   UNL     1     114.068 125.481 137.827  0.00  0.00    +0.000 A 
ATOM      7  C   UNL     1     114.115 125.290 137.026  0.00  0.00    +0.000 A 
ENDROOT
BRANCH   2  12
ATOM      8  O   UNL     1     111.860 126.504 136.117  0.00  0.00    +0.000 OA
ATOM      9  O   UNL     1     111.867 124.340 136.405  0.00  0.00    +0.000 OA
ATOM     10  O   UNL     1     109.634 125.351 134.681  0.00  0.00    +0.000 OA
ATOM     11  O   UNL     1     110.067 128.238 134.613  0.00  0.00    +0.000 OA
ATOM     12  C   UNL     1     112.083 125.752 136.375  0.00  0.00    +0.000 C 
ATOM     13  C   UNL     1     111.644 125.092 136.148  0.00  0.00    +0.000 C 
ATOM     14  C   UNL     1     110.982 125.182 135.664  0.00  0.00    +0.000 C 
ATOM     15  C   UNL     1     110.759 125.935 135.407  0.00  0.00    +0.000 A 
ATOM     16  C   UNL     1     111.198 126.595 135.634  0.00  0.00    +0.000 A 
ATOM     17  C   UNL     1     110.068 126.017 134.903  0.00  0.00    +0.000 A 
ATOM     18  C   UNL     1     110.977 127.383 135.372  0.00  0.00    +0.000 A 
ATOM     19  C   UNL     1     109.830 126.797 134.632  0.00  0.00    +0.000 A 
ATOM     20  C   UNL     1     110.288 127.485 134.868  0.00  0.00    +0.000 A 
ENDBRANCH   2  12
BRANCH   3  21
ATOM     21  O   UNL     1     113.314 125.954 138.945  0.00  0.00    +0.000 OA
BRANCH  21  30
ATOM     22  O   UNL     1     113.334 127.380 138.856  0.00  0.00    +0.000 OA
ATOM     23  O   UNL     1     111.507 127.510 140.520  0.00  0.00    +0.000 OA
ATOM     24  O   UNL     1     112.136 128.893 139.876  0.00  0.00    +0.000 OA
ATOM     25  O   UNL     1     112.096 126.040 140.054  0.00  0.00    +0.000 OA
ATOM     26  C   UNL     1     112.116 127.466 139.965  0.00  0.00    +0.000 C 
ATOM     27  C   UNL     1     112.430 128.157 139.643  0.00  0.00    +0.000 C 
ATOM     28  C   UNL     1     112.410 126.731 139.733  0.00  0.00    +0.000 C 
ATOM     29  C   UNL     1     113.040 128.114 139.089  0.00  0.00    +0.000 C 
ATOM     30  C   UNL     1     113.019 126.688 139.178  0.00  0.00    +0.000 C 
BRANCH  29  32
ATOM     31  O   UNL     1     113.278 128.956 137.959  0.00  0.00    +0.000 OA
ATOM     32  C   UNL     1     113.355 128.806 138.766  0.00  0.00    +0.000 C 
ENDBRANCH  29  32
ENDBRANCH  21  30
ENDBRANCH   3  21
TORSDOF 4
ENDMDL
MODEL 3
REMARK VINA RESULT:      -9.1      1.827      4.232
REMARK  Name = 44257088
REMARK  4 active torsions:
REMARK  status: ('A' for Active; 'I' for Inactive)
REMARK    1  A    between atoms: O_2  and  C_16
REMARK    2  A    between atoms: O_2  and  C_23
REMARK    3  A    between atoms: C_15  and  C_18
REMARK    4  A    between atoms: C_17  and  C_21
REMARK                            x       y       z     vdW  Elec       q    Type
REMARK                         _______ _______ _______ _____ _____    ______ ____
ROOT
ATOM      1  O   UNL     1     109.694 128.795 134.937  0.00  0.00    +0.000 OA
ATOM      2  C   UNL     1     110.939 126.787 135.675  0.00  0.00    +0.000 A 
ATOM      3  C   UNL     1     110.176 127.954 135.987  0.00  0.00    +0.000 A 
ATOM      4  C   UNL     1     110.591 127.285 136.233  0.00  0.00    +0.000 A 
ATOM      5  C   UNL     1     110.873 126.959 134.872  0.00  0.00    +0.000 A 
ATOM      6  C   UNL     1     110.109 128.126 135.182  0.00  0.00    +0.000 A 
ATOM      7  C   UNL     1     110.458 127.628 134.624  0.00  0.00    +0.000 A 
ENDROOT
BRANCH   2  12
ATOM      8  O   UNL     1     112.146 126.185 136.150  0.00  0.00    +0.000 OA
ATOM      9  O   UNL     1     110.190 125.318 135.715  0.00  0.00    +0.000 OA
ATOM     10  O   UNL     1     112.225 123.348 136.689  0.00  0.00    +0.000 OA
ATOM     11  O   UNL     1     114.612 124.975 137.117  0.00  0.00    +0.000 OA
ATOM     12  C   UNL     1     111.354 126.118 135.922  0.00  0.00    +0.000 C 
ATOM     13  C   UNL     1     110.980 125.384 135.942  0.00  0.00    +0.000 C 
ATOM     14  C   UNL     1     111.395 124.715 136.190  0.00  0.00    +0.000 C 
ATOM     15  C   UNL     1     112.186 124.782 136.417  0.00  0.00    +0.000 A 
ATOM     16  C   UNL     1     112.561 125.517 136.397  0.00  0.00    +0.000 A 
ATOM     17  C   UNL     1     112.608 124.079 136.673  0.00  0.00    +0.000 A 
ATOM     18  C   UNL     1     113.383 125.598 136.631  0.00  0.00    +0.000 A 
ATOM     19  C   UNL     1     113.431 124.141 136.911  0.00  0.00    +0.000 A 
ATOM     20  C   UNL     1     113.822 124.906 136.890  0.00  0.00    +0.000 A 
ENDBRANCH   2  12
BRANCH   3  21
ATOM     21  O   UNL     1     109.828 128.452 136.545  0.00  0.00    +0.000 OA
BRANCH  21  30
ATOM     22  O   UNL     1     110.989 129.165 136.975  0.00  0.00    +0.000 OA
ATOM     23  O   UNL     1     110.241 128.964 139.326  0.00  0.00    +0.000 OA
ATOM     24  O   UNL     1     111.651 129.744 138.972  0.00  0.00    +0.000 OA
ATOM     25  O   UNL     1     109.329 128.318 138.112  0.00  0.00    +0.000 OA
ATOM     26  C   UNL     1     110.490 129.031 138.542  0.00  0.00    +0.000 C 
ATOM     27  C   UNL     1     111.195 129.421 138.366  0.00  0.00    +0.000 C 
ATOM     28  C   UNL     1     110.034 128.708 137.935  0.00  0.00    +0.000 C 
ATOM     29  C   UNL     1     111.444 129.488 137.582  0.00  0.00    +0.000 C 
ATOM     30  C   UNL     1     110.283 128.775 137.152  0.00  0.00    +0.000 C 
BRANCH  29  32
ATOM     31  O   UNL     1     112.171 130.436 136.798  0.00  0.00    +0.000 OA
ATOM     32  C   UNL     1     112.150 129.878 137.405  0.00  0.00    +0.000 C 
ENDBRANCH  29  32
ENDBRANCH  21  30
ENDBRANCH   3  21
TORSDOF 4
ENDMDL
MODEL 4
REMARK VINA RESULT:      -9.0     10.168     11.844
REMARK  Name = 44257088
REMARK  4 active torsions:
REMARK  status: ('A' for Active; 'I' for Inactive)
REMARK    1  A    between atoms: O_2  and  C_16
REMARK    2  A    between atoms: O_2  and  C_23
REMARK    3  A    between atoms: C_15  and  C_18
REMARK    4  A    between atoms: C_17  and  C_21
REMARK                            x       y       z     vdW  Elec       q    Type
REMARK                         _______ _______ _______ _____ _____    ______ ____
ROOT
ATOM      1  O   UNL     1     107.634 125.468 146.693  0.00  0.00    +0.000 OA
ATOM      2  C   UNL     1     105.272 124.733 146.748  0.00  0.00    +0.000 A 
ATOM      3  C   UNL     1     106.371 125.314 146.043  0.00  0.00    +0.000 A 
ATOM      4  C   UNL     1     105.584 125.068 146.062  0.00  0.00    +0.000 A 
ATOM      5  C   UNL     1     105.747 124.642 147.415  0.00  0.00    +0.000 A 
ATOM      6  C   UNL     1     106.847 125.223 146.712  0.00  0.00    +0.000 A 
ATOM      7  C   UNL     1     106.535 124.887 147.398  0.00  0.00    +0.000 A 
ENDROOT
BRANCH   2  12
ATOM      8  O   UNL     1     103.925 124.925 147.188  0.00  0.00    +0.000 OA
ATOM      9  O   UNL     1     104.812 123.369 145.940  0.00  0.00    +0.000 OA
ATOM     10  O   UNL     1     101.870 123.051 146.406  0.00  0.00    +0.000 OA
ATOM     11  O   UNL     1     101.188 125.334 148.094  0.00  0.00    +0.000 OA
ATOM     12  C   UNL     1     104.484 124.487 146.766  0.00  0.00    +0.000 C 
ATOM     13  C   UNL     1     104.254 123.806 146.362  0.00  0.00    +0.000 C 
ATOM     14  C   UNL     1     103.467 123.561 146.379  0.00  0.00    +0.000 C 
ATOM     15  C   UNL     1     102.908 123.999 146.802  0.00  0.00    +0.000 A 
ATOM     16  C   UNL     1     103.138 124.681 147.206  0.00  0.00    +0.000 A 
ATOM     17  C   UNL     1     102.091 123.734 146.813  0.00  0.00    +0.000 A 
ATOM     18  C   UNL     1     102.566 125.144 147.649  0.00  0.00    +0.000 A 
ATOM     19  C   UNL     1     101.505 124.185 147.250  0.00  0.00    +0.000 A 
ATOM     20  C   UNL     1     101.744 124.895 147.671  0.00  0.00    +0.000 A 
ENDBRANCH   2  12
BRANCH   3  21
ATOM     21  O   UNL     1     106.682 125.649 145.358  0.00  0.00    +0.000 OA
BRANCH  21  30
ATOM     22  O   UNL     1     106.064 126.936 145.418  0.00  0.00    +0.000 OA
ATOM     23  O   UNL     1     105.543 126.799 143.003  0.00  0.00    +0.000 OA
ATOM     24  O   UNL     1     105.099 128.132 143.868  0.00  0.00    +0.000 OA
ATOM     25  O   UNL     1     106.335 125.558 143.748  0.00  0.00    +0.000 OA
ATOM     26  C   UNL     1     105.717 126.845 143.808  0.00  0.00    +0.000 C 
ATOM     27  C   UNL     1     105.495 127.511 144.240  0.00  0.00    +0.000 C 
ATOM     28  C   UNL     1     106.113 126.224 144.180  0.00  0.00    +0.000 C 
ATOM     29  C   UNL     1     105.668 127.556 145.046  0.00  0.00    +0.000 C 
ATOM     30  C   UNL     1     106.286 126.269 144.985  0.00  0.00    +0.000 C 
BRANCH  29  32
ATOM     31  O   UNL     1     105.974 128.560 146.016  0.00  0.00    +0.000 OA
ATOM     32  C   UNL     1     105.446 128.223 145.479  0.00  0.00    +0.000 C 
ENDBRANCH  29  32
ENDBRANCH  21  30
ENDBRANCH   3  21
TORSDOF 4
ENDMDL
MODEL 5
REMARK VINA RESULT:      -9.0     10.732     12.567
REMARK  Name = 44257088
REMARK  4 active torsions:
REMARK  status: ('A' for Active; 'I' for Inactive)
REMARK    1  A    between atoms: O_2  and  C_16
REMARK    2  A    between atoms: O_2  and  C_23
REMARK    3  A    between atoms: C_15  and  C_18
REMARK    4  A    between atoms: C_17  and  C_21
REMARK                            x       y       z     vdW  Elec       q    Type
REMARK                         _______ _______ _______ _____ _____    ______ ____
ROOT
ATOM      1  O   UNL     1     108.213 125.239 147.225  0.00  0.00    +0.000 OA
ATOM      2  C   UNL     1     105.936 125.452 148.170  0.00  0.00    +0.000 A 
ATOM      3  C   UNL     1     106.795 125.167 147.064  0.00  0.00    +0.000 A 
ATOM      4  C   UNL     1     106.036 125.238 147.380  0.00  0.00    +0.000 A 
ATOM      5  C   UNL     1     106.594 125.595 148.645  0.00  0.00    +0.000 A 
ATOM      6  C   UNL     1     107.454 125.310 147.540  0.00  0.00    +0.000 A 
ATOM      7  C   UNL     1     107.354 125.524 148.331  0.00  0.00    +0.000 A 
ENDROOT
BRANCH   2  12
ATOM      8  O   UNL     1     104.731 124.846 148.644  0.00  0.00    +0.000 OA
ATOM      9  O   UNL     1     105.306 126.946 148.481  0.00  0.00    +0.000 OA
ATOM     10  O   UNL     1     102.561 126.500 149.593  0.00  0.00    +0.000 OA
ATOM     11  O   UNL     1     102.284 123.593 149.604  0.00  0.00    +0.000 OA
ATOM     12  C   UNL     1     105.176 125.523 148.485  0.00  0.00    +0.000 C 
ATOM     13  C   UNL     1     104.862 126.269 148.640  0.00  0.00    +0.000 C 
ATOM     14  C   UNL     1     104.102 126.340 148.954  0.00  0.00    +0.000 C 
ATOM     15  C   UNL     1     103.657 125.663 149.113  0.00  0.00    +0.000 A 
ATOM     16  C   UNL     1     103.972 124.917 148.958  0.00  0.00    +0.000 A 
ATOM     17  C   UNL     1     102.867 125.749 149.440  0.00  0.00    +0.000 A 
ATOM     18  C   UNL     1     103.518 124.205 149.119  0.00  0.00    +0.000 A 
ATOM     19  C   UNL     1     102.399 125.049 149.608  0.00  0.00    +0.000 A 
ATOM     20  C   UNL     1     102.726 124.271 149.446  0.00  0.00    +0.000 A 
ENDBRANCH   2  12
BRANCH   3  21
ATOM     21  O   UNL     1     106.895 124.954 146.275  0.00  0.00    +0.000 OA
BRANCH  21  30
ATOM     22  O   UNL     1     106.694 126.215 145.635  0.00  0.00    +0.000 OA
ATOM     23  O   UNL     1     105.211 125.135 143.973  0.00  0.00    +0.000 OA
ATOM     24  O   UNL     1     105.504 126.757 143.887  0.00  0.00    +0.000 OA
ATOM     25  O   UNL     1     105.907 124.234 145.167  0.00  0.00    +0.000 OA
ATOM     26  C   UNL     1     105.705 125.495 144.527  0.00  0.00    +0.000 C 
ATOM     27  C   UNL     1     105.851 126.305 144.484  0.00  0.00    +0.000 C 
ATOM     28  C   UNL     1     106.053 125.044 145.124  0.00  0.00    +0.000 C 
ATOM     29  C   UNL     1     106.345 126.665 145.038  0.00  0.00    +0.000 C 
ATOM     30  C   UNL     1     106.547 125.404 145.678  0.00  0.00    +0.000 C 
BRANCH  29  32
ATOM     31  O   UNL     1     107.251 127.766 145.137  0.00  0.00    +0.000 OA
ATOM     32  C   UNL     1     106.492 127.477 144.995  0.00  0.00    +0.000 C 
ENDBRANCH  29  32
ENDBRANCH  21  30
ENDBRANCH   3  21
TORSDOF 4
ENDMDL
MODEL 6
REMARK VINA RESULT:      -9.0      2.172      3.742
REMARK  Name = 44257088
REMARK  4 active torsions:
REMARK  status: ('A' for Active; 'I' for Inactive)
REMARK    1  A    between atoms: O_2  and  C_16
REMARK    2  A    between atoms: O_2  and  C_23
REMARK    3  A    between atoms: C_15  and  C_18
REMARK    4  A    between atoms: C_17  and  C_21
REMARK                            x       y       z     vdW  Elec       q    Type
REMARK                         _______ _______ _______ _____ _____    ______ ____
ROOT
ATOM      1  O   UNL     1     112.678 124.777 136.400  0.00  0.00    +0.000 OA
ATOM      2  C   UNL     1     113.114 127.195 136.702  0.00  0.00    +0.000 A 
ATOM      3  C   UNL     1     112.201 126.123 136.454  0.00  0.00    +0.000 A 
ATOM      4  C   UNL     1     112.347 126.929 136.555  0.00  0.00    +0.000 A 
ATOM      5  C   UNL     1     113.735 126.655 136.748  0.00  0.00    +0.000 A 
ATOM      6  C   UNL     1     112.824 125.583 136.500  0.00  0.00    +0.000 A 
ATOM      7  C   UNL     1     113.591 125.849 136.647  0.00  0.00    +0.000 A 
ENDROOT
BRANCH   2  12
ATOM      8  O   UNL     1     113.147 128.351 137.542  0.00  0.00    +0.000 OA
ATOM      9  O   UNL     1     113.625 128.108 135.426  0.00  0.00    +0.000 OA
ATOM     10  O   UNL     1     113.955 130.902 136.455  0.00  0.00    +0.000 OA
ATOM     11  O   UNL     1     113.207 130.695 139.270  0.00  0.00    +0.000 OA
ATOM     12  C   UNL     1     113.258 128.001 136.802  0.00  0.00    +0.000 C 
ATOM     13  C   UNL     1     113.514 128.457 136.165  0.00  0.00    +0.000 C 
ATOM     14  C   UNL     1     113.658 129.264 136.266  0.00  0.00    +0.000 C 
ATOM     15  C   UNL     1     113.547 129.613 137.006  0.00  0.00    +0.000 A 
ATOM     16  C   UNL     1     113.291 129.156 137.643  0.00  0.00    +0.000 A 
ATOM     17  C   UNL     1     113.700 130.453 137.098  0.00  0.00    +0.000 A 
ATOM     18  C   UNL     1     113.171 129.508 138.417  0.00  0.00    +0.000 A 
ATOM     19  C   UNL     1     113.586 130.823 137.865  0.00  0.00    +0.000 A 
ATOM     20  C   UNL     1     113.320 130.348 138.530  0.00  0.00    +0.000 A 
ENDBRANCH   2  12
BRANCH   3  21
ATOM     21  O   UNL     1     111.435 125.858 136.307  0.00  0.00    +0.000 OA
BRANCH  21  30
ATOM     22  O   UNL     1     110.918 125.890 137.639  0.00  0.00    +0.000 OA
ATOM     23  O   UNL     1     108.819 126.896 136.800  0.00  0.00    +0.000 OA
ATOM     24  O   UNL     1     109.002 126.594 138.411  0.00  0.00    +0.000 OA
ATOM     25  O   UNL     1     110.035 126.528 135.748  0.00  0.00    +0.000 OA
ATOM     26  C   UNL     1     109.518 126.561 137.080  0.00  0.00    +0.000 C 
ATOM     27  C   UNL     1     109.610 126.410 137.885  0.00  0.00    +0.000 C 
ATOM     28  C   UNL     1     110.127 126.377 136.553  0.00  0.00    +0.000 C 
ATOM     29  C   UNL     1     110.310 126.075 138.165  0.00  0.00    +0.000 C 
ATOM     30  C   UNL     1     110.827 126.042 136.833  0.00  0.00    +0.000 C 
BRANCH  29  32
ATOM     31  O   UNL     1     110.771 125.229 139.220  0.00  0.00    +0.000 OA
ATOM     32  C   UNL     1     110.401 125.923 138.971  0.00  0.00    +0.000 C 
ENDBRANCH  29  32
ENDBRANCH  21  30
ENDBRANCH   3  21
TORSDOF 4
ENDMDL
MODEL 7
REMARK VINA RESULT:      -9.0      2.748      5.254
REMARK  Name = 44257088
REMARK  4 active torsions:
REMARK  status: ('A' for Active; 'I' for Inactive)
REMARK    1  A    between atoms: O_2  and  C_16
REMARK    2  A    between atoms: O_2  and  C_23
REMARK    3  A    between atoms: C_15  and  C_18
REMARK    4  A    between atoms: C_17  and  C_21
REMARK                            x       y       z     vdW  Elec       q    Type
REMARK                         _______ _______ _______ _____ _____    ______ ____
ROOT
ATOM      1  O   UNL     1     114.480 130.808 135.631  0.00  0.00    +0.000 OA
ATOM      2  C   UNL     1     113.677 128.506 136.057  0.00  0.00    +0.000 A 
ATOM      3  C   UNL     1     114.018 129.807 136.540  0.00  0.00    +0.000 A 
ATOM      4  C   UNL     1     113.750 129.040 136.682  0.00  0.00    +0.000 A 
ATOM      5  C   UNL     1     113.871 128.739 135.291  0.00  0.00    +0.000 A 
ATOM      6  C   UNL     1     114.212 130.041 135.773  0.00  0.00    +0.000 A 
ATOM      7  C   UNL     1     114.139 129.507 135.148  0.00  0.00    +0.000 A 
ENDROOT
BRANCH   2  12
ATOM      8  O   UNL     1     113.928 127.170 136.500  0.00  0.00    +0.000 OA
ATOM      9  O   UNL     1     112.107 128.107 135.745  0.00  0.00    +0.000 OA
ATOM     10  O   UNL     1     111.799 125.217 136.472  0.00  0.00    +0.000 OA
ATOM     11  O   UNL     1     114.458 124.453 137.406  0.00  0.00    +0.000 OA
ATOM     12  C   UNL     1     113.409 127.739 136.200  0.00  0.00    +0.000 C 
ATOM     13  C   UNL     1     112.625 127.539 136.044  0.00  0.00    +0.000 C 
ATOM     14  C   UNL     1     112.357 126.772 136.187  0.00  0.00    +0.000 C 
ATOM     15  C   UNL     1     112.876 126.203 136.487  0.00  0.00    +0.000 A 
ATOM     16  C   UNL     1     113.661 126.403 136.643  0.00  0.00    +0.000 A 
ATOM     17  C   UNL     1     112.586 125.408 136.632  0.00  0.00    +0.000 A 
ATOM     18  C   UNL     1     114.210 125.821 136.955  0.00  0.00    +0.000 A 
ATOM     19  C   UNL     1     113.120 124.812 136.943  0.00  0.00    +0.000 A 
ATOM     20  C   UNL     1     113.938 125.019 137.106  0.00  0.00    +0.000 A 
ENDBRANCH   2  12
BRANCH   3  21
ATOM     21  O   UNL     1     114.091 130.340 137.164  0.00  0.00    +0.000 OA
BRANCH  21  30
ATOM     22  O   UNL     1     112.728 130.746 137.297  0.00  0.00    +0.000 OA
ATOM     23  O   UNL     1     112.908 130.547 139.758  0.00  0.00    +0.000 OA
ATOM     24  O   UNL     1     111.484 131.020 139.070  0.00  0.00    +0.000 OA
ATOM     25  O   UNL     1     114.211 130.207 138.805  0.00  0.00    +0.000 OA
ATOM     26  C   UNL     1     112.848 130.613 138.938  0.00  0.00    +0.000 C 
ATOM     27  C   UNL     1     112.137 130.850 138.594  0.00  0.00    +0.000 C 
ATOM     28  C   UNL     1     113.500 130.443 138.462  0.00  0.00    +0.000 C 
ATOM     29  C   UNL     1     112.076 130.916 137.774  0.00  0.00    +0.000 C 
ATOM     30  C   UNL     1     113.440 130.510 137.641  0.00  0.00    +0.000 C 
BRANCH  29  32
ATOM     31  O   UNL     1     111.360 131.749 136.860  0.00  0.00    +0.000 OA
ATOM     32  C   UNL     1     111.364 131.152 137.430  0.00  0.00    +0.000 C 
ENDBRANCH  29  32
ENDBRANCH  21  30
ENDBRANCH   3  21
TORSDOF 4
ENDMDL
MODEL 8
REMARK VINA RESULT:      -8.9      2.062      3.170
REMARK  Name = 44257088
REMARK  4 active torsions:
REMARK  status: ('A' for Active; 'I' for Inactive)
REMARK    1  A    between atoms: O_2  and  C_16
REMARK    2  A    between atoms: O_2  and  C_23
REMARK    3  A    between atoms: C_15  and  C_18
REMARK    4  A    between atoms: C_17  and  C_21
REMARK                            x       y       z     vdW  Elec       q    Type
REMARK                         _______ _______ _______ _____ _____    ______ ____
ROOT
ATOM      1  O   UNL     1     109.660 126.077 134.730  0.00  0.00    +0.000 OA
ATOM      2  C   UNL     1     111.264 127.849 135.373  0.00  0.00    +0.000 A 
ATOM      3  C   UNL     1     110.792 126.505 135.490  0.00  0.00    +0.000 A 
ATOM      4  C   UNL     1     111.326 127.096 135.704  0.00  0.00    +0.000 A 
ATOM      5  C   UNL     1     110.667 128.011 134.828  0.00  0.00    +0.000 A 
ATOM      6  C   UNL     1     110.194 126.668 134.944  0.00  0.00    +0.000 A 
ATOM      7  C   UNL     1     110.132 127.421 134.613  0.00  0.00    +0.000 A 
ENDROOT
BRANCH   2  12
ATOM      8  O   UNL     1     112.569 128.426 135.290  0.00  0.00    +0.000 OA
ATOM      9  O   UNL     1     110.796 129.055 136.398  0.00  0.00    +0.000 OA
ATOM     10  O   UNL     1     113.176 130.837 136.761  0.00  0.00    +0.000 OA
ATOM     11  O   UNL     1     115.234 129.587 135.108  0.00  0.00    +0.000 OA
ATOM     12  C   UNL     1     111.799 128.439 135.588  0.00  0.00    +0.000 C 
ATOM     13  C   UNL     1     111.565 129.041 136.100  0.00  0.00    +0.000 C 
ATOM     14  C   UNL     1     112.100 129.632 136.315  0.00  0.00    +0.000 C 
ATOM     15  C   UNL     1     112.871 129.619 136.017  0.00  0.00    +0.000 A 
ATOM     16  C   UNL     1     113.104 129.015 135.504  0.00  0.00    +0.000 A 
ATOM     17  C   UNL     1     113.419 130.238 136.248  0.00  0.00    +0.000 A 
ATOM     18  C   UNL     1     113.902 128.991 135.188  0.00  0.00    +0.000 A 
ATOM     19  C   UNL     1     114.221 130.230 135.941  0.00  0.00    +0.000 A 
ATOM     20  C   UNL     1     114.465 129.602 135.407  0.00  0.00    +0.000 A 
ENDBRANCH   2  12
BRANCH   3  21
ATOM     21  O   UNL     1     110.854 125.753 135.821  0.00  0.00    +0.000 OA
BRANCH  21  30
ATOM     22  O   UNL     1     110.282 126.022 137.102  0.00  0.00    +0.000 OA
ATOM     23  O   UNL     1     112.053 124.669 138.178  0.00  0.00    +0.000 OA
ATOM     24  O   UNL     1     110.891 125.390 139.101  0.00  0.00    +0.000 OA
ATOM     25  O   UNL     1     112.035 124.851 136.538  0.00  0.00    +0.000 OA
ATOM     26  C   UNL     1     111.463 125.120 137.819  0.00  0.00    +0.000 C 
ATOM     27  C   UNL     1     110.882 125.480 138.281  0.00  0.00    +0.000 C 
ATOM     28  C   UNL     1     111.454 125.211 136.999  0.00  0.00    +0.000 C 
ATOM     29  C   UNL     1     110.292 125.931 137.922  0.00  0.00    +0.000 C 
ATOM     30  C   UNL     1     110.864 125.662 136.641  0.00  0.00    +0.000 C 
BRANCH  29  32
ATOM     31  O   UNL     1     108.942 126.368 138.093  0.00  0.00    +0.000 OA
ATOM     32  C   UNL     1     109.710 126.292 138.384  0.00  0.00    +0.000 C 
ENDBRANCH  29  32
ENDBRANCH  21  30
ENDBRANCH   3  21
TORSDOF 4
ENDMDL
MODEL 9
REMARK VINA RESULT:      -8.9      2.542      4.620
REMARK  Name = 44257088
REMARK  4 active torsions:
REMARK  status: ('A' for Active; 'I' for Inactive)
REMARK    1  A    between atoms: O_2  and  C_16
REMARK    2  A    between atoms: O_2  and  C_23
REMARK    3  A    between atoms: C_15  and  C_18
REMARK    4  A    between atoms: C_17  and  C_21
REMARK                            x       y       z     vdW  Elec       q    Type
REMARK                         _______ _______ _______ _____ _____    ______ ____
ROOT
ATOM      1  O   UNL     1     114.337 130.423 135.745  0.00  0.00    +0.000 OA
ATOM      2  C   UNL     1     113.034 128.328 135.934  0.00  0.00    +0.000 A 
ATOM      3  C   UNL     1     113.159 129.732 136.165  0.00  0.00    +0.000 A 
ATOM      4  C   UNL     1     112.725 129.034 136.228  0.00  0.00    +0.000 A 
ATOM      5  C   UNL     1     113.777 128.320 135.577  0.00  0.00    +0.000 A 
ATOM      6  C   UNL     1     113.903 129.724 135.808  0.00  0.00    +0.000 A 
ATOM      7  C   UNL     1     114.212 129.018 135.514  0.00  0.00    +0.000 A 
ENDROOT
BRANCH   2  12
ATOM      8  O   UNL     1     111.949 127.502 135.503  0.00  0.00    +0.000 OA
ATOM      9  O   UNL     1     113.461 127.185 137.045  0.00  0.00    +0.000 OA
ATOM     10  O   UNL     1     111.503 124.937 136.755  0.00  0.00    +0.000 OA
ATOM     11  O   UNL     1     109.733 125.835 134.613  0.00  0.00    +0.000 OA
ATOM     12  C   UNL     1     112.599 127.629 135.997  0.00  0.00    +0.000 C 
ATOM     13  C   UNL     1     112.812 127.059 136.552  0.00  0.00    +0.000 C 
ATOM     14  C   UNL     1     112.377 126.360 136.615  0.00  0.00    +0.000 C 
ATOM     15  C   UNL     1     111.727 126.233 136.121  0.00  0.00    +0.000 A 
ATOM     16  C   UNL     1     111.514 126.805 135.566  0.00  0.00    +0.000 A 
ATOM     17  C   UNL     1     111.281 125.503 136.196  0.00  0.00    +0.000 A 
ATOM     18  C   UNL     1     110.840 126.685 135.047  0.00  0.00    +0.000 A 
ATOM     19  C   UNL     1     110.604 125.365 135.686  0.00  0.00    +0.000 A 
ATOM     20  C   UNL     1     110.382 125.960 135.107  0.00  0.00    +0.000 A 
ENDBRANCH   2  12
BRANCH   3  21
ATOM     21  O   UNL     1     112.850 130.437 136.459  0.00  0.00    +0.000 OA
BRANCH  21  30
ATOM     22  O   UNL     1     113.163 130.280 137.844  0.00  0.00    +0.000 OA
ATOM     23  O   UNL     1     110.901 131.084 138.447  0.00  0.00    +0.000 OA
ATOM     24  O   UNL     1     111.969 130.659 139.632  0.00  0.00    +0.000 OA
ATOM     25  O   UNL     1     111.342 130.973 136.861  0.00  0.00    +0.000 OA
ATOM     26  C   UNL     1     111.655 130.816 138.246  0.00  0.00    +0.000 C 
ATOM     27  C   UNL     1     112.188 130.604 138.838  0.00  0.00    +0.000 C 
ATOM     28  C   UNL     1     111.875 130.761 137.453  0.00  0.00    +0.000 C 
ATOM     29  C   UNL     1     112.943 130.336 138.637  0.00  0.00    +0.000 C 
ATOM     30  C   UNL     1     112.629 130.493 137.252  0.00  0.00    +0.000 C 
BRANCH  29  32
ATOM     31  O   UNL     1     114.246 130.420 139.216  0.00  0.00    +0.000 OA
ATOM     32  C   UNL     1     113.477 130.124 139.230  0.00  0.00    +0.000 C 
ENDBRANCH  29  32
ENDBRANCH  21  30
ENDBRANCH   3  21
TORSDOF 4
ENDMDL
MODEL 10
REMARK VINA RESULT:      -8.8      2.030      4.008
REMARK  Name = 44257088
REMARK  4 active torsions:
REMARK  status: ('A' for Active; 'I' for Inactive)
REMARK    1  A    between atoms: O_2  and  C_16
REMARK    2  A    between atoms: O_2  and  C_23
REMARK    3  A    between atoms: C_15  and  C_18
REMARK    4  A    between atoms: C_17  and  C_21
REMARK                            x       y       z     vdW  Elec       q    Type
REMARK                         _______ _______ _______ _____ _____    ______ ____
ROOT
ATOM      1  O   UNL     1     111.540 125.728 139.343  0.00  0.00    +0.000 OA
ATOM      2  C   UNL     1     112.554 127.603 138.087  0.00  0.00    +0.000 A 
ATOM      3  C   UNL     1     111.447 126.735 138.333  0.00  0.00    +0.000 A 
ATOM      4  C   UNL     1     111.785 127.360 137.915  0.00  0.00    +0.000 A 
ATOM      5  C   UNL     1     112.985 127.222 138.677  0.00  0.00    +0.000 A 
ATOM      6  C   UNL     1     111.878 126.353 138.925  0.00  0.00    +0.000 A 
ATOM      7  C   UNL     1     112.648 126.596 139.097  0.00  0.00    +0.000 A 
ENDROOT
BRANCH   2  12
ATOM      8  O   UNL     1     113.266 128.087 136.945  0.00  0.00    +0.000 OA
ATOM      9  O   UNL     1     112.482 129.137 138.691  0.00  0.00    +0.000 OA
ATOM     10  O   UNL     1     113.874 130.901 136.709  0.00  0.00    +0.000 OA
ATOM     11  O   UNL     1     114.718 129.052 134.612  0.00  0.00    +0.000 OA
ATOM     12  C   UNL     1     112.892 128.229 137.668  0.00  0.00    +0.000 C 
ATOM     13  C   UNL     1     112.856 128.995 137.969  0.00  0.00    +0.000 C 
ATOM     14  C   UNL     1     113.193 129.621 137.550  0.00  0.00    +0.000 C 
ATOM     15  C   UNL     1     113.568 129.478 136.827  0.00  0.00    +0.000 A 
ATOM     16  C   UNL     1     113.604 128.711 136.526  0.00  0.00    +0.000 A 
ATOM     17  C   UNL     1     113.915 130.137 136.400  0.00  0.00    +0.000 A 
ATOM     18  C   UNL     1     113.990 128.551 135.776  0.00  0.00    +0.000 A 
ATOM     19  C   UNL     1     114.306 129.996 135.648  0.00  0.00    +0.000 A 
ATOM     20  C   UNL     1     114.344 129.197 135.333  0.00  0.00    +0.000 A 
ENDBRANCH   2  12
BRANCH   3  21
ATOM     21  O   UNL     1     110.679 126.491 138.161  0.00  0.00    +0.000 OA
BRANCH  21  30
ATOM     22  O   UNL     1     110.917 125.745 136.966  0.00  0.00    +0.000 OA
ATOM     23  O   UNL     1     108.955 126.817 135.905  0.00  0.00    +0.000 OA
ATOM     24  O   UNL     1     109.847 125.713 135.064  0.00  0.00    +0.000 OA
ATOM     25  O   UNL     1     109.371 127.206 137.454  0.00  0.00    +0.000 OA
ATOM     26  C   UNL     1     109.609 126.460 136.259  0.00  0.00    +0.000 C 
ATOM     27  C   UNL     1     110.055 125.908 135.838  0.00  0.00    +0.000 C 
ATOM     28  C   UNL     1     109.816 126.655 137.033  0.00  0.00    +0.000 C 
ATOM     29  C   UNL     1     110.709 125.551 136.192  0.00  0.00    +0.000 C 
ATOM     30  C   UNL     1     110.470 126.297 137.387  0.00  0.00    +0.000 C 
BRANCH  29  32
ATOM     31  O   UNL     1     111.400 124.301 136.138  0.00  0.00    +0.000 OA
ATOM     32  C   UNL     1     111.155 124.998 135.771  0.00  0.00    +0.000 C 
ENDBRANCH  29  32
ENDBRANCH  21  30
ENDBRANCH   3  21
TORSDOF 4
ENDMDL
