MODEL 1
REMARK VINA RESULT:     -10.2      0.000      0.000
REMARK  Name = 131751647
REMARK  12 active torsions:
REMARK  status: ('A' for Active; 'I' for Inactive)
REMARK    1  A    between atoms: O_3  and  C_29
REMARK    2  A    between atoms: O_3  and  C_31
REMARK    3  A    between atoms: O_12  and  C_34
REMARK    4  A    between atoms: O_12  and  C_41
REMARK    5  A    between atoms: O_17  and  C_53
REMARK    6  A    between atoms: O_18  and  C_54
REMARK    7  A    between atoms: C_20  and  C_25
REMARK    8  A    between atoms: C_24  and  C_32
REMARK    9  A    between atoms: C_30  and  C_34
REMARK   10  A    between atoms: C_40  and  C_42
REMARK   11  A    between atoms: C_41  and  C_43
REMARK   12  A    between atoms: C_48  and  C_50
REMARK                            x       y       z     vdW  Elec       q    Type
REMARK                         _______ _______ _______ _____ _____    ______ ____
ROOT
ATOM      1  O   UNL     1     113.934 128.379 141.086  0.00  0.00    +0.000 OA
ATOM      2  O   UNL     1     113.316 127.417 138.426  0.00  0.00    +0.000 OA
ATOM      3  O   UNL     1     113.940 126.958 140.838  0.00  0.00    +0.000 OA
ATOM      4  C   UNL     1     113.630 129.310 140.044  0.00  0.00    +0.000 A 
ATOM      5  C   UNL     1     113.427 129.462 139.260  0.00  0.00    +0.000 A 
ATOM      6  C   UNL     1     113.731 128.532 140.300  0.00  0.00    +0.000 A 
ATOM      7  C   UNL     1     113.325 128.837 138.730  0.00  0.00    +0.000 A 
ATOM      8  C   UNL     1     113.629 127.907 139.772  0.00  0.00    +0.000 A 
ATOM      9  C   UNL     1     113.426 128.060 138.987  0.00  0.00    +0.000 A 
ATOM     10  C   UNL     1     113.737 127.101 140.051  0.00  0.00    +0.000 A 
ATOM     11  C   UNL     1     113.631 126.446 139.505  0.00  0.00    +0.000 A 
ATOM     12  C   UNL     1     113.420 126.606 138.688  0.00  0.00    +0.000 A 
ENDROOT
BRANCH   4  17
ATOM     13  O   UNL     1     113.098 130.200 141.027  0.00  0.00    +0.000 OA
ATOM     14  O   UNL     1     115.108 130.029 140.193  0.00  0.00    +0.000 OA
ATOM     15  O   UNL     1     115.314 131.278 141.251  0.00  0.00    +0.000 OA
ATOM     16  O   UNL     1     114.043 131.809 142.160  0.00  0.00    +0.000 OA
ATOM     17  C   UNL     1     113.733 129.935 140.573  0.00  0.00    +0.000 C 
ATOM     18  C   UNL     1     114.472 130.294 140.648  0.00  0.00    +0.000 C 
ATOM     19  C   UNL     1     114.575 130.919 141.176  0.00  0.00    +0.000 C 
ATOM     20  C   UNL     1     113.940 131.183 141.630  0.00  0.00    +0.000 C 
ATOM     21  C   UNL     1     113.201 130.824 141.556  0.00  0.00    +0.000 C 
BRANCH  21  23
ATOM     22  O   UNL     1     111.835 131.236 141.656  0.00  0.00    +0.000 OA
ATOM     23  C   UNL     1     112.566 131.089 142.011  0.00  0.00    +0.000 C 
ENDBRANCH  21  23
ENDBRANCH   4  17
BRANCH  12  25
ATOM     24  O   UNL     1     113.009 124.113 136.565  0.00  0.00    +0.000 OA
ATOM     25  C   UNL     1     113.317 125.982 138.157  0.00  0.00    +0.000 A 
ATOM     26  C   UNL     1     113.971 125.647 137.783  0.00  0.00    +0.000 A 
ATOM     27  C   UNL     1     112.560 125.695 138.000  0.00  0.00    +0.000 A 
ATOM     28  C   UNL     1     113.868 125.023 137.252  0.00  0.00    +0.000 A 
ATOM     29  C   UNL     1     112.457 125.071 137.469  0.00  0.00    +0.000 A 
ATOM     30  C   UNL     1     113.111 124.736 137.095  0.00  0.00    +0.000 A 
ENDBRANCH  12  25
BRANCH   5  31
ATOM     31  O   UNL     1     113.327 130.240 139.003  0.00  0.00    +0.000 OA
BRANCH  31  39
ATOM     32  O   UNL     1     111.992 130.157 138.500  0.00  0.00    +0.000 OA
ATOM     33  O   UNL     1     112.669 131.441 136.495  0.00  0.00    +0.000 OA
ATOM     34  O   UNL     1     113.778 131.096 137.667  0.00  0.00    +0.000 OA
ATOM     35  O   UNL     1     111.109 130.931 136.660  0.00  0.00    +0.000 OA
ATOM     36  C   UNL     1     112.443 131.013 137.163  0.00  0.00    +0.000 C 
ATOM     37  C   UNL     1     112.997 130.841 137.749  0.00  0.00    +0.000 C 
ATOM     38  C   UNL     1     111.663 130.758 137.245  0.00  0.00    +0.000 C 
ATOM     39  C   UNL     1     112.772 130.413 138.417  0.00  0.00    +0.000 C 
ATOM     40  C   UNL     1     111.437 130.330 137.913  0.00  0.00    +0.000 C 
BRANCH  40  41
ATOM     41  C   UNL     1     110.657 130.074 137.996  0.00  0.00    +0.000 C 
BRANCH  41  42
ATOM     42  O   UNL     1     110.312 130.041 138.745  0.00  0.00    +0.000 OA
BRANCH  42  44
ATOM     43  O   UNL     1     108.963 129.571 138.687  0.00  0.00    +0.000 OA
ATOM     44  C   UNL     1     109.749 129.462 138.914  0.00  0.00    +0.000 C 
BRANCH  44  45
ATOM     45  C   UNL     1     109.972 128.773 139.309  0.00  0.00    +0.000 C 
ATOM     46  C   UNL     1     109.668 128.611 140.059  0.00  0.00    +0.000 C 
BRANCH  46  48
ATOM     47  O   UNL     1     110.561 125.856 141.640  0.00  0.00    +0.000 OA
ATOM     48  C   UNL     1     109.892 127.922 140.455  0.00  0.00    +0.000 A 
ATOM     49  C   UNL     1     109.751 127.186 140.111  0.00  0.00    +0.000 A 
ATOM     50  C   UNL     1     110.255 127.970 141.194  0.00  0.00    +0.000 A 
ATOM     51  C   UNL     1     110.478 127.282 141.589  0.00  0.00    +0.000 A 
ATOM     52  C   UNL     1     109.975 126.498 140.506  0.00  0.00    +0.000 A 
ATOM     53  C   UNL     1     110.338 126.546 141.246  0.00  0.00    +0.000 A 
BRANCH  51  54
ATOM     54  O   UNL     1     110.842 127.330 142.328  0.00  0.00    +0.000 OA
ATOM     55  C   UNL     1     110.910 128.059 142.708  0.00  0.00    +0.000 C 
ENDBRANCH  51  54
BRANCH  52  56
ATOM     56  O   UNL     1     109.834 125.760 140.162  0.00  0.00    +0.000 OA
ATOM     57  C   UNL     1     109.095 125.590 139.840  0.00  0.00    +0.000 C 
ENDBRANCH  52  56
ENDBRANCH  46  48
ENDBRANCH  44  45
ENDBRANCH  42  44
ENDBRANCH  41  42
ENDBRANCH  40  41
ENDBRANCH  31  39
ENDBRANCH   5  31
TORSDOF 12
ENDMDL
MODEL 2
REMARK VINA RESULT:     -10.1      1.343      4.275
REMARK  Name = 131751647
REMARK  12 active torsions:
REMARK  status: ('A' for Active; 'I' for Inactive)
REMARK    1  A    between atoms: O_3  and  C_29
REMARK    2  A    between atoms: O_3  and  C_31
REMARK    3  A    between atoms: O_12  and  C_34
REMARK    4  A    between atoms: O_12  and  C_41
REMARK    5  A    between atoms: O_17  and  C_53
REMARK    6  A    between atoms: O_18  and  C_54
REMARK    7  A    between atoms: C_20  and  C_25
REMARK    8  A    between atoms: C_24  and  C_32
REMARK    9  A    between atoms: C_30  and  C_34
REMARK   10  A    between atoms: C_40  and  C_42
REMARK   11  A    between atoms: C_41  and  C_43
REMARK   12  A    between atoms: C_48  and  C_50
REMARK                            x       y       z     vdW  Elec       q    Type
REMARK                         _______ _______ _______ _____ _____    ______ ____
ROOT
ATOM      1  O   UNL     1     113.239 126.049 139.489  0.00  0.00    +0.000 OA
ATOM      2  O   UNL     1     113.641 128.915 139.395  0.00  0.00    +0.000 OA
ATOM      3  O   UNL     1     113.598 126.745 140.701  0.00  0.00    +0.000 OA
ATOM      4  C   UNL     1     113.082 126.751 138.253  0.00  0.00    +0.000 A 
ATOM      5  C   UNL     1     113.095 127.456 137.826  0.00  0.00    +0.000 A 
ATOM      6  C   UNL     1     113.253 126.755 139.060  0.00  0.00    +0.000 A 
ATOM      7  C   UNL     1     113.280 128.165 138.204  0.00  0.00    +0.000 A 
ATOM      8  C   UNL     1     113.437 127.464 139.440  0.00  0.00    +0.000 A 
ATOM      9  C   UNL     1     113.451 128.169 139.012  0.00  0.00    +0.000 A 
ATOM     10  C   UNL     1     113.613 127.455 140.281  0.00  0.00    +0.000 A 
ATOM     11  C   UNL     1     113.806 128.190 140.681  0.00  0.00    +0.000 A 
ATOM     12  C   UNL     1     113.820 128.925 140.235  0.00  0.00    +0.000 A 
ENDROOT
BRANCH   4  17
ATOM     13  O   UNL     1     112.112 125.801 137.807  0.00  0.00    +0.000 OA
ATOM     14  O   UNL     1     114.287 125.812 137.631  0.00  0.00    +0.000 OA
ATOM     15  O   UNL     1     113.920 124.393 136.874  0.00  0.00    +0.000 OA
ATOM     16  O   UNL     1     112.347 123.912 136.739  0.00  0.00    +0.000 OA
ATOM     17  C   UNL     1     112.898 126.041 137.875  0.00  0.00    +0.000 C 
ATOM     18  C   UNL     1     113.500 125.572 137.563  0.00  0.00    +0.000 C 
ATOM     19  C   UNL     1     113.317 124.862 137.185  0.00  0.00    +0.000 C 
ATOM     20  C   UNL     1     112.531 124.623 137.118  0.00  0.00    +0.000 C 
ATOM     21  C   UNL     1     111.928 125.092 137.429  0.00  0.00    +0.000 C 
BRANCH  21  23
ATOM     22  O   UNL     1     110.532 125.361 137.583  0.00  0.00    +0.000 OA
ATOM     23  C   UNL     1     111.142 124.851 137.361  0.00  0.00    +0.000 C 
ENDBRANCH  21  23
ENDBRANCH   4  17
BRANCH  12  25
ATOM     24  O   UNL     1     114.555 131.767 141.742  0.00  0.00    +0.000 OA
ATOM     25  C   UNL     1     114.004 129.635 140.612  0.00  0.00    +0.000 A 
ATOM     26  C   UNL     1     113.455 129.989 141.116  0.00  0.00    +0.000 A 
ATOM     27  C   UNL     1     114.737 129.993 140.483  0.00  0.00    +0.000 A 
ATOM     28  C   UNL     1     113.639 130.700 141.493  0.00  0.00    +0.000 A 
ATOM     29  C   UNL     1     114.921 130.703 140.860  0.00  0.00    +0.000 A 
ATOM     30  C   UNL     1     114.372 131.057 141.365  0.00  0.00    +0.000 A 
ENDBRANCH  12  25
BRANCH   5  31
ATOM     31  O   UNL     1     112.924 127.452 137.019  0.00  0.00    +0.000 OA
BRANCH  31  39
ATOM     32  O   UNL     1     111.823 128.362 137.017  0.00  0.00    +0.000 OA
ATOM     33  O   UNL     1     112.723 129.447 134.982  0.00  0.00    +0.000 OA
ATOM     34  O   UNL     1     113.524 128.175 135.662  0.00  0.00    +0.000 OA
ATOM     35  O   UNL     1     111.322 129.996 135.659  0.00  0.00    +0.000 OA
ATOM     36  C   UNL     1     112.423 129.085 135.661  0.00  0.00    +0.000 C 
ATOM     37  C   UNL     1     112.823 128.450 136.000  0.00  0.00    +0.000 C 
ATOM     38  C   UNL     1     111.722 129.360 135.998  0.00  0.00    +0.000 C 
ATOM     39  C   UNL     1     112.523 128.088 136.678  0.00  0.00    +0.000 C 
ATOM     40  C   UNL     1     111.422 128.999 136.677  0.00  0.00    +0.000 C 
BRANCH  40  41
ATOM     41  C   UNL     1     110.722 129.273 137.015  0.00  0.00    +0.000 C 
BRANCH  41  42
ATOM     42  O   UNL     1     110.253 128.762 137.464  0.00  0.00    +0.000 OA
BRANCH  42  44
ATOM     43  O   UNL     1     109.111 129.487 137.926  0.00  0.00    +0.000 OA
ATOM     44  C   UNL     1     109.799 129.058 138.085  0.00  0.00    +0.000 C 
BRANCH  44  45
ATOM     45  C   UNL     1     110.032 128.926 138.866  0.00  0.00    +0.000 C 
ATOM     46  C   UNL     1     109.531 128.523 139.382  0.00  0.00    +0.000 C 
BRANCH  46  48
ATOM     47  O   UNL     1     110.463 127.995 142.504  0.00  0.00    +0.000 OA
ATOM     48  C   UNL     1     109.764 128.391 140.163  0.00  0.00    +0.000 A 
ATOM     49  C   UNL     1     109.927 127.624 140.421  0.00  0.00    +0.000 A 
ATOM     50  C   UNL     1     109.834 129.026 140.686  0.00  0.00    +0.000 A 
ATOM     51  C   UNL     1     110.067 128.894 141.466  0.00  0.00    +0.000 A 
ATOM     52  C   UNL     1     110.160 127.493 141.201  0.00  0.00    +0.000 A 
ATOM     53  C   UNL     1     110.230 128.128 141.723  0.00  0.00    +0.000 A 
BRANCH  51  54
ATOM     54  O   UNL     1     110.137 129.528 141.988  0.00  0.00    +0.000 OA
ATOM     55  C   UNL     1     109.566 130.123 141.995  0.00  0.00    +0.000 C 
ENDBRANCH  51  54
BRANCH  52  56
ATOM     56  O   UNL     1     110.323 126.726 141.459  0.00  0.00    +0.000 OA
ATOM     57  C   UNL     1     110.050 126.078 141.026  0.00  0.00    +0.000 C 
ENDBRANCH  52  56
ENDBRANCH  46  48
ENDBRANCH  44  45
ENDBRANCH  42  44
ENDBRANCH  41  42
ENDBRANCH  40  41
ENDBRANCH  31  39
ENDBRANCH   5  31
TORSDOF 12
ENDMDL
MODEL 3
REMARK VINA RESULT:      -9.7      1.670      3.925
REMARK  Name = 131751647
REMARK  12 active torsions:
REMARK  status: ('A' for Active; 'I' for Inactive)
REMARK    1  A    between atoms: O_3  and  C_29
REMARK    2  A    between atoms: O_3  and  C_31
REMARK    3  A    between atoms: O_12  and  C_34
REMARK    4  A    between atoms: O_12  and  C_41
REMARK    5  A    between atoms: O_17  and  C_53
REMARK    6  A    between atoms: O_18  and  C_54
REMARK    7  A    between atoms: C_20  and  C_25
REMARK    8  A    between atoms: C_24  and  C_32
REMARK    9  A    between atoms: C_30  and  C_34
REMARK   10  A    between atoms: C_40  and  C_42
REMARK   11  A    between atoms: C_41  and  C_43
REMARK   12  A    between atoms: C_48  and  C_50
REMARK                            x       y       z     vdW  Elec       q    Type
REMARK                         _______ _______ _______ _____ _____    ______ ____
ROOT
ATOM      1  O   UNL     1     110.683 126.369 139.537  0.00  0.00    +0.000 OA
ATOM      2  O   UNL     1     113.320 126.647 138.375  0.00  0.00    +0.000 OA
ATOM      3  O   UNL     1     111.133 125.387 138.581  0.00  0.00    +0.000 OA
ATOM      4  C   UNL     1     111.516 127.468 139.914  0.00  0.00    +0.000 A 
ATOM      5  C   UNL     1     112.227 127.880 139.849  0.00  0.00    +0.000 A 
ATOM      6  C   UNL     1     111.395 126.782 139.472  0.00  0.00    +0.000 A 
ATOM      7  C   UNL     1     112.818 127.607 139.341  0.00  0.00    +0.000 A 
ATOM      8  C   UNL     1     111.985 126.508 138.965  0.00  0.00    +0.000 A 
ATOM      9  C   UNL     1     112.697 126.921 138.899  0.00  0.00    +0.000 A 
ATOM     10  C   UNL     1     111.847 125.793 138.510  0.00  0.00    +0.000 A 
ATOM     11  C   UNL     1     112.458 125.503 137.980  0.00  0.00    +0.000 A 
ATOM     12  C   UNL     1     113.199 125.933 137.912  0.00  0.00    +0.000 A 
ENDROOT
BRANCH   4  17
ATOM     13  O   UNL     1     110.356 128.270 140.145  0.00  0.00    +0.000 OA
ATOM     14  O   UNL     1     111.475 126.955 141.482  0.00  0.00    +0.000 OA
ATOM     15  O   UNL     1     110.293 127.500 142.497  0.00  0.00    +0.000 OA
ATOM     16  O   UNL     1     109.154 128.558 141.944  0.00  0.00    +0.000 OA
ATOM     17  C   UNL     1     110.925 127.741 140.421  0.00  0.00    +0.000 C 
ATOM     18  C   UNL     1     110.904 127.485 141.205  0.00  0.00    +0.000 C 
ATOM     19  C   UNL     1     110.314 127.757 141.713  0.00  0.00    +0.000 C 
ATOM     20  C   UNL     1     109.745 128.286 141.436  0.00  0.00    +0.000 C 
ATOM     21  C   UNL     1     109.766 128.542 140.652  0.00  0.00    +0.000 C 
BRANCH  21  23
ATOM     22  O   UNL     1     109.123 129.217 139.568  0.00  0.00    +0.000 OA
ATOM     23  C   UNL     1     109.195 129.071 140.377  0.00  0.00    +0.000 C 
ENDBRANCH  21  23
ENDBRANCH   4  17
BRANCH  12  25
ATOM     24  O   UNL     1     115.567 124.849 135.885  0.00  0.00    +0.000 OA
ATOM     25  C   UNL     1     113.791 125.662 137.405  0.00  0.00    +0.000 A 
ATOM     26  C   UNL     1     113.888 126.007 136.662  0.00  0.00    +0.000 A 
ATOM     27  C   UNL     1     114.286 125.046 137.642  0.00  0.00    +0.000 A 
ATOM     28  C   UNL     1     114.481 125.736 136.156  0.00  0.00    +0.000 A 
ATOM     29  C   UNL     1     114.878 124.775 137.135  0.00  0.00    +0.000 A 
ATOM     30  C   UNL     1     114.976 125.120 136.392  0.00  0.00    +0.000 A 
ENDBRANCH  12  25
BRANCH   5  31
ATOM     31  O   UNL     1     112.348 128.566 140.290  0.00  0.00    +0.000 OA
BRANCH  31  39
ATOM     32  O   UNL     1     112.561 129.537 139.263  0.00  0.00    +0.000 OA
ATOM     33  O   UNL     1     114.571 130.355 140.452  0.00  0.00    +0.000 OA
ATOM     34  O   UNL     1     113.688 129.112 141.083  0.00  0.00    +0.000 OA
ATOM     35  O   UNL     1     114.114 131.052 139.029  0.00  0.00    +0.000 OA
ATOM     36  C   UNL     1     113.901 130.082 140.056  0.00  0.00    +0.000 C 
ATOM     37  C   UNL     1     113.460 129.461 140.371  0.00  0.00    +0.000 C 
ATOM     38  C   UNL     1     113.673 130.431 139.344  0.00  0.00    +0.000 C 
ATOM     39  C   UNL     1     112.790 129.188 139.975  0.00  0.00    +0.000 C 
ATOM     40  C   UNL     1     113.003 130.158 138.948  0.00  0.00    +0.000 C 
BRANCH  40  41
ATOM     41  C   UNL     1     112.774 130.507 138.236  0.00  0.00    +0.000 C 
BRANCH  41  42
ATOM     42  O   UNL     1     112.544 130.033 137.600  0.00  0.00    +0.000 OA
BRANCH  42  44
ATOM     43  O   UNL     1     112.288 130.958 136.542  0.00  0.00    +0.000 OA
ATOM     44  C   UNL     1     112.039 130.335 137.022  0.00  0.00    +0.000 C 
BRANCH  44  45
ATOM     45  C   UNL     1     111.285 130.015 136.924  0.00  0.00    +0.000 C 
ATOM     46  C   UNL     1     111.099 129.600 136.236  0.00  0.00    +0.000 C 
BRANCH  46  48
ATOM     47  O   UNL     1     108.084 128.318 135.845  0.00  0.00    +0.000 OA
ATOM     48  C   UNL     1     110.345 129.280 136.138  0.00  0.00    +0.000 A 
ATOM     49  C   UNL     1     110.226 128.469 136.236  0.00  0.00    +0.000 A 
ATOM     50  C   UNL     1     109.710 129.770 135.943  0.00  0.00    +0.000 A 
ATOM     51  C   UNL     1     108.957 129.449 135.846  0.00  0.00    +0.000 A 
ATOM     52  C   UNL     1     109.472 128.149 136.138  0.00  0.00    +0.000 A 
ATOM     53  C   UNL     1     108.838 128.639 135.943  0.00  0.00    +0.000 A 
BRANCH  51  54
ATOM     54  O   UNL     1     108.323 129.939 135.651  0.00  0.00    +0.000 OA
ATOM     55  C   UNL     1     108.284 130.705 135.955  0.00  0.00    +0.000 C 
ENDBRANCH  51  54
BRANCH  52  56
ATOM     56  O   UNL     1     109.353 127.338 136.235  0.00  0.00    +0.000 OA
ATOM     57  C   UNL     1     109.795 126.800 135.794  0.00  0.00    +0.000 C 
ENDBRANCH  52  56
ENDBRANCH  46  48
ENDBRANCH  44  45
ENDBRANCH  42  44
ENDBRANCH  41  42
ENDBRANCH  40  41
ENDBRANCH  31  39
ENDBRANCH   5  31
TORSDOF 12
ENDMDL
MODEL 4
REMARK VINA RESULT:      -9.7      1.794      5.089
REMARK  Name = 131751647
REMARK  12 active torsions:
REMARK  status: ('A' for Active; 'I' for Inactive)
REMARK    1  A    between atoms: O_3  and  C_29
REMARK    2  A    between atoms: O_3  and  C_31
REMARK    3  A    between atoms: O_12  and  C_34
REMARK    4  A    between atoms: O_12  and  C_41
REMARK    5  A    between atoms: O_17  and  C_53
REMARK    6  A    between atoms: O_18  and  C_54
REMARK    7  A    between atoms: C_20  and  C_25
REMARK    8  A    between atoms: C_24  and  C_32
REMARK    9  A    between atoms: C_30  and  C_34
REMARK   10  A    between atoms: C_40  and  C_42
REMARK   11  A    between atoms: C_41  and  C_43
REMARK   12  A    between atoms: C_48  and  C_50
REMARK                            x       y       z     vdW  Elec       q    Type
REMARK                         _______ _______ _______ _____ _____    ______ ____
ROOT
ATOM      1  O   UNL     1     112.003 125.771 138.974  0.00  0.00    +0.000 OA
ATOM      2  O   UNL     1     113.166 128.412 139.199  0.00  0.00    +0.000 OA
ATOM      3  O   UNL     1     111.919 126.467 140.235  0.00  0.00    +0.000 OA
ATOM      4  C   UNL     1     112.648 126.364 137.845  0.00  0.00    +0.000 A 
ATOM      5  C   UNL     1     113.054 126.996 137.505  0.00  0.00    +0.000 A 
ATOM      6  C   UNL     1     112.410 126.403 138.634  0.00  0.00    +0.000 A 
ATOM      7  C   UNL     1     113.223 127.668 137.954  0.00  0.00    +0.000 A 
ATOM      8  C   UNL     1     112.578 127.075 139.083  0.00  0.00    +0.000 A 
ATOM      9  C   UNL     1     112.985 127.707 138.743  0.00  0.00    +0.000 A 
ATOM     10  C   UNL     1     112.325 127.104 139.904  0.00  0.00    +0.000 A 
ATOM     11  C   UNL     1     112.497 127.800 140.376  0.00  0.00    +0.000 A 
ATOM     12  C   UNL     1     112.921 128.459 140.021  0.00  0.00    +0.000 A 
ENDROOT
BRANCH   4  17
ATOM     13  O   UNL     1     111.790 125.659 136.946  0.00  0.00    +0.000 OA
ATOM     14  O   UNL     1     113.692 125.086 137.852  0.00  0.00    +0.000 OA
ATOM     15  O   UNL     1     113.356 123.742 136.956  0.00  0.00    +0.000 OA
ATOM     16  O   UNL     1     111.976 123.676 136.053  0.00  0.00    +0.000 OA
ATOM     17  C   UNL     1     112.480 125.692 137.397  0.00  0.00    +0.000 C 
ATOM     18  C   UNL     1     113.001 125.053 137.400  0.00  0.00    +0.000 C 
ATOM     19  C   UNL     1     112.834 124.381 136.952  0.00  0.00    +0.000 C 
ATOM     20  C   UNL     1     112.144 124.349 136.501  0.00  0.00    +0.000 C 
ATOM     21  C   UNL     1     111.622 124.988 136.498  0.00  0.00    +0.000 C 
BRANCH  21  23
ATOM     22  O   UNL     1     110.435 125.611 136.001  0.00  0.00    +0.000 OA
ATOM     23  C   UNL     1     110.932 124.954 136.046  0.00  0.00    +0.000 C 
ENDBRANCH  21  23
ENDBRANCH   4  17
BRANCH  12  25
ATOM     24  O   UNL     1     113.600 131.150 141.806  0.00  0.00    +0.000 OA
ATOM     25  C   UNL     1     113.090 129.131 140.468  0.00  0.00    +0.000 A 
ATOM     26  C   UNL     1     113.497 129.762 140.125  0.00  0.00    +0.000 A 
ATOM     27  C   UNL     1     112.854 129.173 141.257  0.00  0.00    +0.000 A 
ATOM     28  C   UNL     1     113.666 130.435 140.571  0.00  0.00    +0.000 A 
ATOM     29  C   UNL     1     113.024 129.846 141.703  0.00  0.00    +0.000 A 
ATOM     30  C   UNL     1     113.430 130.477 141.361  0.00  0.00    +0.000 A 
ENDBRANCH  12  25
BRANCH   5  31
ATOM     31  O   UNL     1     113.293 126.957 136.716  0.00  0.00    +0.000 OA
BRANCH  31  39
ATOM     32  O   UNL     1     112.694 128.146 136.198  0.00  0.00    +0.000 OA
ATOM     33  O   UNL     1     114.816 128.716 135.058  0.00  0.00    +0.000 OA
ATOM     34  O   UNL     1     114.707 127.337 135.956  0.00  0.00    +0.000 OA
ATOM     35  O   UNL     1     113.510 129.716 134.919  0.00  0.00    +0.000 OA
ATOM     36  C   UNL     1     114.109 128.526 135.438  0.00  0.00    +0.000 C 
ATOM     37  C   UNL     1     114.054 127.837 135.887  0.00  0.00    +0.000 C 
ATOM     38  C   UNL     1     113.456 129.026 135.368  0.00  0.00    +0.000 C 
ATOM     39  C   UNL     1     113.347 127.647 136.267  0.00  0.00    +0.000 C 
ATOM     40  C   UNL     1     112.749 128.836 135.748  0.00  0.00    +0.000 C 
BRANCH  40  41
ATOM     41  C   UNL     1     112.096 129.335 135.679  0.00  0.00    +0.000 C 
BRANCH  41  42
ATOM     42  O   UNL     1     111.408 129.175 136.106  0.00  0.00    +0.000 OA
BRANCH  42  44
ATOM     43  O   UNL     1     110.300 129.925 135.602  0.00  0.00    +0.000 OA
ATOM     44  C   UNL     1     110.839 129.764 136.206  0.00  0.00    +0.000 C 
BRANCH  44  45
ATOM     45  C   UNL     1     110.808 130.193 136.911  0.00  0.00    +0.000 C 
ATOM     46  C   UNL     1     110.124 130.178 137.373  0.00  0.00    +0.000 C 
BRANCH  46  48
ATOM     47  O   UNL     1     110.002 131.890 140.191  0.00  0.00    +0.000 OA
ATOM     48  C   UNL     1     110.094 130.607 138.078  0.00  0.00    +0.000 A 
ATOM     49  C   UNL     1     109.967 130.215 138.792  0.00  0.00    +0.000 A 
ATOM     50  C   UNL     1     110.190 131.426 138.067  0.00  0.00    +0.000 A 
ATOM     51  C   UNL     1     110.160 131.853 138.772  0.00  0.00    +0.000 A 
ATOM     52  C   UNL     1     109.937 130.643 139.497  0.00  0.00    +0.000 A 
ATOM     53  C   UNL     1     110.033 131.462 139.486  0.00  0.00    +0.000 A 
BRANCH  51  54
ATOM     54  O   UNL     1     110.256 132.673 138.761  0.00  0.00    +0.000 OA
ATOM     55  C   UNL     1     110.174 133.089 138.054  0.00  0.00    +0.000 C 
ENDBRANCH  51  54
BRANCH  52  56
ATOM     56  O   UNL     1     109.810 130.251 140.212  0.00  0.00    +0.000 OA
ATOM     57  C   UNL     1     109.282 129.618 140.248  0.00  0.00    +0.000 C 
ENDBRANCH  52  56
ENDBRANCH  46  48
ENDBRANCH  44  45
ENDBRANCH  42  44
ENDBRANCH  41  42
ENDBRANCH  40  41
ENDBRANCH  31  39
ENDBRANCH   5  31
TORSDOF 12
ENDMDL
MODEL 5
REMARK VINA RESULT:      -9.7      1.821      4.031
REMARK  Name = 131751647
REMARK  12 active torsions:
REMARK  status: ('A' for Active; 'I' for Inactive)
REMARK    1  A    between atoms: O_3  and  C_29
REMARK    2  A    between atoms: O_3  and  C_31
REMARK    3  A    between atoms: O_12  and  C_34
REMARK    4  A    between atoms: O_12  and  C_41
REMARK    5  A    between atoms: O_17  and  C_53
REMARK    6  A    between atoms: O_18  and  C_54
REMARK    7  A    between atoms: C_20  and  C_25
REMARK    8  A    between atoms: C_24  and  C_32
REMARK    9  A    between atoms: C_30  and  C_34
REMARK   10  A    between atoms: C_40  and  C_42
REMARK   11  A    between atoms: C_41  and  C_43
REMARK   12  A    between atoms: C_48  and  C_50
REMARK                            x       y       z     vdW  Elec       q    Type
REMARK                         _______ _______ _______ _____ _____    ______ ____
ROOT
ATOM      1  O   UNL     1     108.872 128.005 137.291  0.00  0.00    +0.000 OA
ATOM      2  O   UNL     1     111.435 126.760 136.778  0.00  0.00    +0.000 OA
ATOM      3  O   UNL     1     109.036 126.600 137.575  0.00  0.00    +0.000 OA
ATOM      4  C   UNL     1     109.950 128.783 136.764  0.00  0.00    +0.000 A 
ATOM      5  C   UNL     1     110.731 128.837 136.504  0.00  0.00    +0.000 A 
ATOM      6  C   UNL     1     109.654 128.060 137.030  0.00  0.00    +0.000 A 
ATOM      7  C   UNL     1     111.216 128.170 136.510  0.00  0.00    +0.000 A 
ATOM      8  C   UNL     1     110.138 127.393 137.037  0.00  0.00    +0.000 A 
ATOM      9  C   UNL     1     110.920 127.448 136.776  0.00  0.00    +0.000 A 
ATOM     10  C   UNL     1     109.818 126.646 137.316  0.00  0.00    +0.000 A 
ATOM     11  C   UNL     1     110.319 125.947 137.325  0.00  0.00    +0.000 A 
ATOM     12  C   UNL     1     111.132 126.005 137.054  0.00  0.00    +0.000 A 
ENDROOT
BRANCH   4  17
ATOM     13  O   UNL     1     109.443 129.951 137.412  0.00  0.00    +0.000 OA
ATOM     14  O   UNL     1     109.022 129.115 135.440  0.00  0.00    +0.000 OA
ATOM     15  O   UNL     1     108.051 130.449 135.427  0.00  0.00    +0.000 OA
ATOM     16  O   UNL     1     108.008 131.451 136.737  0.00  0.00    +0.000 OA
ATOM     17  C   UNL     1     109.465 129.450 136.758  0.00  0.00    +0.000 C 
ATOM     18  C   UNL     1     109.001 129.616 136.096  0.00  0.00    +0.000 C 
ATOM     19  C   UNL     1     108.515 130.283 136.089  0.00  0.00    +0.000 C 
ATOM     20  C   UNL     1     108.494 130.783 136.744  0.00  0.00    +0.000 C 
ATOM     21  C   UNL     1     108.958 130.617 137.406  0.00  0.00    +0.000 C 
BRANCH  21  23
ATOM     22  O   UNL     1     109.192 130.849 138.797  0.00  0.00    +0.000 OA
ATOM     23  C   UNL     1     108.936 131.119 138.061  0.00  0.00    +0.000 C 
ENDBRANCH  21  23
ENDBRANCH   4  17
BRANCH  12  25
ATOM     24  O   UNL     1     113.080 123.341 137.074  0.00  0.00    +0.000 OA
ATOM     25  C   UNL     1     111.619 125.339 137.059  0.00  0.00    +0.000 A 
ATOM     26  C   UNL     1     111.478 124.721 136.532  0.00  0.00    +0.000 A 
ATOM     27  C   UNL     1     112.248 125.292 137.592  0.00  0.00    +0.000 A 
ATOM     28  C   UNL     1     111.965 124.055 136.537  0.00  0.00    +0.000 A 
ATOM     29  C   UNL     1     112.735 124.626 137.597  0.00  0.00    +0.000 A 
ATOM     30  C   UNL     1     112.593 124.007 137.070  0.00  0.00    +0.000 A 
ENDBRANCH  12  25
BRANCH   5  31
ATOM     31  O   UNL     1     111.027 129.560 136.237  0.00  0.00    +0.000 OA
BRANCH  31  39
ATOM     32  O   UNL     1     112.046 129.865 137.192  0.00  0.00    +0.000 OA
ATOM     33  O   UNL     1     113.657 130.239 135.351  0.00  0.00    +0.000 OA
ATOM     34  O   UNL     1     112.101 129.809 135.010  0.00  0.00    +0.000 OA
ATOM     35  O   UNL     1     114.139 130.420 136.918  0.00  0.00    +0.000 OA
ATOM     36  C   UNL     1     113.120 130.114 135.964  0.00  0.00    +0.000 C 
ATOM     37  C   UNL     1     112.343 129.900 135.794  0.00  0.00    +0.000 C 
ATOM     38  C   UNL     1     113.362 130.205 136.748  0.00  0.00    +0.000 C 
ATOM     39  C   UNL     1     111.805 129.775 136.408  0.00  0.00    +0.000 C 
ATOM     40  C   UNL     1     112.825 130.080 137.362  0.00  0.00    +0.000 C 
BRANCH  40  41
ATOM     41  C   UNL     1     113.065 130.171 138.146  0.00  0.00    +0.000 C 
BRANCH  41  42
ATOM     42  O   UNL     1     112.500 130.247 138.743  0.00  0.00    +0.000 OA
BRANCH  42  44
ATOM     43  O   UNL     1     113.068 130.405 140.045  0.00  0.00    +0.000 OA
ATOM     44  C   UNL     1     112.655 129.948 139.496  0.00  0.00    +0.000 C 
BRANCH  44  45
ATOM     45  C   UNL     1     112.396 129.191 139.701  0.00  0.00    +0.000 C 
ATOM     46  C   UNL     1     111.828 129.096 140.291  0.00  0.00    +0.000 C 
BRANCH  46  48
ATOM     47  O   UNL     1     110.792 126.071 141.107  0.00  0.00    +0.000 OA
ATOM     48  C   UNL     1     111.569 128.339 140.495  0.00  0.00    +0.000 A 
ATOM     49  C   UNL     1     110.761 128.181 140.551  0.00  0.00    +0.000 A 
ATOM     50  C   UNL     1     112.118 127.741 140.642  0.00  0.00    +0.000 A 
ATOM     51  C   UNL     1     111.859 126.985 140.846  0.00  0.00    +0.000 A 
ATOM     52  C   UNL     1     110.503 127.425 140.755  0.00  0.00    +0.000 A 
ATOM     53  C   UNL     1     111.052 126.827 140.903  0.00  0.00    +0.000 A 
BRANCH  51  54
ATOM     54  O   UNL     1     112.408 126.387 140.994  0.00  0.00    +0.000 OA
ATOM     55  C   UNL     1     113.213 126.563 141.022  0.00  0.00    +0.000 C 
ENDBRANCH  51  54
BRANCH  52  56
ATOM     56  O   UNL     1     109.694 127.267 140.812  0.00  0.00    +0.000 OA
ATOM     57  C   UNL     1     109.154 127.889 140.848  0.00  0.00    +0.000 C 
ENDBRANCH  52  56
ENDBRANCH  46  48
ENDBRANCH  44  45
ENDBRANCH  42  44
ENDBRANCH  41  42
ENDBRANCH  40  41
ENDBRANCH  31  39
ENDBRANCH   5  31
TORSDOF 12
ENDMDL
MODEL 6
REMARK VINA RESULT:      -9.7      1.441      3.739
REMARK  Name = 131751647
REMARK  12 active torsions:
REMARK  status: ('A' for Active; 'I' for Inactive)
REMARK    1  A    between atoms: O_3  and  C_29
REMARK    2  A    between atoms: O_3  and  C_31
REMARK    3  A    between atoms: O_12  and  C_34
REMARK    4  A    between atoms: O_12  and  C_41
REMARK    5  A    between atoms: O_17  and  C_53
REMARK    6  A    between atoms: O_18  and  C_54
REMARK    7  A    between atoms: C_20  and  C_25
REMARK    8  A    between atoms: C_24  and  C_32
REMARK    9  A    between atoms: C_30  and  C_34
REMARK   10  A    between atoms: C_40  and  C_42
REMARK   11  A    between atoms: C_41  and  C_43
REMARK   12  A    between atoms: C_48  and  C_50
REMARK                            x       y       z     vdW  Elec       q    Type
REMARK                         _______ _______ _______ _____ _____    ______ ____
ROOT
ATOM      1  O   UNL     1     113.742 130.032 141.493  0.00  0.00    +0.000 OA
ATOM      2  O   UNL     1     112.816 130.326 138.766  0.00  0.00    +0.000 OA
ATOM      3  O   UNL     1     114.688 129.888 140.414  0.00  0.00    +0.000 OA
ATOM      4  C   UNL     1     112.365 130.316 141.235  0.00  0.00    +0.000 A 
ATOM      5  C   UNL     1     111.753 130.459 140.700  0.00  0.00    +0.000 A 
ATOM      6  C   UNL     1     113.129 130.175 140.958  0.00  0.00    +0.000 A 
ATOM      7  C   UNL     1     111.905 130.461 139.889  0.00  0.00    +0.000 A 
ATOM      8  C   UNL     1     113.282 130.177 140.148  0.00  0.00    +0.000 A 
ATOM      9  C   UNL     1     112.670 130.321 139.613  0.00  0.00    +0.000 A 
ATOM     10  C   UNL     1     114.083 130.030 139.872  0.00  0.00    +0.000 A 
ATOM     11  C   UNL     1     114.247 130.031 139.029  0.00  0.00    +0.000 A 
ATOM     12  C   UNL     1     113.610 130.180 138.472  0.00  0.00    +0.000 A 
ENDROOT
BRANCH   4  17
ATOM     13  O   UNL     1     111.972 129.619 142.419  0.00  0.00    +0.000 OA
ATOM     14  O   UNL     1     112.543 131.703 142.110  0.00  0.00    +0.000 OA
ATOM     15  O   UNL     1     112.240 131.699 143.732  0.00  0.00    +0.000 OA
ATOM     16  O   UNL     1     111.758 130.308 144.478  0.00  0.00    +0.000 OA
ATOM     17  C   UNL     1     112.213 130.313 142.046  0.00  0.00    +0.000 C 
ATOM     18  C   UNL     1     112.302 131.007 142.484  0.00  0.00    +0.000 C 
ATOM     19  C   UNL     1     112.151 131.005 143.294  0.00  0.00    +0.000 C 
ATOM     20  C   UNL     1     111.910 130.310 143.667  0.00  0.00    +0.000 C 
ATOM     21  C   UNL     1     111.821 129.616 143.229  0.00  0.00    +0.000 C 
BRANCH  21  23
ATOM     22  O   UNL     1     111.348 128.269 143.153  0.00  0.00    +0.000 OA
ATOM     23  C   UNL     1     111.580 128.921 143.602  0.00  0.00    +0.000 C 
ENDBRANCH  21  23
ENDBRANCH   4  17
BRANCH  12  25
ATOM     24  O   UNL     1     114.208 130.193 135.227  0.00  0.00    +0.000 OA
ATOM     25  C   UNL     1     113.759 130.183 137.661  0.00  0.00    +0.000 A 
ATOM     26  C   UNL     1     114.059 130.861 137.299  0.00  0.00    +0.000 A 
ATOM     27  C   UNL     1     113.609 129.508 137.211  0.00  0.00    +0.000 A 
ATOM     28  C   UNL     1     114.209 130.864 136.488  0.00  0.00    +0.000 A 
ATOM     29  C   UNL     1     113.758 129.511 136.400  0.00  0.00    +0.000 A 
ATOM     30  C   UNL     1     114.059 130.189 136.038  0.00  0.00    +0.000 A 
ENDBRANCH  12  25
BRANCH   5  31
ATOM     31  O   UNL     1     110.989 130.599 140.977  0.00  0.00    +0.000 OA
BRANCH  31  39
ATOM     32  O   UNL     1     110.261 129.642 140.205  0.00  0.00    +0.000 OA
ATOM     33  O   UNL     1     108.541 131.350 139.707  0.00  0.00    +0.000 OA
ATOM     34  O   UNL     1     109.842 131.738 140.645  0.00  0.00    +0.000 OA
ATOM     35  O   UNL     1     108.387 129.823 139.101  0.00  0.00    +0.000 OA
ATOM     36  C   UNL     1     109.115 130.781 139.873  0.00  0.00    +0.000 C 
ATOM     37  C   UNL     1     109.764 130.975 140.341  0.00  0.00    +0.000 C 
ATOM     38  C   UNL     1     109.037 130.017 139.569  0.00  0.00    +0.000 C 
ATOM     39  C   UNL     1     110.338 130.405 140.507  0.00  0.00    +0.000 C 
ATOM     40  C   UNL     1     109.610 129.448 139.735  0.00  0.00    +0.000 C 
BRANCH  40  41
ATOM     41  C   UNL     1     109.534 128.684 139.433  0.00  0.00    +0.000 C 
BRANCH  41  42
ATOM     42  O   UNL     1     109.967 128.064 139.764  0.00  0.00    +0.000 OA
BRANCH  42  44
ATOM     43  O   UNL     1     109.455 126.857 139.197  0.00  0.00    +0.000 OA
ATOM     44  C   UNL     1     110.086 127.370 139.335  0.00  0.00    +0.000 C 
BRANCH  44  45
ATOM     45  C   UNL     1     110.837 127.189 139.044  0.00  0.00    +0.000 C 
ATOM     46  C   UNL     1     111.260 126.555 139.362  0.00  0.00    +0.000 C 
BRANCH  46  48
ATOM     47  O   UNL     1     114.262 125.831 138.200  0.00  0.00    +0.000 OA
ATOM     48  C   UNL     1     112.011 126.374 139.071  0.00  0.00    +0.000 A 
ATOM     49  C   UNL     1     112.681 126.571 139.510  0.00  0.00    +0.000 A 
ATOM     50  C   UNL     1     112.091 125.996 138.342  0.00  0.00    +0.000 A 
ATOM     51  C   UNL     1     112.841 125.815 138.052  0.00  0.00    +0.000 A 
ATOM     52  C   UNL     1     113.431 126.390 139.219  0.00  0.00    +0.000 A 
ATOM     53  C   UNL     1     113.511 126.012 138.490  0.00  0.00    +0.000 A 
BRANCH  51  54
ATOM     54  O   UNL     1     112.921 125.437 137.323  0.00  0.00    +0.000 OA
ATOM     55  C   UNL     1     112.416 124.817 137.122  0.00  0.00    +0.000 C 
ENDBRANCH  51  54
BRANCH  52  56
ATOM     56  O   UNL     1     114.102 126.587 139.657  0.00  0.00    +0.000 OA
ATOM     57  C   UNL     1     114.062 126.621 140.481  0.00  0.00    +0.000 C 
ENDBRANCH  52  56
ENDBRANCH  46  48
ENDBRANCH  44  45
ENDBRANCH  42  44
ENDBRANCH  41  42
ENDBRANCH  40  41
ENDBRANCH  31  39
ENDBRANCH   5  31
TORSDOF 12
ENDMDL
MODEL 7
REMARK VINA RESULT:      -9.6      2.026      4.814
REMARK  Name = 131751647
REMARK  12 active torsions:
REMARK  status: ('A' for Active; 'I' for Inactive)
REMARK    1  A    between atoms: O_3  and  C_29
REMARK    2  A    between atoms: O_3  and  C_31
REMARK    3  A    between atoms: O_12  and  C_34
REMARK    4  A    between atoms: O_12  and  C_41
REMARK    5  A    between atoms: O_17  and  C_53
REMARK    6  A    between atoms: O_18  and  C_54
REMARK    7  A    between atoms: C_20  and  C_25
REMARK    8  A    between atoms: C_24  and  C_32
REMARK    9  A    between atoms: C_30  and  C_34
REMARK   10  A    between atoms: C_40  and  C_42
REMARK   11  A    between atoms: C_41  and  C_43
REMARK   12  A    between atoms: C_48  and  C_50
REMARK                            x       y       z     vdW  Elec       q    Type
REMARK                         _______ _______ _______ _____ _____    ______ ____
ROOT
ATOM      1  O   UNL     1     111.864 128.903 140.292  0.00  0.00    +0.000 OA
ATOM      2  O   UNL     1     112.774 129.088 137.550  0.00  0.00    +0.000 OA
ATOM      3  O   UNL     1     112.690 130.020 139.904  0.00  0.00    +0.000 OA
ATOM      4  C   UNL     1     111.493 127.895 139.348  0.00  0.00    +0.000 A 
ATOM      5  C   UNL     1     111.519 127.590 138.583  0.00  0.00    +0.000 A 
ATOM      6  C   UNL     1     111.890 128.597 139.526  0.00  0.00    +0.000 A 
ATOM      7  C   UNL     1     111.941 127.985 137.994  0.00  0.00    +0.000 A 
ATOM      8  C   UNL     1     112.312 128.992 138.938  0.00  0.00    +0.000 A 
ATOM      9  C   UNL     1     112.338 128.686 138.172  0.00  0.00    +0.000 A 
ATOM     10  C   UNL     1     112.721 129.722 139.135  0.00  0.00    +0.000 A 
ATOM     11  C   UNL     1     113.162 130.138 138.527  0.00  0.00    +0.000 A 
ATOM     12  C   UNL     1     113.189 129.819 137.729  0.00  0.00    +0.000 A 
ENDROOT
BRANCH   4  17
ATOM     13  O   UNL     1     110.281 127.690 140.077  0.00  0.00    +0.000 OA
ATOM     14  O   UNL     1     112.232 126.725 140.247  0.00  0.00    +0.000 OA
ATOM     15  O   UNL     1     111.389 125.934 141.425  0.00  0.00    +0.000 OA
ATOM     16  O   UNL     1     109.807 126.314 141.704  0.00  0.00    +0.000 OA
ATOM     17  C   UNL     1     111.071 127.500 139.937  0.00  0.00    +0.000 C 
ATOM     18  C   UNL     1     111.440 126.915 140.386  0.00  0.00    +0.000 C 
ATOM     19  C   UNL     1     111.019 126.519 140.975  0.00  0.00    +0.000 C 
ATOM     20  C   UNL     1     110.229 126.710 141.114  0.00  0.00    +0.000 C 
ATOM     21  C   UNL     1     109.860 127.295 140.665  0.00  0.00    +0.000 C 
BRANCH  21  23
ATOM     22  O   UNL     1     108.573 127.680 140.176  0.00  0.00    +0.000 OA
ATOM     23  C   UNL     1     109.069 127.484 140.805  0.00  0.00    +0.000 C 
ENDBRANCH  21  23
ENDBRANCH   4  17
BRANCH  12  25
ATOM     24  O   UNL     1     114.875 131.392 135.369  0.00  0.00    +0.000 OA
ATOM     25  C   UNL     1     113.610 130.212 137.139  0.00  0.00    +0.000 A 
ATOM     26  C   UNL     1     114.241 129.837 136.763  0.00  0.00    +0.000 A 
ATOM     27  C   UNL     1     113.401 130.981 136.926  0.00  0.00    +0.000 A 
ATOM     28  C   UNL     1     114.662 130.230 136.172  0.00  0.00    +0.000 A 
ATOM     29  C   UNL     1     113.823 131.375 136.335  0.00  0.00    +0.000 A 
ATOM     30  C   UNL     1     114.453 130.999 135.959  0.00  0.00    +0.000 A 
ENDBRANCH  12  25
BRANCH   5  31
ATOM     31  O   UNL     1     111.123 126.888 138.406  0.00  0.00    +0.000 OA
BRANCH  31  39
ATOM     32  O   UNL     1     110.307 127.371 137.336  0.00  0.00    +0.000 OA
ATOM     33  O   UNL     1     110.734 125.286 136.071  0.00  0.00    +0.000 OA
ATOM     34  O   UNL     1     111.407 125.499 137.562  0.00  0.00    +0.000 OA
ATOM     35  O   UNL     1     109.776 126.463 135.423  0.00  0.00    +0.000 OA
ATOM     36  C   UNL     1     110.592 125.981 136.493  0.00  0.00    +0.000 C 
ATOM     37  C   UNL     1     110.928 126.087 137.238  0.00  0.00    +0.000 C 
ATOM     38  C   UNL     1     110.113 126.569 136.168  0.00  0.00    +0.000 C 
ATOM     39  C   UNL     1     110.786 126.782 137.659  0.00  0.00    +0.000 C 
ATOM     40  C   UNL     1     109.970 127.264 136.589  0.00  0.00    +0.000 C 
BRANCH  40  41
ATOM     41  C   UNL     1     109.492 127.853 136.266  0.00  0.00    +0.000 C 
BRANCH  41  42
ATOM     42  O   UNL     1     109.014 128.312 136.758  0.00  0.00    +0.000 OA
BRANCH  42  44
ATOM     43  O   UNL     1     108.236 129.235 135.992  0.00  0.00    +0.000 OA
ATOM     44  C   UNL     1     108.829 129.088 136.546  0.00  0.00    +0.000 C 
BRANCH  44  45
ATOM     45  C   UNL     1     109.240 129.717 136.889  0.00  0.00    +0.000 C 
ATOM     46  C   UNL     1     108.824 130.325 137.261  0.00  0.00    +0.000 C 
BRANCH  46  48
ATOM     47  O   UNL     1     110.463 132.841 138.630  0.00  0.00    +0.000 OA
ATOM     48  C   UNL     1     109.234 130.955 137.604  0.00  0.00    +0.000 A 
ATOM     49  C   UNL     1     109.587 131.526 137.124  0.00  0.00    +0.000 A 
ATOM     50  C   UNL     1     109.292 131.012 138.425  0.00  0.00    +0.000 A 
ATOM     51  C   UNL     1     109.701 131.640 138.766  0.00  0.00    +0.000 A 
ATOM     52  C   UNL     1     109.996 132.155 137.467  0.00  0.00    +0.000 A 
ATOM     53  C   UNL     1     110.053 132.212 138.288  0.00  0.00    +0.000 A 
BRANCH  51  54
ATOM     54  O   UNL     1     109.758 131.697 139.587  0.00  0.00    +0.000 OA
ATOM     55  C   UNL     1     109.330 131.182 140.068  0.00  0.00    +0.000 C 
ENDBRANCH  51  54
BRANCH  52  56
ATOM     56  O   UNL     1     110.349 132.727 136.988  0.00  0.00    +0.000 OA
ATOM     57  C   UNL     1     109.972 132.976 136.297  0.00  0.00    +0.000 C 
ENDBRANCH  52  56
ENDBRANCH  46  48
ENDBRANCH  44  45
ENDBRANCH  42  44
ENDBRANCH  41  42
ENDBRANCH  40  41
ENDBRANCH  31  39
ENDBRANCH   5  31
TORSDOF 12
ENDMDL
MODEL 8
REMARK VINA RESULT:      -9.5      1.960      4.483
REMARK  Name = 131751647
REMARK  12 active torsions:
REMARK  status: ('A' for Active; 'I' for Inactive)
REMARK    1  A    between atoms: O_3  and  C_29
REMARK    2  A    between atoms: O_3  and  C_31
REMARK    3  A    between atoms: O_12  and  C_34
REMARK    4  A    between atoms: O_12  and  C_41
REMARK    5  A    between atoms: O_17  and  C_53
REMARK    6  A    between atoms: O_18  and  C_54
REMARK    7  A    between atoms: C_20  and  C_25
REMARK    8  A    between atoms: C_24  and  C_32
REMARK    9  A    between atoms: C_30  and  C_34
REMARK   10  A    between atoms: C_40  and  C_42
REMARK   11  A    between atoms: C_41  and  C_43
REMARK   12  A    between atoms: C_48  and  C_50
REMARK                            x       y       z     vdW  Elec       q    Type
REMARK                         _______ _______ _______ _____ _____    ______ ____
ROOT
ATOM      1  O   UNL     1     112.019 130.022 139.843  0.00  0.00    +0.000 OA
ATOM      2  O   UNL     1     112.531 130.129 136.996  0.00  0.00    +0.000 OA
ATOM      3  O   UNL     1     113.384 130.065 139.380  0.00  0.00    +0.000 OA
ATOM      4  C   UNL     1     110.925 130.031 138.922  0.00  0.00    +0.000 A 
ATOM      5  C   UNL     1     110.645 130.052 138.147  0.00  0.00    +0.000 A 
ATOM      6  C   UNL     1     111.737 130.042 139.067  0.00  0.00    +0.000 A 
ATOM      7  C   UNL     1     111.176 130.084 137.516  0.00  0.00    +0.000 A 
ATOM      8  C   UNL     1     112.269 130.075 138.437  0.00  0.00    +0.000 A 
ATOM      9  C   UNL     1     111.988 130.095 137.661  0.00  0.00    +0.000 A 
ATOM     10  C   UNL     1     113.112 130.086 138.601  0.00  0.00    +0.000 A 
ATOM     11  C   UNL     1     113.670 130.119 137.949  0.00  0.00    +0.000 A 
ATOM     12  C   UNL     1     113.377 130.141 137.141  0.00  0.00    +0.000 A 
ENDROOT
BRANCH   4  17
ATOM     13  O   UNL     1     110.131 129.270 139.835  0.00  0.00    +0.000 OA
ATOM     14  O   UNL     1     110.390 131.427 139.621  0.00  0.00    +0.000 OA
ATOM     15  O   UNL     1     109.329 131.364 140.882  0.00  0.00    +0.000 OA
ATOM     16  O   UNL     1     108.802 129.905 141.446  0.00  0.00    +0.000 OA
ATOM     17  C   UNL     1     110.394 129.999 139.553  0.00  0.00    +0.000 C 
ATOM     18  C   UNL     1     110.127 130.697 139.902  0.00  0.00    +0.000 C 
ATOM     19  C   UNL     1     109.596 130.666 140.533  0.00  0.00    +0.000 C 
ATOM     20  C   UNL     1     109.334 129.937 140.814  0.00  0.00    +0.000 C 
ATOM     21  C   UNL     1     109.601 129.239 140.465  0.00  0.00    +0.000 C 
BRANCH  21  23
ATOM     22  O   UNL     1     109.190 127.891 140.222  0.00  0.00    +0.000 OA
ATOM     23  C   UNL     1     109.337 128.509 140.748  0.00  0.00    +0.000 C 
ENDBRANCH  21  23
ENDBRANCH   4  17
BRANCH  12  25
ATOM     24  O   UNL     1     115.493 130.270 134.612  0.00  0.00    +0.000 OA
ATOM     25  C   UNL     1     113.906 130.173 136.509  0.00  0.00    +0.000 A 
ATOM     26  C   UNL     1     114.293 130.880 136.330  0.00  0.00    +0.000 A 
ATOM     27  C   UNL     1     114.048 129.499 136.055  0.00  0.00    +0.000 A 
ATOM     28  C   UNL     1     114.822 130.912 135.698  0.00  0.00    +0.000 A 
ATOM     29  C   UNL     1     114.577 129.531 135.423  0.00  0.00    +0.000 A 
ATOM     30  C   UNL     1     114.964 130.237 135.244  0.00  0.00    +0.000 A 
ENDBRANCH  12  25
BRANCH   5  31
ATOM     31  O   UNL     1     109.833 130.040 138.002  0.00  0.00    +0.000 OA
BRANCH  31  39
ATOM     32  O   UNL     1     109.761 128.864 137.195  0.00  0.00    +0.000 OA
ATOM     33  O   UNL     1     108.202 130.015 135.656  0.00  0.00    +0.000 OA
ATOM     34  O   UNL     1     108.793 130.808 136.976  0.00  0.00    +0.000 OA
ATOM     35  O   UNL     1     108.650 128.455 135.361  0.00  0.00    +0.000 OA
ATOM     36  C   UNL     1     108.722 129.631 136.169  0.00  0.00    +0.000 C 
ATOM     37  C   UNL     1     109.017 130.027 136.828  0.00  0.00    +0.000 C 
ATOM     38  C   UNL     1     108.946 128.851 136.020  0.00  0.00    +0.000 C 
ATOM     39  C   UNL     1     109.537 129.644 137.341  0.00  0.00    +0.000 C 
ATOM     40  C   UNL     1     109.465 128.467 136.533  0.00  0.00    +0.000 C 
BRANCH  40  41
ATOM     41  C   UNL     1     109.690 127.687 136.387  0.00  0.00    +0.000 C 
BRANCH  41  42
ATOM     42  O   UNL     1     110.477 127.459 136.488  0.00  0.00    +0.000 OA
BRANCH  42  44
ATOM     43  O   UNL     1     110.246 126.143 135.981  0.00  0.00    +0.000 OA
ATOM     44  C   UNL     1     110.682 126.661 136.453  0.00  0.00    +0.000 C 
BRANCH  44  45
ATOM     45  C   UNL     1     111.323 126.380 136.891  0.00  0.00    +0.000 C 
ATOM     46  C   UNL     1     112.092 126.583 136.671  0.00  0.00    +0.000 C 
BRANCH  46  48
ATOM     47  O   UNL     1     114.655 125.462 138.422  0.00  0.00    +0.000 OA
ATOM     48  C   UNL     1     112.733 126.303 137.109  0.00  0.00    +0.000 A 
ATOM     49  C   UNL     1     112.788 126.472 137.915  0.00  0.00    +0.000 A 
ATOM     50  C   UNL     1     113.319 125.853 136.741  0.00  0.00    +0.000 A 
ATOM     51  C   UNL     1     113.959 125.573 137.178  0.00  0.00    +0.000 A 
ATOM     52  C   UNL     1     113.428 126.192 138.351  0.00  0.00    +0.000 A 
ATOM     53  C   UNL     1     114.014 125.742 137.983  0.00  0.00    +0.000 A 
BRANCH  51  54
ATOM     54  O   UNL     1     114.545 125.124 136.810  0.00  0.00    +0.000 OA
ATOM     55  C   UNL     1     114.377 124.719 136.112  0.00  0.00    +0.000 C 
ENDBRANCH  51  54
BRANCH  52  56
ATOM     56  O   UNL     1     113.483 126.361 139.158  0.00  0.00    +0.000 OA
ATOM     57  C   UNL     1     112.810 126.584 139.579  0.00  0.00    +0.000 C 
ENDBRANCH  52  56
ENDBRANCH  46  48
ENDBRANCH  44  45
ENDBRANCH  42  44
ENDBRANCH  41  42
ENDBRANCH  40  41
ENDBRANCH  31  39
ENDBRANCH   5  31
TORSDOF 12
ENDMDL
MODEL 9
REMARK VINA RESULT:      -9.5      1.990      5.277
REMARK  Name = 131751647
REMARK  12 active torsions:
REMARK  status: ('A' for Active; 'I' for Inactive)
REMARK    1  A    between atoms: O_3  and  C_29
REMARK    2  A    between atoms: O_3  and  C_31
REMARK    3  A    between atoms: O_12  and  C_34
REMARK    4  A    between atoms: O_12  and  C_41
REMARK    5  A    between atoms: O_17  and  C_53
REMARK    6  A    between atoms: O_18  and  C_54
REMARK    7  A    between atoms: C_20  and  C_25
REMARK    8  A    between atoms: C_24  and  C_32
REMARK    9  A    between atoms: C_30  and  C_34
REMARK   10  A    between atoms: C_40  and  C_42
REMARK   11  A    between atoms: C_41  and  C_43
REMARK   12  A    between atoms: C_48  and  C_50
REMARK                            x       y       z     vdW  Elec       q    Type
REMARK                         _______ _______ _______ _____ _____    ______ ____
ROOT
ATOM      1  O   UNL     1     111.453 127.138 136.461  0.00  0.00    +0.000 OA
ATOM      2  O   UNL     1     113.724 128.914 136.727  0.00  0.00    +0.000 OA
ATOM      3  O   UNL     1     111.866 127.921 135.322  0.00  0.00    +0.000 OA
ATOM      4  C   UNL     1     112.146 127.228 137.709  0.00  0.00    +0.000 A 
ATOM      5  C   UNL     1     112.749 127.550 138.169  0.00  0.00    +0.000 A 
ATOM      6  C   UNL     1     112.058 127.460 136.922  0.00  0.00    +0.000 A 
ATOM      7  C   UNL     1     113.267 128.104 137.843  0.00  0.00    +0.000 A 
ATOM      8  C   UNL     1     112.574 128.014 136.595  0.00  0.00    +0.000 A 
ATOM      9  C   UNL     1     113.179 128.336 137.056  0.00  0.00    +0.000 A 
ATOM     10  C   UNL     1     112.473 128.248 135.774  0.00  0.00    +0.000 A 
ATOM     11  C   UNL     1     113.008 128.824 135.429  0.00  0.00    +0.000 A 
ATOM     12  C   UNL     1     113.638 129.160 135.909  0.00  0.00    +0.000 A 
ENDROOT
BRANCH   4  17
ATOM     13  O   UNL     1     110.945 126.925 138.421  0.00  0.00    +0.000 OA
ATOM     14  O   UNL     1     112.481 125.617 137.587  0.00  0.00    +0.000 OA
ATOM     15  O   UNL     1     111.447 124.508 138.238  0.00  0.00    +0.000 OA
ATOM     16  O   UNL     1     110.079 125.010 139.012  0.00  0.00    +0.000 OA
ATOM     17  C   UNL     1     111.628 126.674 138.035  0.00  0.00    +0.000 C 
ATOM     18  C   UNL     1     111.796 125.869 137.974  0.00  0.00    +0.000 C 
ATOM     19  C   UNL     1     111.280 125.314 138.299  0.00  0.00    +0.000 C 
ATOM     20  C   UNL     1     110.596 125.565 138.686  0.00  0.00    +0.000 C 
ATOM     21  C   UNL     1     110.428 126.371 138.747  0.00  0.00    +0.000 C 
BRANCH  21  23
ATOM     22  O   UNL     1     109.554 127.424 139.162  0.00  0.00    +0.000 OA
ATOM     23  C   UNL     1     109.744 126.621 139.134  0.00  0.00    +0.000 C 
ENDBRANCH  21  23
ENDBRANCH   4  17
BRANCH  12  25
ATOM     24  O   UNL     1     115.710 131.377 134.613  0.00  0.00    +0.000 OA
ATOM     25  C   UNL     1     114.156 129.714 135.584  0.00  0.00    +0.000 A 
ATOM     26  C   UNL     1     114.133 130.498 135.839  0.00  0.00    +0.000 A 
ATOM     27  C   UNL     1     114.697 129.484 135.006  0.00  0.00    +0.000 A 
ATOM     28  C   UNL     1     114.651 131.052 135.515  0.00  0.00    +0.000 A 
ATOM     29  C   UNL     1     115.215 130.038 134.682  0.00  0.00    +0.000 A 
ATOM     30  C   UNL     1     115.192 130.822 134.936  0.00  0.00    +0.000 A 
ENDBRANCH  12  25
BRANCH   5  31
ATOM     31  O   UNL     1     112.837 127.318 138.955  0.00  0.00    +0.000 OA
BRANCH  31  39
ATOM     32  O   UNL     1     112.668 128.585 139.595  0.00  0.00    +0.000 OA
ATOM     33  O   UNL     1     114.578 128.086 141.088  0.00  0.00    +0.000 OA
ATOM     34  O   UNL     1     114.110 126.985 139.951  0.00  0.00    +0.000 OA
ATOM     35  O   UNL     1     113.772 129.518 141.231  0.00  0.00    +0.000 OA
ATOM     36  C   UNL     1     113.941 128.252 140.591  0.00  0.00    +0.000 C 
ATOM     37  C   UNL     1     113.708 127.702 140.022  0.00  0.00    +0.000 C 
ATOM     38  C   UNL     1     113.538 128.969 140.662  0.00  0.00    +0.000 C 
ATOM     39  C   UNL     1     113.071 127.868 139.525  0.00  0.00    +0.000 C 
ATOM     40  C   UNL     1     112.902 129.135 140.165  0.00  0.00    +0.000 C 
BRANCH  40  41
ATOM     41  C   UNL     1     112.498 129.851 140.235  0.00  0.00    +0.000 C 
BRANCH  41  42
ATOM     42  O   UNL     1     111.696 129.893 140.045  0.00  0.00    +0.000 OA
BRANCH  42  44
ATOM     43  O   UNL     1     111.165 131.181 140.362  0.00  0.00    +0.000 OA
ATOM     44  C   UNL     1     111.367 130.609 139.803  0.00  0.00    +0.000 C 
BRANCH  44  45
ATOM     45  C   UNL     1     111.241 130.754 139.000  0.00  0.00    +0.000 C 
ATOM     46  C   UNL     1     110.472 130.834 138.712  0.00  0.00    +0.000 C 
BRANCH  46  48
ATOM     47  O   UNL     1     109.967 131.414 135.502  0.00  0.00    +0.000 OA
ATOM     48  C   UNL     1     110.346 130.979 137.909  0.00  0.00    +0.000 A 
ATOM     49  C   UNL     1     110.629 131.674 137.566  0.00  0.00    +0.000 A 
ATOM     50  C   UNL     1     109.937 130.429 137.449  0.00  0.00    +0.000 A 
ATOM     51  C   UNL     1     109.811 130.574 136.648  0.00  0.00    +0.000 A 
ATOM     52  C   UNL     1     110.502 131.819 136.764  0.00  0.00    +0.000 A 
ATOM     53  C   UNL     1     110.093 131.269 136.305  0.00  0.00    +0.000 A 
BRANCH  51  54
ATOM     54  O   UNL     1     109.402 130.024 136.188  0.00  0.00    +0.000 OA
ATOM     55  C   UNL     1     108.975 129.419 136.551  0.00  0.00    +0.000 C 
ENDBRANCH  51  54
BRANCH  52  56
ATOM     56  O   UNL     1     110.785 132.514 136.421  0.00  0.00    +0.000 OA
ATOM     57  C   UNL     1     110.754 133.224 136.841  0.00  0.00    +0.000 C 
ENDBRANCH  52  56
ENDBRANCH  46  48
ENDBRANCH  44  45
ENDBRANCH  42  44
ENDBRANCH  41  42
ENDBRANCH  40  41
ENDBRANCH  31  39
ENDBRANCH   5  31
TORSDOF 12
ENDMDL
MODEL 10
REMARK VINA RESULT:      -9.5      1.601      4.312
REMARK  Name = 131751647
REMARK  12 active torsions:
REMARK  status: ('A' for Active; 'I' for Inactive)
REMARK    1  A    between atoms: O_3  and  C_29
REMARK    2  A    between atoms: O_3  and  C_31
REMARK    3  A    between atoms: O_12  and  C_34
REMARK    4  A    between atoms: O_12  and  C_41
REMARK    5  A    between atoms: O_17  and  C_53
REMARK    6  A    between atoms: O_18  and  C_54
REMARK    7  A    between atoms: C_20  and  C_25
REMARK    8  A    between atoms: C_24  and  C_32
REMARK    9  A    between atoms: C_30  and  C_34
REMARK   10  A    between atoms: C_40  and  C_42
REMARK   11  A    between atoms: C_41  and  C_43
REMARK   12  A    between atoms: C_48  and  C_50
REMARK                            x       y       z     vdW  Elec       q    Type
REMARK                         _______ _______ _______ _____ _____    ______ ____
ROOT
ATOM      1  O   UNL     1     112.247 126.878 138.384  0.00  0.00    +0.000 OA
ATOM      2  O   UNL     1     112.891 129.627 139.024  0.00  0.00    +0.000 OA
ATOM      3  O   UNL     1     113.174 127.147 139.455  0.00  0.00    +0.000 OA
ATOM      4  C   UNL     1     111.647 127.942 137.641  0.00  0.00    +0.000 A 
ATOM      5  C   UNL     1     111.553 128.749 137.499  0.00  0.00    +0.000 A 
ATOM      6  C   UNL     1     112.152 127.686 138.241  0.00  0.00    +0.000 A 
ATOM      7  C   UNL     1     111.964 129.300 137.955  0.00  0.00    +0.000 A 
ATOM      8  C   UNL     1     112.563 128.236 138.698  0.00  0.00    +0.000 A 
ATOM      9  C   UNL     1     112.469 129.043 138.555  0.00  0.00    +0.000 A 
ATOM     10  C   UNL     1     113.086 127.956 139.319  0.00  0.00    +0.000 A 
ATOM     11  C   UNL     1     113.517 128.525 139.799  0.00  0.00    +0.000 A 
ATOM     12  C   UNL     1     113.419 129.365 139.650  0.00  0.00    +0.000 A 
ENDROOT
BRANCH   4  17
ATOM     13  O   UNL     1     110.477 127.158 137.403  0.00  0.00    +0.000 OA
ATOM     14  O   UNL     1     112.347 127.308 136.288  0.00  0.00    +0.000 OA
ATOM     15  O   UNL     1     111.527 126.206 135.374  0.00  0.00    +0.000 OA
ATOM     16  O   UNL     1     110.007 125.738 135.813  0.00  0.00    +0.000 OA
ATOM     17  C   UNL     1     111.236 127.391 137.184  0.00  0.00    +0.000 C 
ATOM     18  C   UNL     1     111.587 127.074 136.508  0.00  0.00    +0.000 C 
ATOM     19  C   UNL     1     111.177 126.523 136.051  0.00  0.00    +0.000 C 
ATOM     20  C   UNL     1     110.417 126.290 136.270  0.00  0.00    +0.000 C 
ATOM     21  C   UNL     1     110.067 126.607 136.947  0.00  0.00    +0.000 C 
BRANCH  21  23
ATOM     22  O   UNL     1     109.013 126.566 137.912  0.00  0.00    +0.000 OA
ATOM     23  C   UNL     1     109.307 126.373 137.165  0.00  0.00    +0.000 C 
ENDBRANCH  21  23
ENDBRANCH   4  17
BRANCH  12  25
ATOM     24  O   UNL     1     115.056 131.576 141.472  0.00  0.00    +0.000 OA
ATOM     25  C   UNL     1     113.828 129.918 140.105  0.00  0.00    +0.000 A 
ATOM     26  C   UNL     1     113.560 130.110 140.861  0.00  0.00    +0.000 A 
ATOM     27  C   UNL     1     114.507 130.279 139.805  0.00  0.00    +0.000 A 
ATOM     28  C   UNL     1     113.969 130.663 141.317  0.00  0.00    +0.000 A 
ATOM     29  C   UNL     1     114.916 130.831 140.260  0.00  0.00    +0.000 A 
ATOM     30  C   UNL     1     114.648 131.023 141.016  0.00  0.00    +0.000 A 
ENDBRANCH  12  25
BRANCH   5  31
ATOM     31  O   UNL     1     111.048 129.006 136.899  0.00  0.00    +0.000 OA
BRANCH  31  39
ATOM     32  O   UNL     1     110.133 129.783 137.674  0.00  0.00    +0.000 OA
ATOM     33  O   UNL     1     110.199 131.568 135.961  0.00  0.00    +0.000 OA
ATOM     34  O   UNL     1     111.092 130.196 135.757  0.00  0.00    +0.000 OA
ATOM     35  O   UNL     1     109.262 131.751 137.307  0.00  0.00    +0.000 OA
ATOM     36  C   UNL     1     110.177 130.973 136.532  0.00  0.00    +0.000 C 
ATOM     37  C   UNL     1     110.623 130.287 136.430  0.00  0.00    +0.000 C 
ATOM     38  C   UNL     1     109.708 131.065 137.205  0.00  0.00    +0.000 C 
ATOM     39  C   UNL     1     110.601 129.692 137.001  0.00  0.00    +0.000 C 
ATOM     40  C   UNL     1     109.687 130.470 137.776  0.00  0.00    +0.000 C 
BRANCH  40  41
ATOM     41  C   UNL     1     109.219 130.560 138.449  0.00  0.00    +0.000 C 
BRANCH  41  42
ATOM     42  O   UNL     1     108.952 129.895 138.859  0.00  0.00    +0.000 OA
BRANCH  42  44
ATOM     43  O   UNL     1     108.117 130.283 139.951  0.00  0.00    +0.000 OA
ATOM     44  C   UNL     1     108.812 129.939 139.670  0.00  0.00    +0.000 C 
BRANCH  44  45
ATOM     45  C   UNL     1     109.368 129.639 140.202  0.00  0.00    +0.000 C 
ATOM     46  C   UNL     1     109.136 129.098 140.779  0.00  0.00    +0.000 C 
BRANCH  46  48
ATOM     47  O   UNL     1     111.359 127.899 142.903  0.00  0.00    +0.000 OA
ATOM     48  C   UNL     1     109.692 128.798 141.311  0.00  0.00    +0.000 A 
ATOM     49  C   UNL     1     109.924 128.008 141.262  0.00  0.00    +0.000 A 
ATOM     50  C   UNL     1     110.016 129.289 141.890  0.00  0.00    +0.000 A 
ATOM     51  C   UNL     1     110.571 128.989 142.420  0.00  0.00    +0.000 A 
ATOM     52  C   UNL     1     110.479 127.709 141.793  0.00  0.00    +0.000 A 
ATOM     53  C   UNL     1     110.803 128.199 142.372  0.00  0.00    +0.000 A 
BRANCH  51  54
ATOM     54  O   UNL     1     110.895 129.479 142.999  0.00  0.00    +0.000 OA
ATOM     55  C   UNL     1     110.423 130.042 143.375  0.00  0.00    +0.000 C 
ENDBRANCH  51  54
BRANCH  52  56
ATOM     56  O   UNL     1     110.711 126.918 141.745  0.00  0.00    +0.000 OA
ATOM     57  C   UNL     1     110.305 126.398 141.250  0.00  0.00    +0.000 C 
ENDBRANCH  52  56
ENDBRANCH  46  48
ENDBRANCH  44  45
ENDBRANCH  42  44
ENDBRANCH  41  42
ENDBRANCH  40  41
ENDBRANCH  31  39
ENDBRANCH   5  31
TORSDOF 12
ENDMDL
