MODEL 1
REMARK VINA RESULT:      -8.4      0.000      0.000
REMARK  Name = 24013839
REMARK  7 active torsions:
REMARK  status: ('A' for Active; 'I' for Inactive)
REMARK    1  A    between atoms: O_2  and  C_14
REMARK    2  A    between atoms: O_2  and  C_16
REMARK    3  A    between atoms: C_13  and  C_15
REMARK    4  A    between atoms: C_19  and  C_23
REMARK    5  A    between atoms: C_22  and  C_23
REMARK    6  A    between atoms: C_22  and  C_24
REMARK    7  A    between atoms: C_24  and  C_25
REMARK                            x       y       z     vdW  Elec       q    Type
REMARK                         _______ _______ _______ _____ _____    ______ ____
ROOT
ATOM      1  O   UNL     1     109.903 125.886 136.884  0.00  0.00    +0.000 OA
ATOM      2  C   UNL     1     109.672 127.421 135.349  0.00  0.00    +0.000 A 
ATOM      3  C   UNL     1     109.559 126.990 136.044  0.00  0.00    +0.000 A 
ATOM      4  C   UNL     1     110.240 127.180 134.801  0.00  0.00    +0.000 A 
ATOM      5  C   UNL     1     110.584 126.077 135.642  0.00  0.00    +0.000 A 
ATOM      6  C   UNL     1     110.015 126.318 136.190  0.00  0.00    +0.000 A 
ATOM      7  C   UNL     1     110.695 126.509 134.948  0.00  0.00    +0.000 A 
ENDROOT
BRANCH   5   9
ATOM      8  O   UNL     1     110.741 124.657 135.606  0.00  0.00    +0.000 OA
ATOM      9  C   UNL     1     111.039 125.405 135.788  0.00  0.00    +0.000 C 
BRANCH   9  10
ATOM     10  C   UNL     1     111.792 125.481 136.117  0.00  0.00    +0.000 C 
BRANCH  10  11
ATOM     11  C   UNL     1     112.310 124.839 136.112  0.00  0.00    +0.000 C 
BRANCH  11  13
ATOM     12  O   UNL     1     115.195 125.037 137.703  0.00  0.00    +0.000 OA
ATOM     13  C   UNL     1     113.032 124.889 136.510  0.00  0.00    +0.000 A 
ATOM     14  C   UNL     1     113.662 125.302 136.172  0.00  0.00    +0.000 A 
ATOM     15  C   UNL     1     113.123 124.526 137.245  0.00  0.00    +0.000 A 
ATOM     16  C   UNL     1     114.382 125.351 136.570  0.00  0.00    +0.000 A 
ATOM     17  C   UNL     1     113.845 124.575 137.643  0.00  0.00    +0.000 A 
ATOM     18  C   UNL     1     114.474 124.988 137.305  0.00  0.00    +0.000 A 
ENDBRANCH  11  13
ENDBRANCH  10  11
ENDBRANCH   9  10
ENDBRANCH   5   9
BRANCH   2  19
ATOM     19  O   UNL     1     109.216 128.093 135.202  0.00  0.00    +0.000 OA
BRANCH  19  28
ATOM     20  O   UNL     1     110.143 129.040 135.738  0.00  0.00    +0.000 OA
ATOM     21  O   UNL     1     108.260 130.386 136.614  0.00  0.00    +0.000 OA
ATOM     22  O   UNL     1     109.814 130.885 136.857  0.00  0.00    +0.000 OA
ATOM     23  O   UNL     1     107.961 128.990 135.787  0.00  0.00    +0.000 OA
ATOM     24  C   UNL     1     108.887 129.938 136.322  0.00  0.00    +0.000 C 
ATOM     25  C   UNL     1     109.664 130.187 136.443  0.00  0.00    +0.000 C 
ATOM     26  C   UNL     1     108.738 129.240 135.908  0.00  0.00    +0.000 C 
ATOM     27  C   UNL     1     110.291 129.738 136.151  0.00  0.00    +0.000 C 
ATOM     28  C   UNL     1     109.366 128.791 135.616  0.00  0.00    +0.000 C 
BRANCH  27  30
ATOM     29  O   UNL     1     111.571 130.103 135.628  0.00  0.00    +0.000 OA
ATOM     30  C   UNL     1     111.069 129.987 136.273  0.00  0.00    +0.000 C 
ENDBRANCH  27  30
ENDBRANCH  19  28
ENDBRANCH   2  19
TORSDOF 7
ENDMDL
MODEL 2
REMARK VINA RESULT:      -8.3      7.227      8.798
REMARK  Name = 24013839
REMARK  7 active torsions:
REMARK  status: ('A' for Active; 'I' for Inactive)
REMARK    1  A    between atoms: O_2  and  C_14
REMARK    2  A    between atoms: O_2  and  C_16
REMARK    3  A    between atoms: C_13  and  C_15
REMARK    4  A    between atoms: C_19  and  C_23
REMARK    5  A    between atoms: C_22  and  C_23
REMARK    6  A    between atoms: C_22  and  C_24
REMARK    7  A    between atoms: C_24  and  C_25
REMARK                            x       y       z     vdW  Elec       q    Type
REMARK                         _______ _______ _______ _____ _____    ______ ____
ROOT
ATOM      1  O   UNL     1     106.811 124.987 139.812  0.00  0.00    +0.000 OA
ATOM      2  C   UNL     1     106.556 125.444 141.931  0.00  0.00    +0.000 A 
ATOM      3  C   UNL     1     106.825 125.484 141.152  0.00  0.00    +0.000 A 
ATOM      4  C   UNL     1     106.006 124.871 142.149  0.00  0.00    +0.000 A 
ATOM      5  C   UNL     1     105.991 124.374 140.809  0.00  0.00    +0.000 A 
ATOM      6  C   UNL     1     106.543 124.949 140.591  0.00  0.00    +0.000 A 
ATOM      7  C   UNL     1     105.723 124.336 141.588  0.00  0.00    +0.000 A 
ENDROOT
BRANCH   5   9
ATOM      8  O   UNL     1     106.165 123.185 140.037  0.00  0.00    +0.000 OA
ATOM      9  C   UNL     1     105.709 123.839 140.248  0.00  0.00    +0.000 C 
BRANCH   9  10
ATOM     10  C   UNL     1     104.971 123.958 139.900  0.00  0.00    +0.000 C 
BRANCH  10  11
ATOM     11  C   UNL     1     104.659 123.388 139.392  0.00  0.00    +0.000 C 
BRANCH  11  13
ATOM     12  O   UNL     1     101.713 123.871 137.984  0.00  0.00    +0.000 OA
ATOM     13  C   UNL     1     103.922 123.509 139.039  0.00  0.00    +0.000 A 
ATOM     14  C   UNL     1     103.876 123.776 138.260  0.00  0.00    +0.000 A 
ATOM     15  C   UNL     1     103.232 123.363 139.467  0.00  0.00    +0.000 A 
ATOM     16  C   UNL     1     103.140 123.896 137.908  0.00  0.00    +0.000 A 
ATOM     17  C   UNL     1     102.495 123.484 139.115  0.00  0.00    +0.000 A 
ATOM     18  C   UNL     1     102.449 123.751 138.335  0.00  0.00    +0.000 A 
ENDBRANCH  11  13
ENDBRANCH  10  11
ENDBRANCH   9  10
ENDBRANCH   5   9
BRANCH   2  19
ATOM     19  O   UNL     1     106.838 125.980 142.492  0.00  0.00    +0.000 OA
BRANCH  19  28
ATOM     20  O   UNL     1     105.882 127.010 142.236  0.00  0.00    +0.000 OA
ATOM     21  O   UNL     1     105.822 127.554 144.650  0.00  0.00    +0.000 OA
ATOM     22  O   UNL     1     104.886 128.403 143.589  0.00  0.00    +0.000 OA
ATOM     23  O   UNL     1     106.798 126.342 144.101  0.00  0.00    +0.000 OA
ATOM     24  C   UNL     1     105.842 127.372 143.845  0.00  0.00    +0.000 C 
ATOM     25  C   UNL     1     105.375 127.797 143.316  0.00  0.00    +0.000 C 
ATOM     26  C   UNL     1     106.330 126.767 143.571  0.00  0.00    +0.000 C 
ATOM     27  C   UNL     1     105.395 127.616 142.511  0.00  0.00    +0.000 C 
ATOM     28  C   UNL     1     106.350 126.586 142.766  0.00  0.00    +0.000 C 
BRANCH  27  30
ATOM     29  O   UNL     1     105.267 128.384 141.312  0.00  0.00    +0.000 OA
ATOM     30  C   UNL     1     104.926 128.041 141.980  0.00  0.00    +0.000 C 
ENDBRANCH  27  30
ENDBRANCH  19  28
ENDBRANCH   2  19
TORSDOF 7
ENDMDL
MODEL 3
REMARK VINA RESULT:      -8.2      1.705      5.482
REMARK  Name = 24013839
REMARK  7 active torsions:
REMARK  status: ('A' for Active; 'I' for Inactive)
REMARK    1  A    between atoms: O_2  and  C_14
REMARK    2  A    between atoms: O_2  and  C_16
REMARK    3  A    between atoms: C_13  and  C_15
REMARK    4  A    between atoms: C_19  and  C_23
REMARK    5  A    between atoms: C_22  and  C_23
REMARK    6  A    between atoms: C_22  and  C_24
REMARK    7  A    between atoms: C_24  and  C_25
REMARK                            x       y       z     vdW  Elec       q    Type
REMARK                         _______ _______ _______ _____ _____    ______ ____
ROOT
ATOM      1  O   UNL     1     108.224 128.442 136.257  0.00  0.00    +0.000 OA
ATOM      2  C   UNL     1     109.851 127.909 134.903  0.00  0.00    +0.000 A 
ATOM      3  C   UNL     1     109.227 127.837 135.437  0.00  0.00    +0.000 A 
ATOM      4  C   UNL     1     110.098 128.655 134.654  0.00  0.00    +0.000 A 
ATOM      5  C   UNL     1     109.096 129.260 135.474  0.00  0.00    +0.000 A 
ATOM      6  C   UNL     1     108.849 128.513 135.723  0.00  0.00    +0.000 A 
ATOM      7  C   UNL     1     109.721 129.331 134.940  0.00  0.00    +0.000 A 
ENDROOT
BRANCH   5   9
ATOM      8  O   UNL     1     107.936 130.090 135.549  0.00  0.00    +0.000 OA
ATOM      9  C   UNL     1     108.718 129.936 135.760  0.00  0.00    +0.000 C 
BRANCH   9  10
ATOM     10  C   UNL     1     109.123 130.456 136.255  0.00  0.00    +0.000 C 
BRANCH  10  11
ATOM     11  C   UNL     1     108.796 131.191 136.437  0.00  0.00    +0.000 C 
BRANCH  11  13
ATOM     12  O   UNL     1     110.342 133.211 138.540  0.00  0.00    +0.000 OA
ATOM     13  C   UNL     1     109.183 131.696 136.963  0.00  0.00    +0.000 A 
ATOM     14  C   UNL     1     109.647 132.315 136.675  0.00  0.00    +0.000 A 
ATOM     15  C   UNL     1     109.105 131.583 137.776  0.00  0.00    +0.000 A 
ATOM     16  C   UNL     1     110.033 132.819 137.200  0.00  0.00    +0.000 A 
ATOM     17  C   UNL     1     109.491 132.088 138.302  0.00  0.00    +0.000 A 
ATOM     18  C   UNL     1     109.956 132.707 138.014  0.00  0.00    +0.000 A 
ENDBRANCH  11  13
ENDBRANCH  10  11
ENDBRANCH   9  10
ENDBRANCH   5   9
BRANCH   2  19
ATOM     19  O   UNL     1     110.229 127.233 134.617  0.00  0.00    +0.000 OA
BRANCH  19  28
ATOM     20  O   UNL     1     111.321 127.177 135.538  0.00  0.00    +0.000 OA
ATOM     21  O   UNL     1     111.018 124.730 135.747  0.00  0.00    +0.000 OA
ATOM     22  O   UNL     1     112.211 125.489 136.597  0.00  0.00    +0.000 OA
ATOM     23  O   UNL     1     110.027 125.602 134.757  0.00  0.00    +0.000 OA
ATOM     24  C   UNL     1     111.119 125.546 135.677  0.00  0.00    +0.000 C 
ATOM     25  C   UNL     1     111.715 125.925 136.102  0.00  0.00    +0.000 C 
ATOM     26  C   UNL     1     110.624 125.981 135.183  0.00  0.00    +0.000 C 
ATOM     27  C   UNL     1     111.816 126.741 136.032  0.00  0.00    +0.000 C 
ATOM     28  C   UNL     1     110.725 126.797 135.113  0.00  0.00    +0.000 C 
BRANCH  27  30
ATOM     29  O   UNL     1     112.926 127.641 136.074  0.00  0.00    +0.000 OA
ATOM     30  C   UNL     1     112.413 127.121 136.458  0.00  0.00    +0.000 C 
ENDBRANCH  27  30
ENDBRANCH  19  28
ENDBRANCH   2  19
TORSDOF 7
ENDMDL
MODEL 4
REMARK VINA RESULT:      -8.2      0.937      1.352
REMARK  Name = 24013839
REMARK  7 active torsions:
REMARK  status: ('A' for Active; 'I' for Inactive)
REMARK    1  A    between atoms: O_2  and  C_14
REMARK    2  A    between atoms: O_2  and  C_16
REMARK    3  A    between atoms: C_13  and  C_15
REMARK    4  A    between atoms: C_19  and  C_23
REMARK    5  A    between atoms: C_22  and  C_23
REMARK    6  A    between atoms: C_22  and  C_24
REMARK    7  A    between atoms: C_24  and  C_25
REMARK                            x       y       z     vdW  Elec       q    Type
REMARK                         _______ _______ _______ _____ _____    ______ ____
ROOT
ATOM      1  O   UNL     1     108.773 126.563 136.273  0.00  0.00    +0.000 OA
ATOM      2  C   UNL     1     109.230 128.457 135.289  0.00  0.00    +0.000 A 
ATOM      3  C   UNL     1     108.872 127.902 135.783  0.00  0.00    +0.000 A 
ATOM      4  C   UNL     1     109.846 128.229 134.791  0.00  0.00    +0.000 A 
ATOM      5  C   UNL     1     109.747 126.890 135.280  0.00  0.00    +0.000 A 
ATOM      6  C   UNL     1     109.130 127.119 135.779  0.00  0.00    +0.000 A 
ATOM      7  C   UNL     1     110.105 127.446 134.786  0.00  0.00    +0.000 A 
ENDROOT
BRANCH   5   9
ATOM      8  O   UNL     1     109.585 125.536 134.853  0.00  0.00    +0.000 OA
ATOM      9  C   UNL     1     110.005 126.107 135.276  0.00  0.00    +0.000 C 
BRANCH   9  10
ATOM     10  C   UNL     1     110.683 125.894 135.694  0.00  0.00    +0.000 C 
BRANCH  10  11
ATOM     11  C   UNL     1     110.983 125.128 135.632  0.00  0.00    +0.000 C 
BRANCH  11  13
ATOM     12  O   UNL     1     113.651 124.253 137.366  0.00  0.00    +0.000 OA
ATOM     13  C   UNL     1     111.650 124.909 136.065  0.00  0.00    +0.000 A 
ATOM     14  C   UNL     1     111.676 124.174 136.440  0.00  0.00    +0.000 A 
ATOM     15  C   UNL     1     112.291 125.425 136.124  0.00  0.00    +0.000 A 
ATOM     16  C   UNL     1     112.343 123.956 136.873  0.00  0.00    +0.000 A 
ATOM     17  C   UNL     1     112.958 125.206 136.558  0.00  0.00    +0.000 A 
ATOM     18  C   UNL     1     112.984 124.471 136.932  0.00  0.00    +0.000 A 
ENDBRANCH  11  13
ENDBRANCH  10  11
ENDBRANCH   9  10
ENDBRANCH   5   9
BRANCH   2  19
ATOM     19  O   UNL     1     108.972 129.241 135.293  0.00  0.00    +0.000 OA
BRANCH  19  28
ATOM     20  O   UNL     1     109.962 129.776 136.174  0.00  0.00    +0.000 OA
ATOM     21  O   UNL     1     108.232 131.163 137.275  0.00  0.00    +0.000 OA
ATOM     22  O   UNL     1     109.798 131.237 137.788  0.00  0.00    +0.000 OA
ATOM     23  O   UNL     1     107.819 130.165 136.027  0.00  0.00    +0.000 OA
ATOM     24  C   UNL     1     108.809 130.701 136.908  0.00  0.00    +0.000 C 
ATOM     25  C   UNL     1     109.591 130.738 137.164  0.00  0.00    +0.000 C 
ATOM     26  C   UNL     1     108.602 130.202 136.285  0.00  0.00    +0.000 C 
ATOM     27  C   UNL     1     110.168 130.276 136.797  0.00  0.00    +0.000 C 
ATOM     28  C   UNL     1     109.179 129.740 135.918  0.00  0.00    +0.000 C 
BRANCH  27  30
ATOM     29  O   UNL     1     111.558 130.450 136.512  0.00  0.00    +0.000 OA
ATOM     30  C   UNL     1     110.952 130.312 137.054  0.00  0.00    +0.000 C 
ENDBRANCH  27  30
ENDBRANCH  19  28
ENDBRANCH   2  19
TORSDOF 7
ENDMDL
MODEL 5
REMARK VINA RESULT:      -8.1      4.633      5.601
REMARK  Name = 24013839
REMARK  7 active torsions:
REMARK  status: ('A' for Active; 'I' for Inactive)
REMARK    1  A    between atoms: O_2  and  C_14
REMARK    2  A    between atoms: O_2  and  C_16
REMARK    3  A    between atoms: C_13  and  C_15
REMARK    4  A    between atoms: C_19  and  C_23
REMARK    5  A    between atoms: C_22  and  C_23
REMARK    6  A    between atoms: C_22  and  C_24
REMARK    7  A    between atoms: C_24  and  C_25
REMARK                            x       y       z     vdW  Elec       q    Type
REMARK                         _______ _______ _______ _____ _____    ______ ____
ROOT
ATOM      1  O   UNL     1     113.920 126.579 140.916  0.00  0.00    +0.000 OA
ATOM      2  C   UNL     1     113.460 128.712 140.858  0.00  0.00    +0.000 A 
ATOM      3  C   UNL     1     113.759 127.986 141.111  0.00  0.00    +0.000 A 
ATOM      4  C   UNL     1     113.024 128.759 140.160  0.00  0.00    +0.000 A 
ATOM      5  C   UNL     1     113.185 127.352 139.965  0.00  0.00    +0.000 A 
ATOM      6  C   UNL     1     113.622 127.306 140.665  0.00  0.00    +0.000 A 
ATOM      7  C   UNL     1     112.887 128.079 139.714  0.00  0.00    +0.000 A 
ENDROOT
BRANCH   5   9
ATOM      8  O   UNL     1     112.433 126.162 139.725  0.00  0.00    +0.000 OA
ATOM      9  C   UNL     1     113.047 126.673 139.519  0.00  0.00    +0.000 C 
BRANCH   9  10
ATOM     10  C   UNL     1     113.524 126.504 138.868  0.00  0.00    +0.000 C 
BRANCH  10  11
ATOM     11  C   UNL     1     113.294 125.924 138.327  0.00  0.00    +0.000 C 
BRANCH  11  13
ATOM     12  O   UNL     1     115.270 125.144 135.802  0.00  0.00    +0.000 OA
ATOM     13  C   UNL     1     113.788 125.729 137.695  0.00  0.00    +0.000 A 
ATOM     14  C   UNL     1     113.753 126.163 136.995  0.00  0.00    +0.000 A 
ATOM     15  C   UNL     1     114.317 125.100 137.766  0.00  0.00    +0.000 A 
ATOM     16  C   UNL     1     114.246 125.968 136.364  0.00  0.00    +0.000 A 
ATOM     17  C   UNL     1     114.811 124.905 137.134  0.00  0.00    +0.000 A 
ATOM     18  C   UNL     1     114.776 125.339 136.433  0.00  0.00    +0.000 A 
ENDBRANCH  11  13
ENDBRANCH  10  11
ENDBRANCH   9  10
ENDBRANCH   5   9
BRANCH   2  19
ATOM     19  O   UNL     1     113.598 129.392 141.305  0.00  0.00    +0.000 OA
BRANCH  19  28
ATOM     20  O   UNL     1     112.490 129.221 142.191  0.00  0.00    +0.000 OA
ATOM     21  O   UNL     1     112.177 131.675 142.274  0.00  0.00    +0.000 OA
ATOM     22  O   UNL     1     111.173 130.685 143.132  0.00  0.00    +0.000 OA
ATOM     23  O   UNL     1     113.390 131.028 141.361  0.00  0.00    +0.000 OA
ATOM     24  C   UNL     1     112.281 130.857 142.246  0.00  0.00    +0.000 C 
ATOM     25  C   UNL     1     111.780 130.363 142.675  0.00  0.00    +0.000 C 
ATOM     26  C   UNL     1     112.887 130.534 141.790  0.00  0.00    +0.000 C 
ATOM     27  C   UNL     1     111.884 129.545 142.647  0.00  0.00    +0.000 C 
ATOM     28  C   UNL     1     112.991 129.716 141.762  0.00  0.00    +0.000 C 
BRANCH  27  30
ATOM     29  O   UNL     1     111.696 128.510 143.616  0.00  0.00    +0.000 OA
ATOM     30  C   UNL     1     111.381 129.050 143.076  0.00  0.00    +0.000 C 
ENDBRANCH  27  30
ENDBRANCH  19  28
ENDBRANCH   2  19
TORSDOF 7
ENDMDL
MODEL 6
REMARK VINA RESULT:      -8.1      4.300      5.193
REMARK  Name = 24013839
REMARK  7 active torsions:
REMARK  status: ('A' for Active; 'I' for Inactive)
REMARK    1  A    between atoms: O_2  and  C_14
REMARK    2  A    between atoms: O_2  and  C_16
REMARK    3  A    between atoms: C_13  and  C_15
REMARK    4  A    between atoms: C_19  and  C_23
REMARK    5  A    between atoms: C_22  and  C_23
REMARK    6  A    between atoms: C_22  and  C_24
REMARK    7  A    between atoms: C_24  and  C_25
REMARK                            x       y       z     vdW  Elec       q    Type
REMARK                         _______ _______ _______ _____ _____    ______ ____
ROOT
ATOM      1  O   UNL     1     111.344 127.561 139.384  0.00  0.00    +0.000 OA
ATOM      2  C   UNL     1     112.610 127.916 141.126  0.00  0.00    +0.000 A 
ATOM      3  C   UNL     1     112.014 128.010 140.564  0.00  0.00    +0.000 A 
ATOM      4  C   UNL     1     113.132 127.280 141.072  0.00  0.00    +0.000 A 
ATOM      5  C   UNL     1     112.462 126.830 139.892  0.00  0.00    +0.000 A 
ATOM      6  C   UNL     1     111.940 127.467 139.947  0.00  0.00    +0.000 A 
ATOM      7  C   UNL     1     113.058 126.737 140.455  0.00  0.00    +0.000 A 
ENDROOT
BRANCH   5   9
ATOM      8  O   UNL     1     111.722 125.802 139.231  0.00  0.00    +0.000 OA
ATOM      9  C   UNL     1     112.388 126.288 139.275  0.00  0.00    +0.000 C 
BRANCH   9  10
ATOM     10  C   UNL     1     112.979 126.231 138.704  0.00  0.00    +0.000 C 
BRANCH  10  11
ATOM     11  C   UNL     1     112.934 125.649 138.120  0.00  0.00    +0.000 C 
BRANCH  11  13
ATOM     12  O   UNL     1     115.355 125.348 135.898  0.00  0.00    +0.000 OA
ATOM     13  C   UNL     1     113.540 125.574 137.564  0.00  0.00    +0.000 A 
ATOM     14  C   UNL     1     114.092 124.965 137.636  0.00  0.00    +0.000 A 
ATOM     15  C   UNL     1     113.592 126.107 136.938  0.00  0.00    +0.000 A 
ATOM     16  C   UNL     1     114.697 124.890 137.080  0.00  0.00    +0.000 A 
ATOM     17  C   UNL     1     114.198 126.032 136.382  0.00  0.00    +0.000 A 
ATOM     18  C   UNL     1     114.750 125.423 136.453  0.00  0.00    +0.000 A 
ENDBRANCH  11  13
ENDBRANCH  10  11
ENDBRANCH   9  10
ENDBRANCH   5   9
BRANCH   2  19
ATOM     19  O   UNL     1     112.684 128.458 141.743  0.00  0.00    +0.000 OA
BRANCH  19  28
ATOM     20  O   UNL     1     113.684 129.267 141.120  0.00  0.00    +0.000 OA
ATOM     21  O   UNL     1     112.692 131.287 142.148  0.00  0.00    +0.000 OA
ATOM     22  O   UNL     1     114.023 131.422 141.182  0.00  0.00    +0.000 OA
ATOM     23  O   UNL     1     112.023 129.805 142.429  0.00  0.00    +0.000 OA
ATOM     24  C   UNL     1     113.023 130.614 141.805  0.00  0.00    +0.000 C 
ATOM     25  C   UNL     1     113.688 130.681 141.323  0.00  0.00    +0.000 C 
ATOM     26  C   UNL     1     112.688 129.874 141.946  0.00  0.00    +0.000 C 
ATOM     27  C   UNL     1     114.018 130.008 140.980  0.00  0.00    +0.000 C 
ATOM     28  C   UNL     1     113.019 129.200 141.603  0.00  0.00    +0.000 C 
BRANCH  27  30
ATOM     29  O   UNL     1     115.364 129.640 140.668  0.00  0.00    +0.000 OA
ATOM     30  C   UNL     1     114.684 130.075 140.497  0.00  0.00    +0.000 C 
ENDBRANCH  27  30
ENDBRANCH  19  28
ENDBRANCH   2  19
TORSDOF 7
ENDMDL
MODEL 7
REMARK VINA RESULT:      -8.0      1.594      2.610
REMARK  Name = 24013839
REMARK  7 active torsions:
REMARK  status: ('A' for Active; 'I' for Inactive)
REMARK    1  A    between atoms: O_2  and  C_14
REMARK    2  A    between atoms: O_2  and  C_16
REMARK    3  A    between atoms: C_13  and  C_15
REMARK    4  A    between atoms: C_19  and  C_23
REMARK    5  A    between atoms: C_22  and  C_23
REMARK    6  A    between atoms: C_22  and  C_24
REMARK    7  A    between atoms: C_24  and  C_25
REMARK                            x       y       z     vdW  Elec       q    Type
REMARK                         _______ _______ _______ _____ _____    ______ ____
ROOT
ATOM      1  O   UNL     1     112.727 129.568 136.832  0.00  0.00    +0.000 OA
ATOM      2  C   UNL     1     111.436 129.411 135.079  0.00  0.00    +0.000 A 
ATOM      3  C   UNL     1     111.743 129.668 135.800  0.00  0.00    +0.000 A 
ATOM      4  C   UNL     1     111.804 128.798 134.668  0.00  0.00    +0.000 A 
ATOM      5  C   UNL     1     112.788 128.698 135.700  0.00  0.00    +0.000 A 
ATOM      6  C   UNL     1     112.419 129.312 136.111  0.00  0.00    +0.000 A 
ATOM      7  C   UNL     1     112.480 128.442 134.979  0.00  0.00    +0.000 A 
ENDROOT
BRANCH   5   9
ATOM      8  O   UNL     1     114.172 128.764 136.047  0.00  0.00    +0.000 OA
ATOM      9  C   UNL     1     113.464 128.342 136.010  0.00  0.00    +0.000 C 
BRANCH   9  10
ATOM     10  C   UNL     1     113.432 127.564 136.283  0.00  0.00    +0.000 C 
BRANCH  10  11
ATOM     11  C   UNL     1     114.125 127.178 136.509  0.00  0.00    +0.000 C 
BRANCH  11  13
ATOM     12  O   UNL     1     114.027 124.001 137.398  0.00  0.00    +0.000 OA
ATOM     13  C   UNL     1     114.101 126.383 136.731  0.00  0.00    +0.000 A 
ATOM     14  C   UNL     1     114.496 125.816 136.281  0.00  0.00    +0.000 A 
ATOM     15  C   UNL     1     113.680 126.156 137.404  0.00  0.00    +0.000 A 
ATOM     16  C   UNL     1     114.472 125.023 136.503  0.00  0.00    +0.000 A 
ATOM     17  C   UNL     1     113.656 125.361 137.626  0.00  0.00    +0.000 A 
ATOM     18  C   UNL     1     114.052 124.795 137.176  0.00  0.00    +0.000 A 
ENDBRANCH  11  13
ENDBRANCH  10  11
ENDBRANCH   9  10
ENDBRANCH   5   9
BRANCH   2  19
ATOM     19  O   UNL     1     110.759 129.767 134.769  0.00  0.00    +0.000 OA
BRANCH  19  28
ATOM     20  O   UNL     1     109.831 128.849 135.349  0.00  0.00    +0.000 OA
ATOM     21  O   UNL     1     108.188 130.681 135.618  0.00  0.00    +0.000 OA
ATOM     22  O   UNL     1     107.807 129.152 136.109  0.00  0.00    +0.000 OA
ATOM     23  O   UNL     1     109.664 130.988 134.948  0.00  0.00    +0.000 OA
ATOM     24  C   UNL     1     108.736 130.070 135.529  0.00  0.00    +0.000 C 
ATOM     25  C   UNL     1     108.545 129.307 135.774  0.00  0.00    +0.000 C 
ATOM     26  C   UNL     1     109.473 130.224 135.194  0.00  0.00    +0.000 C 
ATOM     27  C   UNL     1     109.093 128.696 135.684  0.00  0.00    +0.000 C 
ATOM     28  C   UNL     1     110.021 129.613 135.104  0.00  0.00    +0.000 C 
BRANCH  27  30
ATOM     29  O   UNL     1     108.958 127.302 135.399  0.00  0.00    +0.000 OA
ATOM     30  C   UNL     1     108.902 127.931 135.929  0.00  0.00    +0.000 C 
ENDBRANCH  27  30
ENDBRANCH  19  28
ENDBRANCH   2  19
TORSDOF 7
ENDMDL
MODEL 8
REMARK VINA RESULT:      -8.0      3.674      5.243
REMARK  Name = 24013839
REMARK  7 active torsions:
REMARK  status: ('A' for Active; 'I' for Inactive)
REMARK    1  A    between atoms: O_2  and  C_14
REMARK    2  A    between atoms: O_2  and  C_16
REMARK    3  A    between atoms: C_13  and  C_15
REMARK    4  A    between atoms: C_19  and  C_23
REMARK    5  A    between atoms: C_22  and  C_23
REMARK    6  A    between atoms: C_22  and  C_24
REMARK    7  A    between atoms: C_24  and  C_25
REMARK                            x       y       z     vdW  Elec       q    Type
REMARK                         _______ _______ _______ _____ _____    ______ ____
ROOT
ATOM      1  O   UNL     1     113.657 125.593 138.277  0.00  0.00    +0.000 OA
ATOM      2  C   UNL     1     113.257 127.251 139.638  0.00  0.00    +0.000 A 
ATOM      3  C   UNL     1     113.486 126.509 139.361  0.00  0.00    +0.000 A 
ATOM      4  C   UNL     1     112.970 127.819 139.113  0.00  0.00    +0.000 A 
ATOM      5  C   UNL     1     113.142 126.902 138.030  0.00  0.00    +0.000 A 
ATOM      6  C   UNL     1     113.429 126.334 138.556  0.00  0.00    +0.000 A 
ATOM      7  C   UNL     1     112.913 127.644 138.309  0.00  0.00    +0.000 A 
ENDROOT
BRANCH   5   9
ATOM      8  O   UNL     1     113.763 126.723 136.756  0.00  0.00    +0.000 OA
ATOM      9  C   UNL     1     113.085 126.728 137.226  0.00  0.00    +0.000 C 
BRANCH   9  10
ATOM     10  C   UNL     1     112.350 126.559 136.892  0.00  0.00    +0.000 C 
BRANCH  10  11
ATOM     11  C   UNL     1     112.277 126.480 136.074  0.00  0.00    +0.000 C 
BRANCH  11  13
ATOM     12  O   UNL     1     109.357 125.710 134.744  0.00  0.00    +0.000 OA
ATOM     13  C   UNL     1     111.546 126.287 135.741  0.00  0.00    +0.000 A 
ATOM     14  C   UNL     1     111.270 125.511 135.774  0.00  0.00    +0.000 A 
ATOM     15  C   UNL     1     111.093 126.872 135.376  0.00  0.00    +0.000 A 
ATOM     16  C   UNL     1     110.540 125.318 135.442  0.00  0.00    +0.000 A 
ATOM     17  C   UNL     1     110.363 126.679 135.043  0.00  0.00    +0.000 A 
ATOM     18  C   UNL     1     110.086 125.902 135.076  0.00  0.00    +0.000 A 
ENDBRANCH  11  13
ENDBRANCH  10  11
ENDBRANCH   9  10
ENDBRANCH   5   9
BRANCH   2  19
ATOM     19  O   UNL     1     113.314 127.426 140.443  0.00  0.00    +0.000 OA
BRANCH  19  28
ATOM     20  O   UNL     1     112.002 126.982 140.793  0.00  0.00    +0.000 OA
ATOM     21  O   UNL     1     111.835 128.797 142.468  0.00  0.00    +0.000 OA
ATOM     22  O   UNL     1     110.578 127.748 142.260  0.00  0.00    +0.000 OA
ATOM     23  O   UNL     1     113.203 128.636 141.559  0.00  0.00    +0.000 OA
ATOM     24  C   UNL     1     111.891 128.192 141.910  0.00  0.00    +0.000 C 
ATOM     25  C   UNL     1     111.263 127.668 141.806  0.00  0.00    +0.000 C 
ATOM     26  C   UNL     1     112.574 128.111 141.456  0.00  0.00    +0.000 C 
ATOM     27  C   UNL     1     111.318 127.063 141.248  0.00  0.00    +0.000 C 
ATOM     28  C   UNL     1     112.629 127.506 140.898  0.00  0.00    +0.000 C 
BRANCH  27  30
ATOM     29  O   UNL     1     110.800 125.730 141.271  0.00  0.00    +0.000 OA
ATOM     30  C   UNL     1     110.689 126.538 141.144  0.00  0.00    +0.000 C 
ENDBRANCH  27  30
ENDBRANCH  19  28
ENDBRANCH   2  19
TORSDOF 7
ENDMDL
MODEL 9
REMARK VINA RESULT:      -7.9      1.334      5.453
REMARK  Name = 24013839
REMARK  7 active torsions:
REMARK  status: ('A' for Active; 'I' for Inactive)
REMARK    1  A    between atoms: O_2  and  C_14
REMARK    2  A    between atoms: O_2  and  C_16
REMARK    3  A    between atoms: C_13  and  C_15
REMARK    4  A    between atoms: C_19  and  C_23
REMARK    5  A    between atoms: C_22  and  C_23
REMARK    6  A    between atoms: C_22  and  C_24
REMARK    7  A    between atoms: C_24  and  C_25
REMARK                            x       y       z     vdW  Elec       q    Type
REMARK                         _______ _______ _______ _____ _____    ______ ____
ROOT
ATOM      1  O   UNL     1     110.757 125.713 134.726  0.00  0.00    +0.000 OA
ATOM      2  C   UNL     1     111.240 125.068 136.755  0.00  0.00    +0.000 A 
ATOM      3  C   UNL     1     111.264 125.140 135.933  0.00  0.00    +0.000 A 
ATOM      4  C   UNL     1     110.685 125.495 137.190  0.00  0.00    +0.000 A 
ATOM      5  C   UNL     1     110.178 126.068 135.983  0.00  0.00    +0.000 A 
ATOM      6  C   UNL     1     110.734 125.640 135.547  0.00  0.00    +0.000 A 
ATOM      7  C   UNL     1     110.154 125.995 136.804  0.00  0.00    +0.000 A 
ENDROOT
BRANCH   5   9
ATOM      8  O   UNL     1     109.029 126.249 135.154  0.00  0.00    +0.000 OA
ATOM      9  C   UNL     1     109.647 126.568 135.597  0.00  0.00    +0.000 C 
BRANCH   9  10
ATOM     10  C   UNL     1     109.735 127.385 135.655  0.00  0.00    +0.000 C 
BRANCH  10  11
ATOM     11  C   UNL     1     109.147 127.885 135.362  0.00  0.00    +0.000 C 
BRANCH  11  13
ATOM     12  O   UNL     1     109.546 131.158 135.493  0.00  0.00    +0.000 OA
ATOM     13  C   UNL     1     109.247 128.704 135.395  0.00  0.00    +0.000 A 
ATOM     14  C   UNL     1     108.838 129.147 135.958  0.00  0.00    +0.000 A 
ATOM     15  C   UNL     1     109.756 129.078 134.864  0.00  0.00    +0.000 A 
ATOM     16  C   UNL     1     108.938 129.965 135.991  0.00  0.00    +0.000 A 
ATOM     17  C   UNL     1     109.855 129.897 134.897  0.00  0.00    +0.000 A 
ATOM     18  C   UNL     1     109.447 130.340 135.461  0.00  0.00    +0.000 A 
ENDBRANCH  11  13
ENDBRANCH  10  11
ENDBRANCH   9  10
ENDBRANCH   5   9
BRANCH   2  19
ATOM     19  O   UNL     1     111.770 124.568 137.141  0.00  0.00    +0.000 OA
BRANCH  19  28
ATOM     20  O   UNL     1     112.553 125.520 137.864  0.00  0.00    +0.000 OA
ATOM     21  O   UNL     1     114.622 124.378 137.128  0.00  0.00    +0.000 OA
ATOM     22  O   UNL     1     114.715 125.710 138.097  0.00  0.00    +0.000 OA
ATOM     23  O   UNL     1     113.149 123.807 136.650  0.00  0.00    +0.000 OA
ATOM     24  C   UNL     1     113.932 124.758 137.374  0.00  0.00    +0.000 C 
ATOM     25  C   UNL     1     113.979 125.424 137.858  0.00  0.00    +0.000 C 
ATOM     26  C   UNL     1     113.197 124.473 137.135  0.00  0.00    +0.000 C 
ATOM     27  C   UNL     1     113.290 125.805 138.103  0.00  0.00    +0.000 C 
ATOM     28  C   UNL     1     112.507 124.854 137.380  0.00  0.00    +0.000 C 
BRANCH  27  30
ATOM     29  O   UNL     1     112.957 126.476 139.321  0.00  0.00    +0.000 OA
ATOM     30  C   UNL     1     113.336 126.471 138.588  0.00  0.00    +0.000 C 
ENDBRANCH  27  30
ENDBRANCH  19  28
ENDBRANCH   2  19
TORSDOF 7
ENDMDL
MODEL 10
REMARK VINA RESULT:      -7.9      3.406      4.970
REMARK  Name = 24013839
REMARK  7 active torsions:
REMARK  status: ('A' for Active; 'I' for Inactive)
REMARK    1  A    between atoms: O_2  and  C_14
REMARK    2  A    between atoms: O_2  and  C_16
REMARK    3  A    between atoms: C_13  and  C_15
REMARK    4  A    between atoms: C_19  and  C_23
REMARK    5  A    between atoms: C_22  and  C_23
REMARK    6  A    between atoms: C_22  and  C_24
REMARK    7  A    between atoms: C_24  and  C_25
REMARK                            x       y       z     vdW  Elec       q    Type
REMARK                         _______ _______ _______ _____ _____    ______ ____
ROOT
ATOM      1  O   UNL     1     111.528 126.257 139.763  0.00  0.00    +0.000 OA
ATOM      2  C   UNL     1     112.614 125.719 137.948  0.00  0.00    +0.000 A 
ATOM      3  C   UNL     1     112.000 125.804 138.493  0.00  0.00    +0.000 A 
ATOM      4  C   UNL     1     113.367 126.001 138.127  0.00  0.00    +0.000 A 
ATOM      5  C   UNL     1     112.895 126.455 139.397  0.00  0.00    +0.000 A 
ATOM      6  C   UNL     1     112.141 126.172 139.217  0.00  0.00    +0.000 A 
ATOM      7  C   UNL     1     113.508 126.369 138.852  0.00  0.00    +0.000 A 
ENDROOT
BRANCH   5   9
ATOM      8  O   UNL     1     112.956 126.396 140.823  0.00  0.00    +0.000 OA
ATOM      9  C   UNL     1     113.036 126.823 140.122  0.00  0.00    +0.000 C 
BRANCH   9  10
ATOM     10  C   UNL     1     113.256 127.617 140.145  0.00  0.00    +0.000 C 
BRANCH  10  11
ATOM     11  C   UNL     1     113.551 127.943 140.843  0.00  0.00    +0.000 C 
BRANCH  11  13
ATOM     12  O   UNL     1     114.218 131.171 141.004  0.00  0.00    +0.000 OA
ATOM     13  C   UNL     1     113.718 128.751 140.883  0.00  0.00    +0.000 A 
ATOM     14  C   UNL     1     113.162 129.272 141.200  0.00  0.00    +0.000 A 
ATOM     15  C   UNL     1     114.441 129.036 140.607  0.00  0.00    +0.000 A 
ATOM     16  C   UNL     1     113.328 130.078 141.240  0.00  0.00    +0.000 A 
ATOM     17  C   UNL     1     114.608 129.844 140.648  0.00  0.00    +0.000 A 
ATOM     18  C   UNL     1     114.051 130.365 140.964  0.00  0.00    +0.000 A 
ENDBRANCH  11  13
ENDBRANCH  10  11
ENDBRANCH   9  10
ENDBRANCH   5   9
BRANCH   2  19
ATOM     19  O   UNL     1     112.473 125.351 137.223  0.00  0.00    +0.000 OA
BRANCH  19  28
ATOM     20  O   UNL     1     112.141 126.533 136.492  0.00  0.00    +0.000 OA
ATOM     21  O   UNL     1     110.424 125.272 135.233  0.00  0.00    +0.000 OA
ATOM     22  O   UNL     1     110.663 126.875 134.922  0.00  0.00    +0.000 OA
ATOM     23  O   UNL     1     111.328 124.510 136.383  0.00  0.00    +0.000 OA
ATOM     24  C   UNL     1     110.996 125.692 135.652  0.00  0.00    +0.000 C 
ATOM     25  C   UNL     1     111.116 126.493 135.497  0.00  0.00    +0.000 C 
ATOM     26  C   UNL     1     111.448 125.311 136.227  0.00  0.00    +0.000 C 
ATOM     27  C   UNL     1     111.688 126.913 135.917  0.00  0.00    +0.000 C 
ATOM     28  C   UNL     1     112.020 125.732 136.647  0.00  0.00    +0.000 C 
BRANCH  27  30
ATOM     29  O   UNL     1     112.571 128.000 135.627  0.00  0.00    +0.000 OA
ATOM     30  C   UNL     1     111.808 127.715 135.762  0.00  0.00    +0.000 C 
ENDBRANCH  27  30
ENDBRANCH  19  28
ENDBRANCH   2  19
TORSDOF 7
ENDMDL
