MODEL 1
REMARK VINA RESULT:     -10.4      0.000      0.000
REMARK  Name = 74977927
REMARK  10 active torsions:
REMARK  status: ('A' for Active; 'I' for Inactive)
REMARK    1  A    between atoms: O_1  and  C_19
REMARK    2  A    between atoms: O_1  and  C_21
REMARK    3  A    between atoms: O_5  and  C_25
REMARK    4  A    between atoms: O_5  and  C_31
REMARK    5  A    between atoms: O_10  and  C_30
REMARK    6  A    between atoms: O_10  and  C_34
REMARK    7  A    between atoms: O_18  and  C_47
REMARK    8  A    between atoms: C_26  and  C_29
REMARK    9  A    between atoms: C_28  and  C_30
REMARK   10  A    between atoms: C_40  and  C_42
REMARK                            x       y       z     vdW  Elec       q    Type
REMARK                         _______ _______ _______ _____ _____    ______ ____
ROOT
ATOM      1  O   UNL     1     106.235 126.644 141.438  0.00  0.00    +0.000 OA
ATOM      2  O   UNL     1     108.253 127.122 142.789  0.00  0.00    +0.000 OA
ATOM      3  O   UNL     1     106.852 127.943 143.079  0.00  0.00    +0.000 OA
ATOM      4  C   UNL     1     107.609 126.392 141.742  0.00  0.00    +0.000 C 
ATOM      5  C   UNL     1     107.580 126.963 142.338  0.00  0.00    +0.000 C 
ATOM      6  C   UNL     1     106.880 127.373 142.484  0.00  0.00    +0.000 C 
ATOM      7  C   UNL     1     106.936 126.233 141.292  0.00  0.00    +0.000 C 
ATOM      8  C   UNL     1     106.208 127.214 142.033  0.00  0.00    +0.000 C 
ENDROOT
BRANCH   8  10
ATOM      9  O   UNL     1     104.857 127.230 142.501  0.00  0.00    +0.000 OA
ATOM     10  C   UNL     1     105.507 127.625 142.178  0.00  0.00    +0.000 C 
ENDBRANCH   8  10
BRANCH   4  11
ATOM     11  O   UNL     1     108.308 125.982 141.597  0.00  0.00    +0.000 OA
BRANCH  11  16
ATOM     12  O   UNL     1     108.770 127.057 140.777  0.00  0.00    +0.000 OA
ATOM     13  O   UNL     1     109.698 125.148 141.284  0.00  0.00    +0.000 OA
ATOM     14  O   UNL     1     110.853 125.807 140.307  0.00  0.00    +0.000 OA
ATOM     15  O   UNL     1     110.619 127.300 139.644  0.00  0.00    +0.000 OA
ATOM     16  C   UNL     1     108.886 126.311 141.109  0.00  0.00    +0.000 C 
ATOM     17  C   UNL     1     109.581 125.894 140.952  0.00  0.00    +0.000 C 
ATOM     18  C   UNL     1     110.159 126.224 140.463  0.00  0.00    +0.000 C 
ATOM     19  C   UNL     1     110.041 126.970 140.132  0.00  0.00    +0.000 C 
ATOM     20  C   UNL     1     109.347 127.387 140.288  0.00  0.00    +0.000 C 
BRANCH  20  21
ATOM     21  C   UNL     1     109.230 128.133 139.957  0.00  0.00    +0.000 C 
BRANCH  21  22
ATOM     22  O   UNL     1     109.208 128.801 140.442  0.00  0.00    +0.000 OA
BRANCH  22  24
ATOM     23  O   UNL     1     108.568 129.548 139.407  0.00  0.00    +0.000 OA
ATOM     24  C   UNL     1     108.945 129.522 140.140  0.00  0.00    +0.000 C 
ATOM     25  C   UNL     1     109.058 130.216 140.572  0.00  0.00    +0.000 C 
ENDBRANCH  22  24
ENDBRANCH  21  22
ENDBRANCH  20  21
ENDBRANCH  11  16
ENDBRANCH   4  11
BRANCH   7  26
ATOM     26  O   UNL     1     106.963 125.664 140.696  0.00  0.00    +0.000 OA
BRANCH  26  31
ATOM     27  O   UNL     1     106.091 125.459 139.311  0.00  0.00    +0.000 OA
ATOM     28  O   UNL     1     104.918 124.295 139.197  0.00  0.00    +0.000 OA
ATOM     29  O   UNL     1     105.513 123.530 141.925  0.00  0.00    +0.000 OA
ATOM     30  O   UNL     1     104.481 122.820 141.208  0.00  0.00    +0.000 OA
ATOM     31  C   UNL     1     106.382 125.079 140.657  0.00  0.00    +0.000 A 
ATOM     32  C   UNL     1     105.947 124.977 139.964  0.00  0.00    +0.000 A 
ATOM     33  C   UNL     1     106.238 124.597 141.310  0.00  0.00    +0.000 A 
ATOM     34  C   UNL     1     105.366 124.392 139.925  0.00  0.00    +0.000 A 
ATOM     35  C   UNL     1     105.657 124.012 141.271  0.00  0.00    +0.000 A 
ATOM     36  C   UNL     1     105.221 123.909 140.579  0.00  0.00    +0.000 A 
ATOM     37  C   UNL     1     104.619 123.297 140.550  0.00  0.00    +0.000 A 
ATOM     38  C   UNL     1     104.312 123.688 139.151  0.00  0.00    +0.000 A 
ATOM     39  C   UNL     1     104.162 123.186 139.831  0.00  0.00    +0.000 A 
BRANCH  38  41
ATOM     40  O   UNL     1     101.846 123.902 137.722  0.00  0.00    +0.000 OA
ATOM     41  C   UNL     1     103.877 123.587 138.457  0.00  0.00    +0.000 A 
ATOM     42  C   UNL     1     103.079 123.795 138.437  0.00  0.00    +0.000 A 
ATOM     43  C   UNL     1     104.240 123.280 137.784  0.00  0.00    +0.000 A 
ATOM     44  C   UNL     1     102.644 123.694 137.743  0.00  0.00    +0.000 A 
ATOM     45  C   UNL     1     103.806 123.180 137.090  0.00  0.00    +0.000 A 
ATOM     46  C   UNL     1     103.007 123.387 137.069  0.00  0.00    +0.000 A 
BRANCH  46  47
ATOM     47  O   UNL     1     102.573 123.287 136.375  0.00  0.00    +0.000 OA
ATOM     48  C   UNL     1     102.915 122.914 135.723  0.00  0.00    +0.000 C 
ENDBRANCH  46  47
ENDBRANCH  38  41
ENDBRANCH  26  31
ENDBRANCH   7  26
TORSDOF 10
ENDMDL
MODEL 2
REMARK VINA RESULT:     -10.3      1.728      2.898
REMARK  Name = 74977927
REMARK  10 active torsions:
REMARK  status: ('A' for Active; 'I' for Inactive)
REMARK    1  A    between atoms: O_1  and  C_19
REMARK    2  A    between atoms: O_1  and  C_21
REMARK    3  A    between atoms: O_5  and  C_25
REMARK    4  A    between atoms: O_5  and  C_31
REMARK    5  A    between atoms: O_10  and  C_30
REMARK    6  A    between atoms: O_10  and  C_34
REMARK    7  A    between atoms: O_18  and  C_47
REMARK    8  A    between atoms: C_26  and  C_29
REMARK    9  A    between atoms: C_28  and  C_30
REMARK   10  A    between atoms: C_40  and  C_42
REMARK                            x       y       z     vdW  Elec       q    Type
REMARK                         _______ _______ _______ _____ _____    ______ ____
ROOT
ATOM      1  O   UNL     1     106.208 126.326 143.001  0.00  0.00    +0.000 OA
ATOM      2  O   UNL     1     107.791 128.057 143.791  0.00  0.00    +0.000 OA
ATOM      3  O   UNL     1     106.964 127.136 144.881  0.00  0.00    +0.000 OA
ATOM      4  C   UNL     1     107.150 127.365 142.719  0.00  0.00    +0.000 C 
ATOM      5  C   UNL     1     107.264 127.480 143.528  0.00  0.00    +0.000 C 
ATOM      6  C   UNL     1     106.851 127.020 144.073  0.00  0.00    +0.000 C 
ATOM      7  C   UNL     1     106.622 126.788 142.455  0.00  0.00    +0.000 C 
ATOM      8  C   UNL     1     106.323 126.443 143.809  0.00  0.00    +0.000 C 
ENDROOT
BRANCH   8  10
ATOM      9  O   UNL     1     105.085 125.951 144.325  0.00  0.00    +0.000 OA
ATOM     10  C   UNL     1     105.909 125.982 144.354  0.00  0.00    +0.000 C 
ENDBRANCH   8  10
BRANCH   4  11
ATOM     11  O   UNL     1     107.563 127.825 142.174  0.00  0.00    +0.000 OA
BRANCH  11  16
ATOM     12  O   UNL     1     106.517 128.799 142.160  0.00  0.00    +0.000 OA
ATOM     13  O   UNL     1     108.576 128.903 141.444  0.00  0.00    +0.000 OA
ATOM     14  O   UNL     1     108.037 130.416 141.065  0.00  0.00    +0.000 OA
ATOM     15  O   UNL     1     106.484 130.850 141.416  0.00  0.00    +0.000 OA
ATOM     16  C   UNL     1     107.293 128.581 141.984  0.00  0.00    +0.000 C 
ATOM     17  C   UNL     1     107.800 129.121 141.619  0.00  0.00    +0.000 C 
ATOM     18  C   UNL     1     107.530 129.877 141.430  0.00  0.00    +0.000 C 
ATOM     19  C   UNL     1     106.754 130.094 141.606  0.00  0.00    +0.000 C 
ATOM     20  C   UNL     1     106.248 129.555 141.970  0.00  0.00    +0.000 C 
BRANCH  20  21
ATOM     21  C   UNL     1     105.471 129.771 142.146  0.00  0.00    +0.000 C 
BRANCH  21  22
ATOM     22  O   UNL     1     104.843 129.317 141.865  0.00  0.00    +0.000 OA
BRANCH  22  24
ATOM     23  O   UNL     1     103.980 129.429 142.997  0.00  0.00    +0.000 OA
ATOM     24  C   UNL     1     104.087 129.416 142.180  0.00  0.00    +0.000 C 
ATOM     25  C   UNL     1     103.438 129.504 141.677  0.00  0.00    +0.000 C 
ENDBRANCH  22  24
ENDBRANCH  21  22
ENDBRANCH  20  21
ENDBRANCH  11  16
ENDBRANCH   4  11
BRANCH   7  26
ATOM     26  O   UNL     1     106.508 126.671 141.647  0.00  0.00    +0.000 OA
BRANCH  26  31
ATOM     27  O   UNL     1     105.243 126.310 140.650  0.00  0.00    +0.000 OA
ATOM     28  O   UNL     1     105.043 124.788 140.032  0.00  0.00    +0.000 OA
ATOM     29  O   UNL     1     107.435 123.975 141.446  0.00  0.00    +0.000 OA
ATOM     30  O   UNL     1     106.730 123.002 140.648  0.00  0.00    +0.000 OA
ATOM     31  C   UNL     1     106.423 125.907 141.347  0.00  0.00    +0.000 A 
ATOM     32  C   UNL     1     105.791 125.727 140.849  0.00  0.00    +0.000 A 
ATOM     33  C   UNL     1     106.971 125.324 141.546  0.00  0.00    +0.000 A 
ATOM     34  C   UNL     1     105.706 124.963 140.550  0.00  0.00    +0.000 A 
ATOM     35  C   UNL     1     106.887 124.560 141.247  0.00  0.00    +0.000 A 
ATOM     36  C   UNL     1     106.254 124.379 140.749  0.00  0.00    +0.000 A 
ATOM     37  C   UNL     1     106.177 123.579 140.444  0.00  0.00    +0.000 A 
ATOM     38  C   UNL     1     104.950 123.993 139.717  0.00  0.00    +0.000 A 
ATOM     39  C   UNL     1     105.521 123.386 139.924  0.00  0.00    +0.000 A 
BRANCH  38  41
ATOM     40  O   UNL     1     103.918 123.542 137.090  0.00  0.00    +0.000 OA
ATOM     41  C   UNL     1     104.317 123.816 139.219  0.00  0.00    +0.000 A 
ATOM     42  C   UNL     1     104.435 123.768 138.403  0.00  0.00    +0.000 A 
ATOM     43  C   UNL     1     103.567 123.686 139.536  0.00  0.00    +0.000 A 
ATOM     44  C   UNL     1     103.801 123.590 137.905  0.00  0.00    +0.000 A 
ATOM     45  C   UNL     1     102.934 123.509 139.038  0.00  0.00    +0.000 A 
ATOM     46  C   UNL     1     103.051 123.461 138.222  0.00  0.00    +0.000 A 
BRANCH  46  47
ATOM     47  O   UNL     1     102.417 123.283 137.724  0.00  0.00    +0.000 OA
ATOM     48  C   UNL     1     101.644 123.326 138.008  0.00  0.00    +0.000 C 
ENDBRANCH  46  47
ENDBRANCH  38  41
ENDBRANCH  26  31
ENDBRANCH   7  26
TORSDOF 10
ENDMDL
MODEL 3
REMARK VINA RESULT:     -10.2      6.007      7.732
REMARK  Name = 74977927
REMARK  10 active torsions:
REMARK  status: ('A' for Active; 'I' for Inactive)
REMARK    1  A    between atoms: O_1  and  C_19
REMARK    2  A    between atoms: O_1  and  C_21
REMARK    3  A    between atoms: O_5  and  C_25
REMARK    4  A    between atoms: O_5  and  C_31
REMARK    5  A    between atoms: O_10  and  C_30
REMARK    6  A    between atoms: O_10  and  C_34
REMARK    7  A    between atoms: O_18  and  C_47
REMARK    8  A    between atoms: C_26  and  C_29
REMARK    9  A    between atoms: C_28  and  C_30
REMARK   10  A    between atoms: C_40  and  C_42
REMARK                            x       y       z     vdW  Elec       q    Type
REMARK                         _______ _______ _______ _____ _____    ______ ____
ROOT
ATOM      1  O   UNL     1     112.407 128.099 139.566  0.00  0.00    +0.000 OA
ATOM      2  O   UNL     1     114.413 128.011 141.012  0.00  0.00    +0.000 OA
ATOM      3  O   UNL     1     113.269 126.829 141.117  0.00  0.00    +0.000 OA
ATOM      4  C   UNL     1     113.649 128.662 139.996  0.00  0.00    +0.000 C 
ATOM      5  C   UNL     1     113.745 128.041 140.530  0.00  0.00    +0.000 C 
ATOM      6  C   UNL     1     113.173 127.449 140.583  0.00  0.00    +0.000 C 
ATOM      7  C   UNL     1     112.980 128.691 139.514  0.00  0.00    +0.000 C 
ATOM      8  C   UNL     1     112.504 127.479 140.100  0.00  0.00    +0.000 C 
ENDROOT
BRANCH   8  10
ATOM      9  O   UNL     1     111.155 127.082 140.357  0.00  0.00    +0.000 OA
ATOM     10  C   UNL     1     111.931 126.887 140.152  0.00  0.00    +0.000 C 
ENDBRANCH   8  10
BRANCH   4  11
ATOM     11  O   UNL     1     114.221 129.254 139.944  0.00  0.00    +0.000 OA
BRANCH  11  16
ATOM     12  O   UNL     1     113.543 130.026 140.936  0.00  0.00    +0.000 OA
ATOM     13  O   UNL     1     115.544 130.229 140.089  0.00  0.00    +0.000 OA
ATOM     14  O   UNL     1     115.527 131.489 141.154  0.00  0.00    +0.000 OA
ATOM     15  O   UNL     1     114.187 131.773 142.074  0.00  0.00    +0.000 OA
ATOM     16  C   UNL     1     114.212 129.883 140.476  0.00  0.00    +0.000 C 
ATOM     17  C   UNL     1     114.874 130.372 140.549  0.00  0.00    +0.000 C 
ATOM     18  C   UNL     1     114.866 131.002 141.082  0.00  0.00    +0.000 C 
ATOM     19  C   UNL     1     114.196 131.143 141.541  0.00  0.00    +0.000 C 
ATOM     20  C   UNL     1     113.534 130.656 141.469  0.00  0.00    +0.000 C 
BRANCH  20  21
ATOM     21  C   UNL     1     112.864 130.798 141.929  0.00  0.00    +0.000 C 
BRANCH  21  22
ATOM     22  O   UNL     1     112.133 130.915 141.566  0.00  0.00    +0.000 OA
BRANCH  22  24
ATOM     23  O   UNL     1     111.167 131.761 142.190  0.00  0.00    +0.000 OA
ATOM     24  C   UNL     1     111.453 131.005 142.025  0.00  0.00    +0.000 C 
ATOM     25  C   UNL     1     111.061 130.341 142.318  0.00  0.00    +0.000 C 
ENDBRANCH  22  24
ENDBRANCH  21  22
ENDBRANCH  20  21
ENDBRANCH  11  16
ENDBRANCH   4  11
BRANCH   7  26
ATOM     26  O   UNL     1     112.883 129.312 138.979  0.00  0.00    +0.000 OA
BRANCH  26  31
ATOM     27  O   UNL     1     111.525 130.102 138.476  0.00  0.00    +0.000 OA
ATOM     28  O   UNL     1     110.881 129.833 136.975  0.00  0.00    +0.000 OA
ATOM     29  O   UNL     1     113.011 127.937 136.477  0.00  0.00    +0.000 OA
ATOM     30  O   UNL     1     112.028 128.170 135.448  0.00  0.00    +0.000 OA
ATOM     31  C   UNL     1     112.576 129.166 138.228  0.00  0.00    +0.000 A 
ATOM     32  C   UNL     1     111.896 129.562 137.977  0.00  0.00    +0.000 A 
ATOM     33  C   UNL     1     112.947 128.625 137.729  0.00  0.00    +0.000 A 
ATOM     34  C   UNL     1     111.589 129.415 137.225  0.00  0.00    +0.000 A 
ATOM     35  C   UNL     1     112.639 128.479 136.977  0.00  0.00    +0.000 A 
ATOM     36  C   UNL     1     111.960 128.874 136.725  0.00  0.00    +0.000 A 
ATOM     37  C   UNL     1     111.650 128.713 135.940  0.00  0.00    +0.000 A 
ATOM     38  C   UNL     1     110.556 129.685 136.193  0.00  0.00    +0.000 A 
ATOM     39  C   UNL     1     110.943 129.122 135.673  0.00  0.00    +0.000 A 
BRANCH  38  41
ATOM     40  O   UNL     1     107.708 129.840 136.009  0.00  0.00    +0.000 OA
ATOM     41  C   UNL     1     109.876 130.082 135.943  0.00  0.00    +0.000 A 
ATOM     42  C   UNL     1     109.132 129.762 136.101  0.00  0.00    +0.000 A 
ATOM     43  C   UNL     1     109.941 130.796 135.537  0.00  0.00    +0.000 A 
ATOM     44  C   UNL     1     108.452 130.159 135.852  0.00  0.00    +0.000 A 
ATOM     45  C   UNL     1     109.262 131.192 135.288  0.00  0.00    +0.000 A 
ATOM     46  C   UNL     1     108.518 130.874 135.446  0.00  0.00    +0.000 A 
BRANCH  46  47
ATOM     47  O   UNL     1     107.838 131.270 135.196  0.00  0.00    +0.000 OA
ATOM     48  C   UNL     1     107.890 132.047 134.923  0.00  0.00    +0.000 C 
ENDBRANCH  46  47
ENDBRANCH  38  41
ENDBRANCH  26  31
ENDBRANCH   7  26
TORSDOF 10
ENDMDL
MODEL 4
REMARK VINA RESULT:     -10.2      3.657      6.462
REMARK  Name = 74977927
REMARK  10 active torsions:
REMARK  status: ('A' for Active; 'I' for Inactive)
REMARK    1  A    between atoms: O_1  and  C_19
REMARK    2  A    between atoms: O_1  and  C_21
REMARK    3  A    between atoms: O_5  and  C_25
REMARK    4  A    between atoms: O_5  and  C_31
REMARK    5  A    between atoms: O_10  and  C_30
REMARK    6  A    between atoms: O_10  and  C_34
REMARK    7  A    between atoms: O_18  and  C_47
REMARK    8  A    between atoms: C_26  and  C_29
REMARK    9  A    between atoms: C_28  and  C_30
REMARK   10  A    between atoms: C_40  and  C_42
REMARK                            x       y       z     vdW  Elec       q    Type
REMARK                         _______ _______ _______ _____ _____    ______ ____
ROOT
ATOM      1  O   UNL     1     106.364 128.496 142.290  0.00  0.00    +0.000 OA
ATOM      2  O   UNL     1     107.412 126.291 142.696  0.00  0.00    +0.000 OA
ATOM      3  O   UNL     1     108.289 127.507 142.008  0.00  0.00    +0.000 OA
ATOM      4  C   UNL     1     106.275 127.153 142.770  0.00  0.00    +0.000 C 
ATOM      5  C   UNL     1     107.063 127.026 142.561  0.00  0.00    +0.000 C 
ATOM      6  C   UNL     1     107.501 127.634 142.217  0.00  0.00    +0.000 C 
ATOM      7  C   UNL     1     105.925 127.888 142.634  0.00  0.00    +0.000 C 
ATOM      8  C   UNL     1     107.152 128.369 142.082  0.00  0.00    +0.000 C 
ENDROOT
BRANCH   8  10
ATOM      9  O   UNL     1     107.405 129.239 140.977  0.00  0.00    +0.000 OA
ATOM     10  C   UNL     1     107.590 128.977 141.737  0.00  0.00    +0.000 C 
ENDBRANCH   8  10
BRANCH   4  11
ATOM     11  O   UNL     1     105.836 126.545 143.114  0.00  0.00    +0.000 OA
BRANCH  11  16
ATOM     12  O   UNL     1     106.212 126.903 144.445  0.00  0.00    +0.000 OA
ATOM     13  O   UNL     1     105.623 124.981 143.594  0.00  0.00    +0.000 OA
ATOM     14  O   UNL     1     105.893 124.557 145.166  0.00  0.00    +0.000 OA
ATOM     15  O   UNL     1     106.376 125.697 146.257  0.00  0.00    +0.000 OA
ATOM     16  C   UNL     1     105.971 126.333 143.900  0.00  0.00    +0.000 C 
ATOM     17  C   UNL     1     105.864 125.551 144.140  0.00  0.00    +0.000 C 
ATOM     18  C   UNL     1     105.999 125.339 144.926  0.00  0.00    +0.000 C 
ATOM     19  C   UNL     1     106.241 125.909 145.471  0.00  0.00    +0.000 C 
ATOM     20  C   UNL     1     106.347 126.691 145.231  0.00  0.00    +0.000 C 
BRANCH  20  21
ATOM     21  C   UNL     1     106.589 127.261 145.776  0.00  0.00    +0.000 C 
BRANCH  21  22
ATOM     22  O   UNL     1     106.240 128.009 145.772  0.00  0.00    +0.000 OA
BRANCH  22  24
ATOM     23  O   UNL     1     106.207 128.732 147.003  0.00  0.00    +0.000 OA
ATOM     24  C   UNL     1     106.537 128.606 146.257  0.00  0.00    +0.000 C 
ATOM     25  C   UNL     1     107.163 129.077 145.997  0.00  0.00    +0.000 C 
ENDBRANCH  22  24
ENDBRANCH  21  22
ENDBRANCH  20  21
ENDBRANCH  11  16
ENDBRANCH   4  11
BRANCH   7  26
ATOM     26  O   UNL     1     105.138 128.015 142.843  0.00  0.00    +0.000 OA
BRANCH  26  31
ATOM     27  O   UNL     1     104.440 129.470 143.191  0.00  0.00    +0.000 OA
ATOM     28  O   UNL     1     103.395 130.197 142.133  0.00  0.00    +0.000 OA
ATOM     29  O   UNL     1     103.760 127.955 140.339  0.00  0.00    +0.000 OA
ATOM     30  O   UNL     1     102.879 129.028 139.947  0.00  0.00    +0.000 OA
ATOM     31  C   UNL     1     104.619 128.364 142.304  0.00  0.00    +0.000 A 
ATOM     32  C   UNL     1     104.271 129.091 142.479  0.00  0.00    +0.000 A 
ATOM     33  C   UNL     1     104.449 127.985 141.592  0.00  0.00    +0.000 A 
ATOM     34  C   UNL     1     103.752 129.440 141.940  0.00  0.00    +0.000 A 
ATOM     35  C   UNL     1     103.931 128.334 141.053  0.00  0.00    +0.000 A 
ATOM     36  C   UNL     1     103.582 129.061 141.227  0.00  0.00    +0.000 A 
ATOM     37  C   UNL     1     103.044 129.414 140.657  0.00  0.00    +0.000 A 
ATOM     38  C   UNL     1     102.854 130.565 141.575  0.00  0.00    +0.000 A 
ATOM     39  C   UNL     1     102.677 130.171 140.833  0.00  0.00    +0.000 A 
BRANCH  38  41
ATOM     40  O   UNL     1     102.912 133.421 141.489  0.00  0.00    +0.000 OA
ATOM     41  C   UNL     1     102.507 131.293 141.752  0.00  0.00    +0.000 A 
ATOM     42  C   UNL     1     102.883 131.993 141.532  0.00  0.00    +0.000 A 
ATOM     43  C   UNL     1     101.785 131.319 142.149  0.00  0.00    +0.000 A 
ATOM     44  C   UNL     1     102.536 132.721 141.709  0.00  0.00    +0.000 A 
ATOM     45  C   UNL     1     101.438 132.046 142.325  0.00  0.00    +0.000 A 
ATOM     46  C   UNL     1     101.813 132.747 142.105  0.00  0.00    +0.000 A 
BRANCH  46  47
ATOM     47  O   UNL     1     101.466 133.474 142.282  0.00  0.00    +0.000 OA
ATOM     48  C   UNL     1     100.714 133.502 142.621  0.00  0.00    +0.000 C 
ENDBRANCH  46  47
ENDBRANCH  38  41
ENDBRANCH  26  31
ENDBRANCH   7  26
TORSDOF 10
ENDMDL
MODEL 5
REMARK VINA RESULT:     -10.0      3.571      4.643
REMARK  Name = 74977927
REMARK  10 active torsions:
REMARK  status: ('A' for Active; 'I' for Inactive)
REMARK    1  A    between atoms: O_1  and  C_19
REMARK    2  A    between atoms: O_1  and  C_21
REMARK    3  A    between atoms: O_5  and  C_25
REMARK    4  A    between atoms: O_5  and  C_31
REMARK    5  A    between atoms: O_10  and  C_30
REMARK    6  A    between atoms: O_10  and  C_34
REMARK    7  A    between atoms: O_18  and  C_47
REMARK    8  A    between atoms: C_26  and  C_29
REMARK    9  A    between atoms: C_28  and  C_30
REMARK   10  A    between atoms: C_40  and  C_42
REMARK                            x       y       z     vdW  Elec       q    Type
REMARK                         _______ _______ _______ _____ _____    ______ ____
ROOT
ATOM      1  O   UNL     1     108.836 126.923 140.867  0.00  0.00    +0.000 OA
ATOM      2  O   UNL     1     111.194 126.608 141.548  0.00  0.00    +0.000 OA
ATOM      3  O   UNL     1     110.545 125.664 140.362  0.00  0.00    +0.000 OA
ATOM      4  C   UNL     1     109.947 127.291 141.688  0.00  0.00    +0.000 C 
ATOM      5  C   UNL     1     110.408 126.713 141.321  0.00  0.00    +0.000 C 
ATOM      6  C   UNL     1     110.084 126.241 140.728  0.00  0.00    +0.000 C 
ATOM      7  C   UNL     1     109.161 127.395 141.461  0.00  0.00    +0.000 C 
ATOM      8  C   UNL     1     109.298 126.346 140.501  0.00  0.00    +0.000 C 
ENDROOT
BRANCH   8  10
ATOM      9  O   UNL     1     108.595 126.224 139.263  0.00  0.00    +0.000 OA
ATOM     10  C   UNL     1     108.972 125.873 139.908  0.00  0.00    +0.000 C 
ENDBRANCH   8  10
BRANCH   4  11
ATOM     11  O   UNL     1     110.271 127.763 142.281  0.00  0.00    +0.000 OA
BRANCH  11  16
ATOM     12  O   UNL     1     110.704 128.731 141.323  0.00  0.00    +0.000 OA
ATOM     13  O   UNL     1     111.300 128.409 143.398  0.00  0.00    +0.000 OA
ATOM     14  O   UNL     1     112.247 129.700 142.998  0.00  0.00    +0.000 OA
ATOM     15  O   UNL     1     112.165 130.345 141.481  0.00  0.00    +0.000 OA
ATOM     16  C   UNL     1     110.745 128.408 142.081  0.00  0.00    +0.000 C 
ATOM     17  C   UNL     1     111.259 128.732 142.640  0.00  0.00    +0.000 C 
ATOM     18  C   UNL     1     111.733 129.377 142.440  0.00  0.00    +0.000 C 
ATOM     19  C   UNL     1     111.691 129.699 141.681  0.00  0.00    +0.000 C 
ATOM     20  C   UNL     1     111.178 129.377 141.123  0.00  0.00    +0.000 C 
BRANCH  20  21
ATOM     21  C   UNL     1     111.136 129.699 140.364  0.00  0.00    +0.000 C 
BRANCH  21  22
ATOM     22  O   UNL     1     110.403 129.878 140.033  0.00  0.00    +0.000 OA
BRANCH  22  24
ATOM     23  O   UNL     1     110.628 129.530 138.666  0.00  0.00    +0.000 OA
ATOM     24  C   UNL     1     110.346 130.062 139.230  0.00  0.00    +0.000 C 
ATOM     25  C   UNL     1     110.008 130.776 138.993  0.00  0.00    +0.000 C 
ENDBRANCH  22  24
ENDBRANCH  21  22
ENDBRANCH  20  21
ENDBRANCH  11  16
ENDBRANCH   4  11
BRANCH   7  26
ATOM     26  O   UNL     1     108.699 127.973 141.827  0.00  0.00    +0.000 OA
BRANCH  26  31
ATOM     27  O   UNL     1     107.396 128.850 141.321  0.00  0.00    +0.000 OA
ATOM     28  O   UNL     1     105.867 128.501 141.850  0.00  0.00    +0.000 OA
ATOM     29  O   UNL     1     106.980 126.344 143.428  0.00  0.00    +0.000 OA
ATOM     30  O   UNL     1     105.557 126.576 143.467  0.00  0.00    +0.000 OA
ATOM     31  C   UNL     1     107.944 127.785 142.101  0.00  0.00    +0.000 A 
ATOM     32  C   UNL     1     107.293 128.224 141.847  0.00  0.00    +0.000 A 
ATOM     33  C   UNL     1     107.840 127.159 142.627  0.00  0.00    +0.000 A 
ATOM     34  C   UNL     1     106.537 128.036 142.121  0.00  0.00    +0.000 A 
ATOM     35  C   UNL     1     107.085 126.971 142.901  0.00  0.00    +0.000 A 
ATOM     36  C   UNL     1     106.433 127.409 142.648  0.00  0.00    +0.000 A 
ATOM     37  C   UNL     1     105.652 127.204 142.940  0.00  0.00    +0.000 A 
ATOM     38  C   UNL     1     105.077 128.310 142.132  0.00  0.00    +0.000 A 
ATOM     39  C   UNL     1     104.970 127.658 142.680  0.00  0.00    +0.000 A 
BRANCH  38  41
ATOM     40  O   UNL     1     103.022 128.802 140.208  0.00  0.00    +0.000 OA
ATOM     41  C   UNL     1     104.428 128.750 141.877  0.00  0.00    +0.000 A 
ATOM     42  C   UNL     1     104.050 128.555 141.170  0.00  0.00    +0.000 A 
ATOM     43  C   UNL     1     104.157 129.383 142.329  0.00  0.00    +0.000 A 
ATOM     44  C   UNL     1     103.400 128.996 140.915  0.00  0.00    +0.000 A 
ATOM     45  C   UNL     1     103.507 129.824 142.074  0.00  0.00    +0.000 A 
ATOM     46  C   UNL     1     103.129 129.630 141.367  0.00  0.00    +0.000 A 
BRANCH  46  47
ATOM     47  O   UNL     1     102.479 130.070 141.113  0.00  0.00    +0.000 OA
ATOM     48  C   UNL     1     102.237 130.734 141.538  0.00  0.00    +0.000 C 
ENDBRANCH  46  47
ENDBRANCH  38  41
ENDBRANCH  26  31
ENDBRANCH   7  26
TORSDOF 10
ENDMDL
MODEL 6
REMARK VINA RESULT:      -9.9      3.607      5.724
REMARK  Name = 74977927
REMARK  10 active torsions:
REMARK  status: ('A' for Active; 'I' for Inactive)
REMARK    1  A    between atoms: O_1  and  C_19
REMARK    2  A    between atoms: O_1  and  C_21
REMARK    3  A    between atoms: O_5  and  C_25
REMARK    4  A    between atoms: O_5  and  C_31
REMARK    5  A    between atoms: O_10  and  C_30
REMARK    6  A    between atoms: O_10  and  C_34
REMARK    7  A    between atoms: O_18  and  C_47
REMARK    8  A    between atoms: C_26  and  C_29
REMARK    9  A    between atoms: C_28  and  C_30
REMARK   10  A    between atoms: C_40  and  C_42
REMARK                            x       y       z     vdW  Elec       q    Type
REMARK                         _______ _______ _______ _____ _____    ______ ____
ROOT
ATOM      1  O   UNL     1     105.524 127.365 145.028  0.00  0.00    +0.000 OA
ATOM      2  O   UNL     1     106.707 127.685 147.178  0.00  0.00    +0.000 OA
ATOM      3  O   UNL     1     105.646 128.828 146.643  0.00  0.00    +0.000 OA
ATOM      4  C   UNL     1     106.450 126.899 146.013  0.00  0.00    +0.000 C 
ATOM      5  C   UNL     1     106.313 127.578 146.462  0.00  0.00    +0.000 C 
ATOM      6  C   UNL     1     105.782 128.150 146.194  0.00  0.00    +0.000 C 
ATOM      7  C   UNL     1     106.055 126.793 145.296  0.00  0.00    +0.000 C 
ATOM      8  C   UNL     1     105.388 128.043 145.477  0.00  0.00    +0.000 C 
ENDROOT
BRANCH   8  10
ATOM      9  O   UNL     1     105.056 129.092 144.566  0.00  0.00    +0.000 OA
ATOM     10  C   UNL     1     104.857 128.615 145.209  0.00  0.00    +0.000 C 
ENDBRANCH   8  10
BRANCH   4  11
ATOM     11  O   UNL     1     106.980 126.328 146.280  0.00  0.00    +0.000 OA
BRANCH  11  16
ATOM     12  O   UNL     1     105.963 125.588 146.959  0.00  0.00    +0.000 OA
ATOM     13  O   UNL     1     108.114 125.708 147.306  0.00  0.00    +0.000 OA
ATOM     14  O   UNL     1     107.664 124.658 148.497  0.00  0.00    +0.000 OA
ATOM     15  O   UNL     1     106.080 124.228 148.662  0.00  0.00    +0.000 OA
ATOM     16  C   UNL     1     106.755 125.803 146.876  0.00  0.00    +0.000 C 
ATOM     17  C   UNL     1     107.323 125.493 147.389  0.00  0.00    +0.000 C 
ATOM     18  C   UNL     1     107.098 124.968 147.984  0.00  0.00    +0.000 C 
ATOM     19  C   UNL     1     106.305 124.753 148.067  0.00  0.00    +0.000 C 
ATOM     20  C   UNL     1     105.738 125.063 147.554  0.00  0.00    +0.000 C 
BRANCH  20  21
ATOM     21  C   UNL     1     104.946 124.848 147.636  0.00  0.00    +0.000 C 
BRANCH  21  22
ATOM     22  O   UNL     1     104.518 124.593 146.979  0.00  0.00    +0.000 OA
BRANCH  22  24
ATOM     23  O   UNL     1     103.252 125.115 147.384  0.00  0.00    +0.000 OA
ATOM     24  C   UNL     1     103.697 124.522 147.022  0.00  0.00    +0.000 C 
ATOM     25  C   UNL     1     103.322 123.860 146.704  0.00  0.00    +0.000 C 
ENDBRANCH  22  24
ENDBRANCH  21  22
ENDBRANCH  20  21
ENDBRANCH  11  16
ENDBRANCH   4  11
BRANCH   7  26
ATOM     26  O   UNL     1     106.191 126.115 144.847  0.00  0.00    +0.000 OA
BRANCH  26  31
ATOM     27  O   UNL     1     105.472 125.126 143.739  0.00  0.00    +0.000 OA
ATOM     28  O   UNL     1     105.837 125.231 142.128  0.00  0.00    +0.000 OA
ATOM     29  O   UNL     1     107.686 127.368 142.758  0.00  0.00    +0.000 OA
ATOM     30  O   UNL     1     107.537 126.954 141.384  0.00  0.00    +0.000 OA
ATOM     31  C   UNL     1     106.385 126.181 144.048  0.00  0.00    +0.000 A 
ATOM     32  C   UNL     1     106.025 125.686 143.494  0.00  0.00    +0.000 A 
ATOM     33  C   UNL     1     106.938 126.741 143.803  0.00  0.00    +0.000 A 
ATOM     34  C   UNL     1     106.219 125.752 142.695  0.00  0.00    +0.000 A 
ATOM     35  C   UNL     1     107.132 126.807 143.003  0.00  0.00    +0.000 A 
ATOM     36  C   UNL     1     106.773 126.313 142.449  0.00  0.00    +0.000 A 
ATOM     37  C   UNL     1     106.983 126.391 141.620  0.00  0.00    +0.000 A 
ATOM     38  C   UNL     1     106.035 125.295 141.293  0.00  0.00    +0.000 A 
ATOM     39  C   UNL     1     106.611 125.879 141.038  0.00  0.00    +0.000 A 
BRANCH  38  41
ATOM     40  O   UNL     1     105.816 122.740 140.033  0.00  0.00    +0.000 OA
ATOM     41  C   UNL     1     105.674 124.799 140.742  0.00  0.00    +0.000 A 
ATOM     42  C   UNL     1     105.926 124.017 140.663  0.00  0.00    +0.000 A 
ATOM     43  C   UNL     1     105.062 125.085 140.270  0.00  0.00    +0.000 A 
ATOM     44  C   UNL     1     105.565 123.521 140.112  0.00  0.00    +0.000 A 
ATOM     45  C   UNL     1     104.701 124.589 139.718  0.00  0.00    +0.000 A 
ATOM     46  C   UNL     1     104.952 123.807 139.639  0.00  0.00    +0.000 A 
BRANCH  46  47
ATOM     47  O   UNL     1     104.591 123.311 139.087  0.00  0.00    +0.000 OA
ATOM     48  C   UNL     1     103.934 123.574 138.663  0.00  0.00    +0.000 C 
ENDBRANCH  46  47
ENDBRANCH  38  41
ENDBRANCH  26  31
ENDBRANCH   7  26
TORSDOF 10
ENDMDL
MODEL 7
REMARK VINA RESULT:      -9.8      4.908      7.184
REMARK  Name = 74977927
REMARK  10 active torsions:
REMARK  status: ('A' for Active; 'I' for Inactive)
REMARK    1  A    between atoms: O_1  and  C_19
REMARK    2  A    between atoms: O_1  and  C_21
REMARK    3  A    between atoms: O_5  and  C_25
REMARK    4  A    between atoms: O_5  and  C_31
REMARK    5  A    between atoms: O_10  and  C_30
REMARK    6  A    between atoms: O_10  and  C_34
REMARK    7  A    between atoms: O_18  and  C_47
REMARK    8  A    between atoms: C_26  and  C_29
REMARK    9  A    between atoms: C_28  and  C_30
REMARK   10  A    between atoms: C_40  and  C_42
REMARK                            x       y       z     vdW  Elec       q    Type
REMARK                         _______ _______ _______ _____ _____    ______ ____
ROOT
ATOM      1  O   UNL     1     110.054 130.295 138.358  0.00  0.00    +0.000 OA
ATOM      2  O   UNL     1     110.069 132.326 139.772  0.00  0.00    +0.000 OA
ATOM      3  O   UNL     1     109.092 132.251 138.445  0.00  0.00    +0.000 OA
ATOM      4  C   UNL     1     110.548 131.010 139.494  0.00  0.00    +0.000 C 
ATOM      5  C   UNL     1     110.064 131.649 139.301  0.00  0.00    +0.000 C 
ATOM      6  C   UNL     1     109.575 131.612 138.638  0.00  0.00    +0.000 C 
ATOM      7  C   UNL     1     110.543 130.332 139.023  0.00  0.00    +0.000 C 
ATOM      8  C   UNL     1     109.570 130.935 138.167  0.00  0.00    +0.000 C 
ENDROOT
BRANCH   8  10
ATOM      9  O   UNL     1     108.544 130.275 137.422  0.00  0.00    +0.000 OA
ATOM     10  C   UNL     1     109.082 130.897 137.503  0.00  0.00    +0.000 C 
ENDBRANCH   8  10
BRANCH   4  11
ATOM     11  O   UNL     1     111.037 131.047 140.157  0.00  0.00    +0.000 OA
BRANCH  11  16
ATOM     12  O   UNL     1     109.977 130.563 140.984  0.00  0.00    +0.000 OA
ATOM     13  O   UNL     1     111.914 131.424 141.502  0.00  0.00    +0.000 OA
ATOM     14  O   UNL     1     111.293 131.129 143.002  0.00  0.00    +0.000 OA
ATOM     15  O   UNL     1     109.794 130.457 143.156  0.00  0.00    +0.000 OA
ATOM     16  C   UNL     1     110.726 130.899 140.907  0.00  0.00    +0.000 C 
ATOM     17  C   UNL     1     111.165 131.088 141.580  0.00  0.00    +0.000 C 
ATOM     18  C   UNL     1     110.854 130.940 142.330  0.00  0.00    +0.000 C 
ATOM     19  C   UNL     1     110.105 130.604 142.406  0.00  0.00    +0.000 C 
ATOM     20  C   UNL     1     109.666 130.416 141.734  0.00  0.00    +0.000 C 
BRANCH  20  21
ATOM     21  C   UNL     1     108.916 130.079 141.811  0.00  0.00    +0.000 C 
BRANCH  21  22
ATOM     22  O   UNL     1     108.736 129.380 141.413  0.00  0.00    +0.000 OA
BRANCH  22  24
ATOM     23  O   UNL     1     107.410 129.551 140.910  0.00  0.00    +0.000 OA
ATOM     24  C   UNL     1     107.954 129.124 141.361  0.00  0.00    +0.000 C 
ATOM     25  C   UNL     1     107.715 128.442 141.759  0.00  0.00    +0.000 C 
ENDBRANCH  22  24
ENDBRANCH  21  22
ENDBRANCH  20  21
ENDBRANCH  11  16
ENDBRANCH   4  11
BRANCH   7  26
ATOM     26  O   UNL     1     111.027 129.692 139.214  0.00  0.00    +0.000 OA
BRANCH  26  31
ATOM     27  O   UNL     1     110.834 128.085 138.897  0.00  0.00    +0.000 OA
ATOM     28  O   UNL     1     111.733 127.325 137.732  0.00  0.00    +0.000 OA
ATOM     29  O   UNL     1     113.045 129.850 137.197  0.00  0.00    +0.000 OA
ATOM     30  O   UNL     1     113.427 128.688 136.433  0.00  0.00    +0.000 OA
ATOM     31  C   UNL     1     111.483 129.330 138.631  0.00  0.00    +0.000 A 
ATOM     32  C   UNL     1     111.386 128.526 138.472  0.00  0.00    +0.000 A 
ATOM     33  C   UNL     1     112.035 129.771 138.206  0.00  0.00    +0.000 A 
ATOM     34  C   UNL     1     111.843 128.163 137.888  0.00  0.00    +0.000 A 
ATOM     35  C   UNL     1     112.492 129.408 137.622  0.00  0.00    +0.000 A 
ATOM     36  C   UNL     1     112.396 128.605 137.463  0.00  0.00    +0.000 A 
ATOM     37  C   UNL     1     112.877 128.239 136.852  0.00  0.00    +0.000 A 
ATOM     38  C   UNL     1     112.206 126.942 137.125  0.00  0.00    +0.000 A 
ATOM     39  C   UNL     1     112.781 127.402 136.683  0.00  0.00    +0.000 A 
BRANCH  38  41
ATOM     40  O   UNL     1     110.909 124.842 135.684  0.00  0.00    +0.000 OA
ATOM     41  C   UNL     1     112.108 126.138 136.968  0.00  0.00    +0.000 A 
ATOM     42  C   UNL     1     111.557 125.893 136.404  0.00  0.00    +0.000 A 
ATOM     43  C   UNL     1     112.560 125.581 137.373  0.00  0.00    +0.000 A 
ATOM     44  C   UNL     1     111.459 125.088 136.247  0.00  0.00    +0.000 A 
ATOM     45  C   UNL     1     112.462 124.777 137.216  0.00  0.00    +0.000 A 
ATOM     46  C   UNL     1     111.911 124.531 136.653  0.00  0.00    +0.000 A 
BRANCH  46  47
ATOM     47  O   UNL     1     111.813 123.727 136.496  0.00  0.00    +0.000 OA
ATOM     48  C   UNL     1     112.102 123.164 137.026  0.00  0.00    +0.000 C 
ENDBRANCH  46  47
ENDBRANCH  38  41
ENDBRANCH  26  31
ENDBRANCH   7  26
TORSDOF 10
ENDMDL
MODEL 8
REMARK VINA RESULT:      -9.8      2.290      4.553
REMARK  Name = 74977927
REMARK  10 active torsions:
REMARK  status: ('A' for Active; 'I' for Inactive)
REMARK    1  A    between atoms: O_1  and  C_19
REMARK    2  A    between atoms: O_1  and  C_21
REMARK    3  A    between atoms: O_5  and  C_25
REMARK    4  A    between atoms: O_5  and  C_31
REMARK    5  A    between atoms: O_10  and  C_30
REMARK    6  A    between atoms: O_10  and  C_34
REMARK    7  A    between atoms: O_18  and  C_47
REMARK    8  A    between atoms: C_26  and  C_29
REMARK    9  A    between atoms: C_28  and  C_30
REMARK   10  A    between atoms: C_40  and  C_42
REMARK                            x       y       z     vdW  Elec       q    Type
REMARK                         _______ _______ _______ _____ _____    ______ ____
ROOT
ATOM      1  O   UNL     1     109.932 127.922 139.138  0.00  0.00    +0.000 OA
ATOM      2  O   UNL     1     112.314 128.564 138.942  0.00  0.00    +0.000 OA
ATOM      3  O   UNL     1     111.132 129.660 138.590  0.00  0.00    +0.000 OA
ATOM      4  C   UNL     1     111.317 127.587 139.248  0.00  0.00    +0.000 C 
ATOM      5  C   UNL     1     111.520 128.350 139.007  0.00  0.00    +0.000 C 
ATOM      6  C   UNL     1     110.930 128.898 138.831  0.00  0.00    +0.000 C 
ATOM      7  C   UNL     1     110.523 127.373 139.314  0.00  0.00    +0.000 C 
ATOM      8  C   UNL     1     110.135 128.684 138.897  0.00  0.00    +0.000 C 
ENDROOT
BRANCH   8  10
ATOM      9  O   UNL     1     108.977 129.056 138.148  0.00  0.00    +0.000 OA
ATOM     10  C   UNL     1     109.544 129.232 138.721  0.00  0.00    +0.000 C 
ENDBRANCH   8  10
BRANCH   4  11
ATOM     11  O   UNL     1     111.907 127.039 139.424  0.00  0.00    +0.000 OA
BRANCH  11  16
ATOM     12  O   UNL     1     111.935 126.536 138.087  0.00  0.00    +0.000 OA
ATOM     13  O   UNL     1     113.449 126.499 139.658  0.00  0.00    +0.000 OA
ATOM     14  O   UNL     1     114.247 125.727 138.438  0.00  0.00    +0.000 OA
ATOM     15  O   UNL     1     113.503 125.494 136.984  0.00  0.00    +0.000 OA
ATOM     16  C   UNL     1     112.306 126.653 138.814  0.00  0.00    +0.000 C 
ATOM     17  C   UNL     1     113.078 126.383 138.931  0.00  0.00    +0.000 C 
ATOM     18  C   UNL     1     113.477 125.996 138.321  0.00  0.00    +0.000 C 
ATOM     19  C   UNL     1     113.104 125.880 137.594  0.00  0.00    +0.000 C 
ATOM     20  C   UNL     1     112.334 126.150 137.477  0.00  0.00    +0.000 C 
BRANCH  20  21
ATOM     21  C   UNL     1     111.961 126.034 136.750  0.00  0.00    +0.000 C 
BRANCH  21  22
ATOM     22  O   UNL     1     111.196 125.727 136.723  0.00  0.00    +0.000 OA
BRANCH  22  24
ATOM     23  O   UNL     1     110.846 124.980 135.558  0.00  0.00    +0.000 OA
ATOM     24  C   UNL     1     110.797 125.673 136.003  0.00  0.00    +0.000 C 
ATOM     25  C   UNL     1     110.351 126.310 135.729  0.00  0.00    +0.000 C 
ENDBRANCH  22  24
ENDBRANCH  21  22
ENDBRANCH  20  21
ENDBRANCH  11  16
ENDBRANCH   4  11
BRANCH   7  26
ATOM     26  O   UNL     1     110.319 126.611 139.555  0.00  0.00    +0.000 OA
BRANCH  26  31
ATOM     27  O   UNL     1     109.035 125.670 139.121  0.00  0.00    +0.000 OA
ATOM     28  O   UNL     1     107.765 125.421 140.153  0.00  0.00    +0.000 OA
ATOM     29  O   UNL     1     109.103 127.099 142.095  0.00  0.00    +0.000 OA
ATOM     30  O   UNL     1     107.825 126.522 142.433  0.00  0.00    +0.000 OA
ATOM     31  C   UNL     1     109.694 126.498 140.081  0.00  0.00    +0.000 A 
ATOM     32  C   UNL     1     109.052 126.027 139.864  0.00  0.00    +0.000 A 
ATOM     33  C   UNL     1     109.711 126.855 140.824  0.00  0.00    +0.000 A 
ATOM     34  C   UNL     1     108.428 125.914 140.391  0.00  0.00    +0.000 A 
ATOM     35  C   UNL     1     109.086 126.742 141.351  0.00  0.00    +0.000 A 
ATOM     36  C   UNL     1     108.444 126.271 141.135  0.00  0.00    +0.000 A 
ATOM     37  C   UNL     1     107.800 126.161 141.692  0.00  0.00    +0.000 A 
ATOM     38  C   UNL     1     107.110 125.299 140.698  0.00  0.00    +0.000 A 
ATOM     39  C   UNL     1     107.129 125.671 141.471  0.00  0.00    +0.000 A 
BRANCH  38  41
ATOM     40  O   UNL     1     105.835 122.743 140.606  0.00  0.00    +0.000 OA
ATOM     41  C   UNL     1     106.470 124.828 140.478  0.00  0.00    +0.000 A 
ATOM     42  C   UNL     1     106.473 124.021 140.652  0.00  0.00    +0.000 A 
ATOM     43  C   UNL     1     105.827 125.163 140.086  0.00  0.00    +0.000 A 
ATOM     44  C   UNL     1     105.832 123.550 140.433  0.00  0.00    +0.000 A 
ATOM     45  C   UNL     1     105.187 124.692 139.866  0.00  0.00    +0.000 A 
ATOM     46  C   UNL     1     105.189 123.885 140.040  0.00  0.00    +0.000 A 
BRANCH  46  47
ATOM     47  O   UNL     1     104.548 123.414 139.820  0.00  0.00    +0.000 OA
ATOM     48  C   UNL     1     103.981 123.705 139.296  0.00  0.00    +0.000 C 
ENDBRANCH  46  47
ENDBRANCH  38  41
ENDBRANCH  26  31
ENDBRANCH   7  26
TORSDOF 10
ENDMDL
MODEL 9
REMARK VINA RESULT:      -9.8      4.662      7.432
REMARK  Name = 74977927
REMARK  10 active torsions:
REMARK  status: ('A' for Active; 'I' for Inactive)
REMARK    1  A    between atoms: O_1  and  C_19
REMARK    2  A    between atoms: O_1  and  C_21
REMARK    3  A    between atoms: O_5  and  C_25
REMARK    4  A    between atoms: O_5  and  C_31
REMARK    5  A    between atoms: O_10  and  C_30
REMARK    6  A    between atoms: O_10  and  C_34
REMARK    7  A    between atoms: O_18  and  C_47
REMARK    8  A    between atoms: C_26  and  C_29
REMARK    9  A    between atoms: C_28  and  C_30
REMARK   10  A    between atoms: C_40  and  C_42
REMARK                            x       y       z     vdW  Elec       q    Type
REMARK                         _______ _______ _______ _____ _____    ______ ____
ROOT
ATOM      1  O   UNL     1     110.211 126.961 138.689  0.00  0.00    +0.000 OA
ATOM      2  O   UNL     1     110.934 124.594 138.717  0.00  0.00    +0.000 OA
ATOM      3  O   UNL     1     110.000 125.186 139.941  0.00  0.00    +0.000 OA
ATOM      4  C   UNL     1     110.919 125.876 138.086  0.00  0.00    +0.000 C 
ATOM      5  C   UNL     1     110.693 125.383 138.708  0.00  0.00    +0.000 C 
ATOM      6  C   UNL     1     110.226 125.679 139.320  0.00  0.00    +0.000 C 
ATOM      7  C   UNL     1     110.678 126.665 138.076  0.00  0.00    +0.000 C 
ATOM      8  C   UNL     1     109.985 126.468 139.310  0.00  0.00    +0.000 C 
ENDROOT
BRANCH   8  10
ATOM      9  O   UNL     1     109.777 127.414 140.360  0.00  0.00    +0.000 OA
ATOM     10  C   UNL     1     109.518 126.764 139.922  0.00  0.00    +0.000 C 
ENDBRANCH   8  10
BRANCH   4  11
ATOM     11  O   UNL     1     111.386 125.580 137.474  0.00  0.00    +0.000 OA
BRANCH  11  16
ATOM     12  O   UNL     1     112.592 125.982 138.126  0.00  0.00    +0.000 OA
ATOM     13  O   UNL     1     112.238 124.495 136.569  0.00  0.00    +0.000 OA
ATOM     14  O   UNL     1     113.870 124.354 136.770  0.00  0.00    +0.000 OA
ATOM     15  O   UNL     1     114.649 125.300 137.875  0.00  0.00    +0.000 OA
ATOM     16  C   UNL     1     112.201 125.510 137.574  0.00  0.00    +0.000 C 
ATOM     17  C   UNL     1     112.628 124.967 137.122  0.00  0.00    +0.000 C 
ATOM     18  C   UNL     1     113.444 124.897 137.222  0.00  0.00    +0.000 C 
ATOM     19  C   UNL     1     113.833 125.370 137.775  0.00  0.00    +0.000 C 
ATOM     20  C   UNL     1     113.407 125.912 138.227  0.00  0.00    +0.000 C 
BRANCH  20  21
ATOM     21  C   UNL     1     113.797 126.386 138.780  0.00  0.00    +0.000 C 
BRANCH  21  22
ATOM     22  O   UNL     1     113.482 126.479 139.536  0.00  0.00    +0.000 OA
BRANCH  22  24
ATOM     23  O   UNL     1     113.542 127.869 139.856  0.00  0.00    +0.000 OA
ATOM     24  C   UNL     1     113.750 127.088 140.023  0.00  0.00    +0.000 C 
ATOM     25  C   UNL     1     114.225 126.917 140.676  0.00  0.00    +0.000 C 
ENDBRANCH  22  24
ENDBRANCH  21  22
ENDBRANCH  20  21
ENDBRANCH  11  16
ENDBRANCH   4  11
BRANCH   7  26
ATOM     26  O   UNL     1     110.903 127.158 137.455  0.00  0.00    +0.000 OA
BRANCH  26  31
ATOM     27  O   UNL     1     111.244 128.764 137.627  0.00  0.00    +0.000 OA
ATOM     28  O   UNL     1     110.212 129.926 137.058  0.00  0.00    +0.000 OA
ATOM     29  O   UNL     1     108.461 127.818 136.125  0.00  0.00    +0.000 OA
ATOM     30  O   UNL     1     108.079 129.191 135.907  0.00  0.00    +0.000 OA
ATOM     31  C   UNL     1     110.378 127.724 137.166  0.00  0.00    +0.000 A 
ATOM     32  C   UNL     1     110.549 128.527 137.252  0.00  0.00    +0.000 A 
ATOM     33  C   UNL     1     109.683 127.488 136.791  0.00  0.00    +0.000 A 
ATOM     34  C   UNL     1     110.023 129.093 136.962  0.00  0.00    +0.000 A 
ATOM     35  C   UNL     1     109.157 128.054 136.501  0.00  0.00    +0.000 A 
ATOM     36  C   UNL     1     109.327 128.857 136.587  0.00  0.00    +0.000 A 
ATOM     37  C   UNL     1     108.772 129.437 136.281  0.00  0.00    +0.000 A 
ATOM     38  C   UNL     1     109.668 130.521 136.758  0.00  0.00    +0.000 A 
ATOM     39  C   UNL     1     108.944 130.274 136.367  0.00  0.00    +0.000 A 
BRANCH  38  41
ATOM     40  O   UNL     1     109.694 132.887 138.362  0.00  0.00    +0.000 OA
ATOM     41  C   UNL     1     109.840 131.323 136.845  0.00  0.00    +0.000 A 
ATOM     42  C   UNL     1     109.681 131.704 137.560  0.00  0.00    +0.000 A 
ATOM     43  C   UNL     1     110.171 131.744 136.219  0.00  0.00    +0.000 A 
ATOM     44  C   UNL     1     109.853 132.506 137.648  0.00  0.00    +0.000 A 
ATOM     45  C   UNL     1     110.344 132.546 136.306  0.00  0.00    +0.000 A 
ATOM     46  C   UNL     1     110.185 132.927 137.020  0.00  0.00    +0.000 A 
BRANCH  46  47
ATOM     47  O   UNL     1     110.357 133.729 137.108  0.00  0.00    +0.000 OA
ATOM     48  C   UNL     1     110.819 134.116 136.544  0.00  0.00    +0.000 C 
ENDBRANCH  46  47
ENDBRANCH  38  41
ENDBRANCH  26  31
ENDBRANCH   7  26
TORSDOF 10
ENDMDL
MODEL 10
REMARK VINA RESULT:      -9.8      6.290      9.035
REMARK  Name = 74977927
REMARK  10 active torsions:
REMARK  status: ('A' for Active; 'I' for Inactive)
REMARK    1  A    between atoms: O_1  and  C_19
REMARK    2  A    between atoms: O_1  and  C_21
REMARK    3  A    between atoms: O_5  and  C_25
REMARK    4  A    between atoms: O_5  and  C_31
REMARK    5  A    between atoms: O_10  and  C_30
REMARK    6  A    between atoms: O_10  and  C_34
REMARK    7  A    between atoms: O_18  and  C_47
REMARK    8  A    between atoms: C_26  and  C_29
REMARK    9  A    between atoms: C_28  and  C_30
REMARK   10  A    between atoms: C_40  and  C_42
REMARK                            x       y       z     vdW  Elec       q    Type
REMARK                         _______ _______ _______ _____ _____    ______ ____
ROOT
ATOM      1  O   UNL     1     112.600 129.853 137.156  0.00  0.00    +0.000 OA
ATOM      2  O   UNL     1     111.723 128.919 135.038  0.00  0.00    +0.000 OA
ATOM      3  O   UNL     1     113.141 129.762 135.044  0.00  0.00    +0.000 OA
ATOM      4  C   UNL     1     111.598 129.119 136.447  0.00  0.00    +0.000 C 
ATOM      5  C   UNL     1     112.016 129.230 135.744  0.00  0.00    +0.000 C 
ATOM      6  C   UNL     1     112.724 129.652 135.746  0.00  0.00    +0.000 C 
ATOM      7  C   UNL     1     111.891 129.431 137.153  0.00  0.00    +0.000 C 
ATOM      8  C   UNL     1     113.016 129.963 136.452  0.00  0.00    +0.000 C 
ENDROOT
BRANCH   8  10
ATOM      9  O   UNL     1     113.746 131.153 136.758  0.00  0.00    +0.000 OA
ATOM     10  C   UNL     1     113.725 130.385 136.455  0.00  0.00    +0.000 C 
ENDBRANCH   8  10
BRANCH   4  11
ATOM     11  O   UNL     1     110.890 128.698 136.445  0.00  0.00    +0.000 OA
BRANCH  11  16
ATOM     12  O   UNL     1     110.168 129.897 136.153  0.00  0.00    +0.000 OA
ATOM     13  O   UNL     1     109.514 127.816 136.220  0.00  0.00    +0.000 OA
ATOM     14  O   UNL     1     108.105 128.574 135.816  0.00  0.00    +0.000 OA
ATOM     15  O   UNL     1     108.072 130.214 135.637  0.00  0.00    +0.000 OA
ATOM     16  C   UNL     1     110.185 129.077 136.243  0.00  0.00    +0.000 C 
ATOM     17  C   UNL     1     109.497 128.636 136.130  0.00  0.00    +0.000 C 
ATOM     18  C   UNL     1     108.792 129.014 135.929  0.00  0.00    +0.000 C 
ATOM     19  C   UNL     1     108.776 129.835 135.839  0.00  0.00    +0.000 C 
ATOM     20  C   UNL     1     109.464 130.276 135.951  0.00  0.00    +0.000 C 
BRANCH  20  21
ATOM     21  C   UNL     1     109.448 131.096 135.862  0.00  0.00    +0.000 C 
BRANCH  21  22
ATOM     22  O   UNL     1     109.661 131.583 136.493  0.00  0.00    +0.000 OA
BRANCH  22  24
ATOM     23  O   UNL     1     109.501 132.763 135.705  0.00  0.00    +0.000 OA
ATOM     24  C   UNL     1     109.821 132.381 136.362  0.00  0.00    +0.000 C 
ATOM     25  C   UNL     1     110.302 132.798 136.888  0.00  0.00    +0.000 C 
ENDBRANCH  22  24
ENDBRANCH  21  22
ENDBRANCH  20  21
ENDBRANCH  11  16
ENDBRANCH   4  11
BRANCH   7  26
ATOM     26  O   UNL     1     111.474 129.320 137.857  0.00  0.00    +0.000 OA
BRANCH  26  31
ATOM     27  O   UNL     1     111.234 130.206 139.228  0.00  0.00    +0.000 OA
ATOM     28  O   UNL     1     112.027 129.843 140.635  0.00  0.00    +0.000 OA
ATOM     29  O   UNL     1     113.330 127.657 139.256  0.00  0.00    +0.000 OA
ATOM     30  O   UNL     1     113.634 127.886 140.647  0.00  0.00    +0.000 OA
ATOM     31  C   UNL     1     111.878 129.126 138.549  0.00  0.00    +0.000 A 
ATOM     32  C   UNL     1     111.757 129.569 139.235  0.00  0.00    +0.000 A 
ATOM     33  C   UNL     1     112.402 128.489 138.556  0.00  0.00    +0.000 A 
ATOM     34  C   UNL     1     112.161 129.374 139.927  0.00  0.00    +0.000 A 
ATOM     35  C   UNL     1     112.805 128.294 139.249  0.00  0.00    +0.000 A 
ATOM     36  C   UNL     1     112.686 128.737 139.935  0.00  0.00    +0.000 A 
ATOM     37  C   UNL     1     113.112 128.524 140.650  0.00  0.00    +0.000 A 
ATOM     38  C   UNL     1     112.446 129.645 141.360  0.00  0.00    +0.000 A 
ATOM     39  C   UNL     1     112.991 128.982 141.367  0.00  0.00    +0.000 A 
BRANCH  38  41
ATOM     40  O   UNL     1     112.901 132.021 142.882  0.00  0.00    +0.000 OA
ATOM     41  C   UNL     1     112.323 130.090 142.044  0.00  0.00    +0.000 A 
ATOM     42  C   UNL     1     112.673 130.833 142.121  0.00  0.00    +0.000 A 
ATOM     43  C   UNL     1     111.853 129.791 142.651  0.00  0.00    +0.000 A 
ATOM     44  C   UNL     1     112.551 131.278 142.805  0.00  0.00    +0.000 A 
ATOM     45  C   UNL     1     111.730 130.235 143.335  0.00  0.00    +0.000 A 
ATOM     46  C   UNL     1     112.080 130.979 143.412  0.00  0.00    +0.000 A 
BRANCH  46  47
ATOM     47  O   UNL     1     111.958 131.423 144.097  0.00  0.00    +0.000 OA
ATOM     48  C   UNL     1     111.538 131.101 144.730  0.00  0.00    +0.000 C 
ENDBRANCH  46  47
ENDBRANCH  38  41
ENDBRANCH  26  31
ENDBRANCH   7  26
TORSDOF 10
ENDMDL
