MODEL 1
REMARK VINA RESULT:      -9.3      0.000      0.000
REMARK  Name = 42607579
REMARK  13 active torsions:
REMARK  status: ('A' for Active; 'I' for Inactive)
REMARK    1  A    between atoms: O_2  and  C_18
REMARK    2  A    between atoms: O_2  and  C_23
REMARK    3  A    between atoms: O_5  and  C_20
REMARK    4  A    between atoms: O_5  and  C_22
REMARK    5  A    between atoms: O_6  and  C_21
REMARK    6  A    between atoms: O_6  and  C_26
REMARK    7  A    between atoms: O_14  and  C_47
REMARK    8  A    between atoms: C_19  and  C_21
REMARK    9  A    between atoms: C_23  and  C_27
REMARK   10  A    between atoms: C_30  and  C_33
REMARK   11  A    between atoms: C_32  and  C_34
REMARK   12  A    between atoms: C_33  and  C_35
REMARK   13  A    between atoms: C_38  and  C_42
REMARK                            x       y       z     vdW  Elec       q    Type
REMARK                         _______ _______ _______ _____ _____    ______ ____
ROOT
ATOM      1  O   UNL     1     111.736 130.626 140.770  0.00  0.00    +0.000 OA
ATOM      2  O   UNL     1     110.142 131.509 142.445  0.00  0.00    +0.000 OA
ATOM      3  O   UNL     1     109.697 131.398 140.860  0.00  0.00    +0.000 OA
ATOM      4  C   UNL     1     110.674 131.215 141.887  0.00  0.00    +0.000 C 
ATOM      5  C   UNL     1     110.451 131.159 141.095  0.00  0.00    +0.000 C 
ATOM      6  C   UNL     1     111.428 130.976 142.121  0.00  0.00    +0.000 C 
ATOM      7  C   UNL     1     110.983 130.865 140.536  0.00  0.00    +0.000 C 
ATOM      8  C   UNL     1     111.960 130.682 141.563  0.00  0.00    +0.000 C 
ENDROOT
BRANCH   6   9
ATOM      9  O   UNL     1     111.651 131.032 142.914  0.00  0.00    +0.000 OA
BRANCH   9  11
ATOM     10  O   UNL     1     112.111 132.375 142.764  0.00  0.00    +0.000 OA
ATOM     11  C   UNL     1     111.827 131.768 143.242  0.00  0.00    +0.000 C 
BRANCH  11  12
ATOM     12  C   UNL     1     111.717 131.894 144.050  0.00  0.00    +0.000 C 
ATOM     13  C   UNL     1     112.187 132.444 144.448  0.00  0.00    +0.000 C 
BRANCH  13  16
ATOM     14  O   UNL     1     110.878 133.820 146.584  0.00  0.00    +0.000 OA
ATOM     15  O   UNL     1     111.756 132.953 147.680  0.00  0.00    +0.000 OA
ATOM     16  C   UNL     1     112.079 132.572 145.256  0.00  0.00    +0.000 A 
ATOM     17  C   UNL     1     111.532 133.132 145.516  0.00  0.00    +0.000 A 
ATOM     18  C   UNL     1     112.518 132.138 145.804  0.00  0.00    +0.000 A 
ATOM     19  C   UNL     1     111.425 133.259 146.324  0.00  0.00    +0.000 A 
ATOM     20  C   UNL     1     112.410 132.266 146.612  0.00  0.00    +0.000 A 
ATOM     21  C   UNL     1     111.863 132.826 146.872  0.00  0.00    +0.000 A 
ENDBRANCH  13  16
ENDBRANCH  11  12
ENDBRANCH   9  11
ENDBRANCH   6   9
BRANCH   8  22
ATOM     22  O   UNL     1     112.713 130.443 141.797  0.00  0.00    +0.000 OA
BRANCH  22  25
ATOM     23  O   UNL     1     114.193 130.453 141.067  0.00  0.00    +0.000 OA
ATOM     24  O   UNL     1     114.833 129.049 140.481  0.00  0.00    +0.000 OA
ATOM     25  C   UNL     1     113.033 129.741 141.504  0.00  0.00    +0.000 A 
ATOM     26  C   UNL     1     113.773 129.746 141.139  0.00  0.00    +0.000 A 
ATOM     27  C   UNL     1     112.613 129.034 141.576  0.00  0.00    +0.000 A 
ATOM     28  C   UNL     1     114.093 129.044 140.846  0.00  0.00    +0.000 A 
ATOM     29  C   UNL     1     112.933 128.333 141.283  0.00  0.00    +0.000 A 
ATOM     30  C   UNL     1     113.673 128.338 140.918  0.00  0.00    +0.000 A 
BRANCH  30  32
ATOM     31  O   UNL     1     114.569 127.233 141.056  0.00  0.00    +0.000 OA
ATOM     32  C   UNL     1     113.993 127.636 140.625  0.00  0.00    +0.000 C 
BRANCH  32  33
ATOM     33  C   UNL     1     113.737 127.337 139.899  0.00  0.00    +0.000 C 
ATOM     34  C   UNL     1     113.899 126.554 139.695  0.00  0.00    +0.000 C 
BRANCH  34  36
ATOM     35  O   UNL     1     114.486 125.406 137.145  0.00  0.00    +0.000 OA
ATOM     36  C   UNL     1     113.643 126.256 138.971  0.00  0.00    +0.000 A 
ATOM     37  C   UNL     1     114.192 125.980 138.420  0.00  0.00    +0.000 A 
ATOM     38  C   UNL     1     112.837 126.232 138.796  0.00  0.00    +0.000 A 
ATOM     39  C   UNL     1     113.936 125.682 137.695  0.00  0.00    +0.000 A 
ATOM     40  C   UNL     1     112.580 125.933 138.070  0.00  0.00    +0.000 A 
ATOM     41  C   UNL     1     113.130 125.658 137.521  0.00  0.00    +0.000 A 
BRANCH  41  42
ATOM     42  O   UNL     1     112.874 125.360 136.795  0.00  0.00    +0.000 OA
ATOM     43  C   UNL     1     112.068 125.343 136.617  0.00  0.00    +0.000 C 
ENDBRANCH  41  42
ENDBRANCH  34  36
ENDBRANCH  32  33
ENDBRANCH  30  32
ENDBRANCH  22  25
ENDBRANCH   8  22
BRANCH   7  44
ATOM     44  C   UNL     1     110.759 130.810 139.744  0.00  0.00    +0.000 C 
BRANCH  44  45
ATOM     45  O   UNL     1     111.311 130.951 139.148  0.00  0.00    +0.000 OA
BRANCH  45  47
ATOM     46  O   UNL     1     110.736 131.373 137.911  0.00  0.00    +0.000 OA
ATOM     47  C   UNL     1     111.118 130.797 138.362  0.00  0.00    +0.000 C 
ATOM     48  C   UNL     1     111.307 130.068 138.025  0.00  0.00    +0.000 C 
ENDBRANCH  45  47
ENDBRANCH  44  45
ENDBRANCH   7  44
TORSDOF 13
ENDMDL
MODEL 2
REMARK VINA RESULT:      -9.2      6.687      8.937
REMARK  Name = 42607579
REMARK  13 active torsions:
REMARK  status: ('A' for Active; 'I' for Inactive)
REMARK    1  A    between atoms: O_2  and  C_18
REMARK    2  A    between atoms: O_2  and  C_23
REMARK    3  A    between atoms: O_5  and  C_20
REMARK    4  A    between atoms: O_5  and  C_22
REMARK    5  A    between atoms: O_6  and  C_21
REMARK    6  A    between atoms: O_6  and  C_26
REMARK    7  A    between atoms: O_14  and  C_47
REMARK    8  A    between atoms: C_19  and  C_21
REMARK    9  A    between atoms: C_23  and  C_27
REMARK   10  A    between atoms: C_30  and  C_33
REMARK   11  A    between atoms: C_32  and  C_34
REMARK   12  A    between atoms: C_33  and  C_35
REMARK   13  A    between atoms: C_38  and  C_42
REMARK                            x       y       z     vdW  Elec       q    Type
REMARK                         _______ _______ _______ _____ _____    ______ ____
ROOT
ATOM      1  O   UNL     1     107.165 126.151 142.430  0.00  0.00    +0.000 OA
ATOM      2  O   UNL     1     108.353 128.248 141.867  0.00  0.00    +0.000 OA
ATOM      3  O   UNL     1     107.451 128.156 143.245  0.00  0.00    +0.000 OA
ATOM      4  C   UNL     1     107.957 127.549 142.054  0.00  0.00    +0.000 C 
ATOM      5  C   UNL     1     107.506 127.503 142.743  0.00  0.00    +0.000 C 
ATOM      6  C   UNL     1     108.012 126.896 141.553  0.00  0.00    +0.000 C 
ATOM      7  C   UNL     1     107.109 126.804 142.931  0.00  0.00    +0.000 C 
ATOM      8  C   UNL     1     107.616 126.197 141.740  0.00  0.00    +0.000 C 
ENDROOT
BRANCH   6   9
ATOM      9  O   UNL     1     108.464 126.942 140.864  0.00  0.00    +0.000 OA
BRANCH   9  11
ATOM     10  O   UNL     1     109.654 126.732 141.625  0.00  0.00    +0.000 OA
ATOM     11  C   UNL     1     109.280 126.828 140.896  0.00  0.00    +0.000 C 
BRANCH  11  12
ATOM     12  C   UNL     1     109.722 126.809 140.200  0.00  0.00    +0.000 C 
ATOM     13  C   UNL     1     110.409 126.354 140.159  0.00  0.00    +0.000 C 
BRANCH  13  16
ATOM     14  O   UNL     1     111.083 125.086 137.689  0.00  0.00    +0.000 OA
ATOM     15  O   UNL     1     112.179 126.278 137.376  0.00  0.00    +0.000 OA
ATOM     16  C   UNL     1     110.851 126.334 139.463  0.00  0.00    +0.000 A 
ATOM     17  C   UNL     1     110.745 125.719 138.924  0.00  0.00    +0.000 A 
ATOM     18  C   UNL     1     111.400 126.931 139.307  0.00  0.00    +0.000 A 
ATOM     19  C   UNL     1     111.188 125.701 138.228  0.00  0.00    +0.000 A 
ATOM     20  C   UNL     1     111.842 126.912 138.611  0.00  0.00    +0.000 A 
ATOM     21  C   UNL     1     111.736 126.297 138.072  0.00  0.00    +0.000 A 
ENDBRANCH  13  16
ENDBRANCH  11  12
ENDBRANCH   9  11
ENDBRANCH   6   9
BRANCH   8  22
ATOM     22  O   UNL     1     107.671 125.545 141.239  0.00  0.00    +0.000 OA
BRANCH  22  25
ATOM     23  O   UNL     1     107.745 123.897 141.279  0.00  0.00    +0.000 OA
ATOM     24  O   UNL     1     106.401 123.003 140.938  0.00  0.00    +0.000 OA
ATOM     25  C   UNL     1     106.999 125.098 141.069  0.00  0.00    +0.000 A 
ATOM     26  C   UNL     1     107.035 124.274 141.088  0.00  0.00    +0.000 A 
ATOM     27  C   UNL     1     106.290 125.475 140.878  0.00  0.00    +0.000 A 
ATOM     28  C   UNL     1     106.363 123.827 140.918  0.00  0.00    +0.000 A 
ATOM     29  C   UNL     1     105.618 125.028 140.708  0.00  0.00    +0.000 A 
ATOM     30  C   UNL     1     105.655 124.203 140.727  0.00  0.00    +0.000 A 
BRANCH  30  32
ATOM     31  O   UNL     1     104.639 123.289 141.143  0.00  0.00    +0.000 OA
ATOM     32  C   UNL     1     104.983 123.756 140.557  0.00  0.00    +0.000 C 
BRANCH  32  33
ATOM     33  C   UNL     1     104.655 123.777 139.800  0.00  0.00    +0.000 C 
ATOM     34  C   UNL     1     103.915 123.439 139.661  0.00  0.00    +0.000 C 
BRANCH  34  36
ATOM     35  O   UNL     1     101.652 123.796 137.953  0.00  0.00    +0.000 OA
ATOM     36  C   UNL     1     103.587 123.460 138.905  0.00  0.00    +0.000 A 
ATOM     37  C   UNL     1     102.783 123.618 138.807  0.00  0.00    +0.000 A 
ATOM     38  C   UNL     1     104.064 123.322 138.246  0.00  0.00    +0.000 A 
ATOM     39  C   UNL     1     102.456 123.638 138.051  0.00  0.00    +0.000 A 
ATOM     40  C   UNL     1     103.736 123.343 137.488  0.00  0.00    +0.000 A 
ATOM     41  C   UNL     1     102.932 123.501 137.391  0.00  0.00    +0.000 A 
BRANCH  41  42
ATOM     42  O   UNL     1     102.605 123.521 136.634  0.00  0.00    +0.000 OA
ATOM     43  C   UNL     1     102.970 123.116 136.015  0.00  0.00    +0.000 C 
ENDBRANCH  41  42
ENDBRANCH  34  36
ENDBRANCH  32  33
ENDBRANCH  30  32
ENDBRANCH  22  25
ENDBRANCH   8  22
BRANCH   7  44
ATOM     44  C   UNL     1     106.658 126.758 143.620  0.00  0.00    +0.000 C 
BRANCH  44  45
ATOM     45  O   UNL     1     106.620 126.052 144.043  0.00  0.00    +0.000 OA
BRANCH  45  47
ATOM     46  O   UNL     1     105.267 126.105 144.496  0.00  0.00    +0.000 OA
ATOM     47  C   UNL     1     106.065 125.961 144.646  0.00  0.00    +0.000 C 
ATOM     48  C   UNL     1     106.307 125.726 145.399  0.00  0.00    +0.000 C 
ENDBRANCH  45  47
ENDBRANCH  44  45
ENDBRANCH   7  44
TORSDOF 13
ENDMDL
MODEL 3
REMARK VINA RESULT:      -9.2      6.698      8.267
REMARK  Name = 42607579
REMARK  13 active torsions:
REMARK  status: ('A' for Active; 'I' for Inactive)
REMARK    1  A    between atoms: O_2  and  C_18
REMARK    2  A    between atoms: O_2  and  C_23
REMARK    3  A    between atoms: O_5  and  C_20
REMARK    4  A    between atoms: O_5  and  C_22
REMARK    5  A    between atoms: O_6  and  C_21
REMARK    6  A    between atoms: O_6  and  C_26
REMARK    7  A    between atoms: O_14  and  C_47
REMARK    8  A    between atoms: C_19  and  C_21
REMARK    9  A    between atoms: C_23  and  C_27
REMARK   10  A    between atoms: C_30  and  C_33
REMARK   11  A    between atoms: C_32  and  C_34
REMARK   12  A    between atoms: C_33  and  C_35
REMARK   13  A    between atoms: C_38  and  C_42
REMARK                            x       y       z     vdW  Elec       q    Type
REMARK                         _______ _______ _______ _____ _____    ______ ____
ROOT
ATOM      1  O   UNL     1     106.815 126.292 142.965  0.00  0.00    +0.000 OA
ATOM      2  O   UNL     1     107.288 128.720 143.050  0.00  0.00    +0.000 OA
ATOM      3  O   UNL     1     106.690 127.949 144.380  0.00  0.00    +0.000 OA
ATOM      4  C   UNL     1     107.130 127.911 143.021  0.00  0.00    +0.000 C 
ATOM      5  C   UNL     1     106.831 127.525 143.686  0.00  0.00    +0.000 C 
ATOM      6  C   UNL     1     107.272 127.486 142.327  0.00  0.00    +0.000 C 
ATOM      7  C   UNL     1     106.674 126.716 143.658  0.00  0.00    +0.000 C 
ATOM      8  C   UNL     1     107.114 126.677 142.299  0.00  0.00    +0.000 C 
ENDROOT
BRANCH   6   9
ATOM      9  O   UNL     1     107.571 127.872 141.663  0.00  0.00    +0.000 OA
BRANCH   9  11
ATOM     10  O   UNL     1     108.944 127.719 142.025  0.00  0.00    +0.000 OA
ATOM     11  C   UNL     1     108.346 128.155 141.663  0.00  0.00    +0.000 C 
BRANCH  11  12
ATOM     12  C   UNL     1     108.521 128.876 141.300  0.00  0.00    +0.000 C 
ATOM     13  C   UNL     1     109.272 129.005 140.985  0.00  0.00    +0.000 C 
BRANCH  13  16
ATOM     14  O   UNL     1     110.523 131.574 141.059  0.00  0.00    +0.000 OA
ATOM     15  O   UNL     1     109.979 131.883 139.532  0.00  0.00    +0.000 OA
ATOM     16  C   UNL     1     109.449 129.725 140.622  0.00  0.00    +0.000 A 
ATOM     17  C   UNL     1     109.898 130.290 141.022  0.00  0.00    +0.000 A 
ATOM     18  C   UNL     1     109.177 129.879 139.858  0.00  0.00    +0.000 A 
ATOM     19  C   UNL     1     110.074 131.009 140.659  0.00  0.00    +0.000 A 
ATOM     20  C   UNL     1     109.354 130.599 139.495  0.00  0.00    +0.000 A 
ATOM     21  C   UNL     1     109.803 131.164 139.896  0.00  0.00    +0.000 A 
ENDBRANCH  13  16
ENDBRANCH  11  12
ENDBRANCH   9  11
ENDBRANCH   6   9
BRANCH   8  22
ATOM     22  O   UNL     1     107.255 126.254 141.606  0.00  0.00    +0.000 OA
BRANCH  22  25
ATOM     23  O   UNL     1     107.803 124.723 141.322  0.00  0.00    +0.000 OA
ATOM     24  O   UNL     1     106.750 123.546 140.846  0.00  0.00    +0.000 OA
ATOM     25  C   UNL     1     106.729 125.665 141.368  0.00  0.00    +0.000 A 
ATOM     26  C   UNL     1     107.002 124.900 141.226  0.00  0.00    +0.000 A 
ATOM     27  C   UNL     1     105.928 125.841 141.272  0.00  0.00    +0.000 A 
ATOM     28  C   UNL     1     106.475 124.311 140.988  0.00  0.00    +0.000 A 
ATOM     29  C   UNL     1     105.402 125.253 141.034  0.00  0.00    +0.000 A 
ATOM     30  C   UNL     1     105.676 124.487 140.892  0.00  0.00    +0.000 A 
BRANCH  30  32
ATOM     31  O   UNL     1     104.983 123.266 141.156  0.00  0.00    +0.000 OA
ATOM     32  C   UNL     1     105.149 123.899 140.654  0.00  0.00    +0.000 C 
BRANCH  32  33
ATOM     33  C   UNL     1     104.789 123.942 139.912  0.00  0.00    +0.000 C 
ATOM     34  C   UNL     1     104.174 123.427 139.721  0.00  0.00    +0.000 C 
BRANCH  34  36
ATOM     35  O   UNL     1     101.849 123.884 138.122  0.00  0.00    +0.000 OA
ATOM     36  C   UNL     1     103.814 123.471 138.981  0.00  0.00    +0.000 A 
ATOM     37  C   UNL     1     103.012 123.655 138.922  0.00  0.00    +0.000 A 
ATOM     38  C   UNL     1     104.256 123.330 138.299  0.00  0.00    +0.000 A 
ATOM     39  C   UNL     1     102.652 123.699 138.181  0.00  0.00    +0.000 A 
ATOM     40  C   UNL     1     103.895 123.374 137.557  0.00  0.00    +0.000 A 
ATOM     41  C   UNL     1     103.093 123.559 137.499  0.00  0.00    +0.000 A 
BRANCH  41  42
ATOM     42  O   UNL     1     102.733 123.603 136.757  0.00  0.00    +0.000 OA
ATOM     43  C   UNL     1     103.037 123.168 136.125  0.00  0.00    +0.000 C 
ENDBRANCH  41  42
ENDBRANCH  34  36
ENDBRANCH  32  33
ENDBRANCH  30  32
ENDBRANCH  22  25
ENDBRANCH   8  22
BRANCH   7  44
ATOM     44  C   UNL     1     106.374 126.331 144.324  0.00  0.00    +0.000 C 
BRANCH  44  45
ATOM     45  O   UNL     1     106.694 125.609 144.562  0.00  0.00    +0.000 OA
BRANCH  45  47
ATOM     46  O   UNL     1     106.833 124.923 145.807  0.00  0.00    +0.000 OA
ATOM     47  C   UNL     1     106.357 125.196 145.191  0.00  0.00    +0.000 C 
ATOM     48  C   UNL     1     105.544 125.055 145.204  0.00  0.00    +0.000 C 
ENDBRANCH  45  47
ENDBRANCH  44  45
ENDBRANCH   7  44
TORSDOF 13
ENDMDL
MODEL 4
REMARK VINA RESULT:      -9.0      7.113      9.634
REMARK  Name = 42607579
REMARK  13 active torsions:
REMARK  status: ('A' for Active; 'I' for Inactive)
REMARK    1  A    between atoms: O_2  and  C_18
REMARK    2  A    between atoms: O_2  and  C_23
REMARK    3  A    between atoms: O_5  and  C_20
REMARK    4  A    between atoms: O_5  and  C_22
REMARK    5  A    between atoms: O_6  and  C_21
REMARK    6  A    between atoms: O_6  and  C_26
REMARK    7  A    between atoms: O_14  and  C_47
REMARK    8  A    between atoms: C_19  and  C_21
REMARK    9  A    between atoms: C_23  and  C_27
REMARK   10  A    between atoms: C_30  and  C_33
REMARK   11  A    between atoms: C_32  and  C_34
REMARK   12  A    between atoms: C_33  and  C_35
REMARK   13  A    between atoms: C_38  and  C_42
REMARK                            x       y       z     vdW  Elec       q    Type
REMARK                         _______ _______ _______ _____ _____    ______ ____
ROOT
ATOM      1  O   UNL     1     106.681 128.796 142.803  0.00  0.00    +0.000 OA
ATOM      2  O   UNL     1     107.477 128.373 145.108  0.00  0.00    +0.000 OA
ATOM      3  O   UNL     1     108.226 129.506 144.172  0.00  0.00    +0.000 OA
ATOM      4  C   UNL     1     107.212 128.514 144.340  0.00  0.00    +0.000 C 
ATOM      5  C   UNL     1     107.586 129.080 143.871  0.00  0.00    +0.000 C 
ATOM      6  C   UNL     1     106.571 128.088 144.039  0.00  0.00    +0.000 C 
ATOM      7  C   UNL     1     107.320 129.222 143.103  0.00  0.00    +0.000 C 
ATOM      8  C   UNL     1     106.306 128.229 143.271  0.00  0.00    +0.000 C 
ENDROOT
BRANCH   6   9
ATOM      9  O   UNL     1     106.197 127.522 144.508  0.00  0.00    +0.000 OA
BRANCH   9  11
ATOM     10  O   UNL     1     107.048 126.442 144.120  0.00  0.00    +0.000 OA
ATOM     11  C   UNL     1     106.583 126.815 144.689  0.00  0.00    +0.000 C 
BRANCH  11  12
ATOM     12  C   UNL     1     106.503 126.483 145.440  0.00  0.00    +0.000 C 
ATOM     13  C   UNL     1     106.346 125.677 145.520  0.00  0.00    +0.000 C 
BRANCH  13  16
ATOM     14  O   UNL     1     104.752 124.335 147.476  0.00  0.00    +0.000 OA
ATOM     15  O   UNL     1     106.028 124.345 148.522  0.00  0.00    +0.000 OA
ATOM     16  C   UNL     1     106.266 125.344 146.270  0.00  0.00    +0.000 A 
ATOM     17  C   UNL     1     105.548 125.006 146.497  0.00  0.00    +0.000 A 
ATOM     18  C   UNL     1     106.904 125.349 146.793  0.00  0.00    +0.000 A 
ATOM     19  C   UNL     1     105.470 124.673 147.248  0.00  0.00    +0.000 A 
ATOM     20  C   UNL     1     106.824 125.016 147.544  0.00  0.00    +0.000 A 
ATOM     21  C   UNL     1     106.107 124.678 147.771  0.00  0.00    +0.000 A 
ENDBRANCH  13  16
ENDBRANCH  11  12
ENDBRANCH   9  11
ENDBRANCH   6   9
BRANCH   8  22
ATOM     22  O   UNL     1     105.667 127.804 142.971  0.00  0.00    +0.000 OA
BRANCH  22  25
ATOM     23  O   UNL     1     105.264 127.321 141.446  0.00  0.00    +0.000 OA
ATOM     24  O   UNL     1     104.067 128.103 140.622  0.00  0.00    +0.000 OA
ATOM     25  C   UNL     1     105.068 128.195 142.559  0.00  0.00    +0.000 A 
ATOM     26  C   UNL     1     104.866 127.954 141.797  0.00  0.00    +0.000 A 
ATOM     27  C   UNL     1     104.671 128.828 142.910  0.00  0.00    +0.000 A 
ATOM     28  C   UNL     1     104.268 128.345 141.385  0.00  0.00    +0.000 A 
ATOM     29  C   UNL     1     104.072 129.219 142.498  0.00  0.00    +0.000 A 
ATOM     30  C   UNL     1     103.871 128.977 141.735  0.00  0.00    +0.000 A 
BRANCH  30  32
ATOM     31  O   UNL     1     102.847 128.972 140.738  0.00  0.00    +0.000 OA
ATOM     32  C   UNL     1     103.273 129.368 141.324  0.00  0.00    +0.000 C 
BRANCH  32  33
ATOM     33  C   UNL     1     103.099 130.156 141.497  0.00  0.00    +0.000 C 
ATOM     34  C   UNL     1     102.471 130.533 141.118  0.00  0.00    +0.000 C 
BRANCH  34  36
ATOM     35  O   UNL     1     100.713 132.494 142.228  0.00  0.00    +0.000 OA
ATOM     36  C   UNL     1     102.297 131.320 141.291  0.00  0.00    +0.000 A 
ATOM     37  C   UNL     1     101.592 131.514 141.673  0.00  0.00    +0.000 A 
ATOM     38  C   UNL     1     102.830 131.915 141.084  0.00  0.00    +0.000 A 
ATOM     39  C   UNL     1     101.418 132.301 141.846  0.00  0.00    +0.000 A 
ATOM     40  C   UNL     1     102.657 132.704 141.257  0.00  0.00    +0.000 A 
ATOM     41  C   UNL     1     101.951 132.896 141.639  0.00  0.00    +0.000 A 
BRANCH  41  42
ATOM     42  O   UNL     1     101.777 133.684 141.812  0.00  0.00    +0.000 OA
ATOM     43  C   UNL     1     102.302 134.281 141.590  0.00  0.00    +0.000 C 
ENDBRANCH  41  42
ENDBRANCH  34  36
ENDBRANCH  32  33
ENDBRANCH  30  32
ENDBRANCH  22  25
ENDBRANCH   8  22
BRANCH   7  44
ATOM     44  C   UNL     1     107.695 129.789 142.635  0.00  0.00    +0.000 C 
BRANCH  44  45
ATOM     45  O   UNL     1     107.441 129.921 141.862  0.00  0.00    +0.000 OA
BRANCH  45  47
ATOM     46  O   UNL     1     107.508 131.318 141.575  0.00  0.00    +0.000 OA
ATOM     47  C   UNL     1     107.755 130.545 141.426  0.00  0.00    +0.000 C 
ATOM     48  C   UNL     1     108.317 130.398 140.839  0.00  0.00    +0.000 C 
ENDBRANCH  45  47
ENDBRANCH  44  45
ENDBRANCH   7  44
TORSDOF 13
ENDMDL
MODEL 5
REMARK VINA RESULT:      -8.8      2.190      2.875
REMARK  Name = 42607579
REMARK  13 active torsions:
REMARK  status: ('A' for Active; 'I' for Inactive)
REMARK    1  A    between atoms: O_2  and  C_18
REMARK    2  A    between atoms: O_2  and  C_23
REMARK    3  A    between atoms: O_5  and  C_20
REMARK    4  A    between atoms: O_5  and  C_22
REMARK    5  A    between atoms: O_6  and  C_21
REMARK    6  A    between atoms: O_6  and  C_26
REMARK    7  A    between atoms: O_14  and  C_47
REMARK    8  A    between atoms: C_19  and  C_21
REMARK    9  A    between atoms: C_23  and  C_27
REMARK   10  A    between atoms: C_30  and  C_33
REMARK   11  A    between atoms: C_32  and  C_34
REMARK   12  A    between atoms: C_33  and  C_35
REMARK   13  A    between atoms: C_38  and  C_42
REMARK                            x       y       z     vdW  Elec       q    Type
REMARK                         _______ _______ _______ _____ _____    ______ ____
ROOT
ATOM      1  O   UNL     1     110.959 131.391 138.649  0.00  0.00    +0.000 OA
ATOM      2  O   UNL     1     109.288 131.112 140.453  0.00  0.00    +0.000 OA
ATOM      3  O   UNL     1     108.900 131.962 139.094  0.00  0.00    +0.000 OA
ATOM      4  C   UNL     1     109.845 131.205 139.852  0.00  0.00    +0.000 C 
ATOM      5  C   UNL     1     109.652 131.630 139.172  0.00  0.00    +0.000 C 
ATOM      6  C   UNL     1     110.597 130.872 139.930  0.00  0.00    +0.000 C 
ATOM      7  C   UNL     1     110.209 131.723 138.571  0.00  0.00    +0.000 C 
ATOM      8  C   UNL     1     111.154 130.965 139.329  0.00  0.00    +0.000 C 
ENDROOT
BRANCH   6   9
ATOM      9  O   UNL     1     110.790 130.447 140.610  0.00  0.00    +0.000 OA
BRANCH   9  11
ATOM     10  O   UNL     1     111.087 131.657 141.309  0.00  0.00    +0.000 OA
ATOM     11  C   UNL     1     110.944 130.845 141.316  0.00  0.00    +0.000 C 
BRANCH  11  12
ATOM     12  C   UNL     1     110.954 130.430 142.029  0.00  0.00    +0.000 C 
ATOM     13  C   UNL     1     111.583 130.529 142.555  0.00  0.00    +0.000 C 
BRANCH  13  16
ATOM     14  O   UNL     1     111.576 130.518 145.413  0.00  0.00    +0.000 OA
ATOM     15  O   UNL     1     111.629 128.869 145.406  0.00  0.00    +0.000 OA
ATOM     16  C   UNL     1     111.594 130.115 143.268  0.00  0.00    +0.000 A 
ATOM     17  C   UNL     1     111.579 130.524 143.984  0.00  0.00    +0.000 A 
ATOM     18  C   UNL     1     111.621 129.289 143.264  0.00  0.00    +0.000 A 
ATOM     19  C   UNL     1     111.591 130.108 144.697  0.00  0.00    +0.000 A 
ATOM     20  C   UNL     1     111.633 128.875 143.977  0.00  0.00    +0.000 A 
ATOM     21  C   UNL     1     111.617 129.284 144.694  0.00  0.00    +0.000 A 
ENDBRANCH  13  16
ENDBRANCH  11  12
ENDBRANCH   9  11
ENDBRANCH   6   9
BRANCH   8  22
ATOM     22  O   UNL     1     111.904 130.633 139.407  0.00  0.00    +0.000 OA
BRANCH  22  25
ATOM     23  O   UNL     1     113.431 130.894 138.837  0.00  0.00    +0.000 OA
ATOM     24  O   UNL     1     114.038 129.937 137.638  0.00  0.00    +0.000 OA
ATOM     25  C   UNL     1     112.208 130.155 138.808  0.00  0.00    +0.000 A 
ATOM     26  C   UNL     1     112.971 130.284 138.522  0.00  0.00    +0.000 A 
ATOM     27  C   UNL     1     111.748 129.545 138.493  0.00  0.00    +0.000 A 
ATOM     28  C   UNL     1     113.275 129.806 137.923  0.00  0.00    +0.000 A 
ATOM     29  C   UNL     1     112.052 129.067 137.893  0.00  0.00    +0.000 A 
ATOM     30  C   UNL     1     112.816 129.198 137.609  0.00  0.00    +0.000 A 
BRANCH  30  32
ATOM     31  O   UNL     1     113.402 129.059 136.313  0.00  0.00    +0.000 OA
ATOM     32  C   UNL     1     113.120 128.719 137.009  0.00  0.00    +0.000 C 
BRANCH  32  33
ATOM     33  C   UNL     1     113.141 127.900 137.106  0.00  0.00    +0.000 C 
ATOM     34  C   UNL     1     113.428 127.420 136.499  0.00  0.00    +0.000 C 
BRANCH  34  36
ATOM     35  O   UNL     1     114.867 125.044 137.171  0.00  0.00    +0.000 OA
ATOM     36  C   UNL     1     113.450 126.601 136.596  0.00  0.00    +0.000 A 
ATOM     37  C   UNL     1     114.148 126.232 136.835  0.00  0.00    +0.000 A 
ATOM     38  C   UNL     1     112.773 126.152 136.455  0.00  0.00    +0.000 A 
ATOM     39  C   UNL     1     114.169 125.413 136.932  0.00  0.00    +0.000 A 
ATOM     40  C   UNL     1     112.794 125.332 136.552  0.00  0.00    +0.000 A 
ATOM     41  C   UNL     1     113.492 124.963 136.790  0.00  0.00    +0.000 A 
BRANCH  41  42
ATOM     42  O   UNL     1     113.514 124.144 136.887  0.00  0.00    +0.000 OA
ATOM     43  C   UNL     1     112.817 123.704 136.837  0.00  0.00    +0.000 C 
ENDBRANCH  41  42
ENDBRANCH  34  36
ENDBRANCH  32  33
ENDBRANCH  30  32
ENDBRANCH  22  25
ENDBRANCH   8  22
BRANCH   7  44
ATOM     44  C   UNL     1     110.014 132.148 137.891  0.00  0.00    +0.000 C 
BRANCH  44  45
ATOM     45  O   UNL     1     110.610 132.440 137.401  0.00  0.00    +0.000 OA
BRANCH  45  47
ATOM     46  O   UNL     1     109.968 132.511 136.127  0.00  0.00    +0.000 OA
ATOM     47  C   UNL     1     110.415 132.866 136.723  0.00  0.00    +0.000 C 
ATOM     48  C   UNL     1     110.666 133.648 136.640  0.00  0.00    +0.000 C 
ENDBRANCH  45  47
ENDBRANCH  44  45
ENDBRANCH   7  44
TORSDOF 13
ENDMDL
MODEL 6
REMARK VINA RESULT:      -8.7      1.989      5.353
REMARK  Name = 42607579
REMARK  13 active torsions:
REMARK  status: ('A' for Active; 'I' for Inactive)
REMARK    1  A    between atoms: O_2  and  C_18
REMARK    2  A    between atoms: O_2  and  C_23
REMARK    3  A    between atoms: O_5  and  C_20
REMARK    4  A    between atoms: O_5  and  C_22
REMARK    5  A    between atoms: O_6  and  C_21
REMARK    6  A    between atoms: O_6  and  C_26
REMARK    7  A    between atoms: O_14  and  C_47
REMARK    8  A    between atoms: C_19  and  C_21
REMARK    9  A    between atoms: C_23  and  C_27
REMARK   10  A    between atoms: C_30  and  C_33
REMARK   11  A    between atoms: C_32  and  C_34
REMARK   12  A    between atoms: C_33  and  C_35
REMARK   13  A    between atoms: C_38  and  C_42
REMARK                            x       y       z     vdW  Elec       q    Type
REMARK                         _______ _______ _______ _____ _____    ______ ____
ROOT
ATOM      1  O   UNL     1     111.028 130.732 140.824  0.00  0.00    +0.000 OA
ATOM      2  O   UNL     1     108.712 131.224 140.104  0.00  0.00    +0.000 OA
ATOM      3  O   UNL     1     109.082 131.170 141.711  0.00  0.00    +0.000 OA
ATOM      4  C   UNL     1     109.484 131.060 140.344  0.00  0.00    +0.000 C 
ATOM      5  C   UNL     1     109.669 131.033 141.147  0.00  0.00    +0.000 C 
ATOM      6  C   UNL     1     110.071 130.923 139.781  0.00  0.00    +0.000 C 
ATOM      7  C   UNL     1     110.441 130.869 141.388  0.00  0.00    +0.000 C 
ATOM      8  C   UNL     1     110.843 130.759 140.021  0.00  0.00    +0.000 C 
ENDROOT
BRANCH   6   9
ATOM      9  O   UNL     1     109.885 130.950 138.977  0.00  0.00    +0.000 OA
BRANCH   9  11
ATOM     10  O   UNL     1     110.074 132.364 138.901  0.00  0.00    +0.000 OA
ATOM     11  C   UNL     1     109.726 131.673 138.614  0.00  0.00    +0.000 C 
BRANCH  11  12
ATOM     12  C   UNL     1     109.218 131.706 137.965  0.00  0.00    +0.000 C 
ATOM     13  C   UNL     1     109.519 131.874 137.215  0.00  0.00    +0.000 C 
BRANCH  13  16
ATOM     14  O   UNL     1     107.052 131.162 135.960  0.00  0.00    +0.000 OA
ATOM     15  O   UNL     1     107.494 132.006 134.612  0.00  0.00    +0.000 OA
ATOM     16  C   UNL     1     109.012 131.907 136.565  0.00  0.00    +0.000 A 
ATOM     17  C   UNL     1     108.285 131.518 136.588  0.00  0.00    +0.000 A 
ATOM     18  C   UNL     1     109.234 132.329 135.891  0.00  0.00    +0.000 A 
ATOM     19  C   UNL     1     107.779 131.551 135.937  0.00  0.00    +0.000 A 
ATOM     20  C   UNL     1     108.727 132.361 135.240  0.00  0.00    +0.000 A 
ATOM     21  C   UNL     1     108.000 131.972 135.264  0.00  0.00    +0.000 A 
ENDBRANCH  13  16
ENDBRANCH  11  12
ENDBRANCH   9  11
ENDBRANCH   6   9
BRANCH   8  22
ATOM     22  O   UNL     1     111.429 130.622 139.458  0.00  0.00    +0.000 OA
BRANCH  22  25
ATOM     23  O   UNL     1     113.072 130.745 139.355  0.00  0.00    +0.000 OA
ATOM     24  O   UNL     1     114.009 129.390 139.452  0.00  0.00    +0.000 OA
ATOM     25  C   UNL     1     111.898 129.944 139.506  0.00  0.00    +0.000 A 
ATOM     26  C   UNL     1     112.719 130.005 139.455  0.00  0.00    +0.000 A 
ATOM     27  C   UNL     1     111.545 129.205 139.606  0.00  0.00    +0.000 A 
ATOM     28  C   UNL     1     113.187 129.328 139.504  0.00  0.00    +0.000 A 
ATOM     29  C   UNL     1     112.014 128.527 139.655  0.00  0.00    +0.000 A 
ATOM     30  C   UNL     1     112.835 128.590 139.604  0.00  0.00    +0.000 A 
BRANCH  30  32
ATOM     31  O   UNL     1     113.792 127.795 140.306  0.00  0.00    +0.000 OA
ATOM     32  C   UNL     1     113.303 127.912 139.653  0.00  0.00    +0.000 C 
BRANCH  32  33
ATOM     33  C   UNL     1     113.283 127.352 139.047  0.00  0.00    +0.000 C 
ATOM     34  C   UNL     1     113.635 126.613 139.156  0.00  0.00    +0.000 C 
BRANCH  34  36
ATOM     35  O   UNL     1     115.001 124.907 137.314  0.00  0.00    +0.000 OA
ATOM     36  C   UNL     1     113.614 126.054 138.551  0.00  0.00    +0.000 A 
ATOM     37  C   UNL     1     114.318 125.760 138.235  0.00  0.00    +0.000 A 
ATOM     38  C   UNL     1     112.890 125.787 138.260  0.00  0.00    +0.000 A 
ATOM     39  C   UNL     1     114.297 125.201 137.630  0.00  0.00    +0.000 A 
ATOM     40  C   UNL     1     112.869 125.226 137.654  0.00  0.00    +0.000 A 
ATOM     41  C   UNL     1     113.573 124.934 137.340  0.00  0.00    +0.000 A 
BRANCH  41  42
ATOM     42  O   UNL     1     113.552 124.373 136.734  0.00  0.00    +0.000 OA
ATOM     43  C   UNL     1     112.829 124.062 136.485  0.00  0.00    +0.000 C 
ENDBRANCH  41  42
ENDBRANCH  34  36
ENDBRANCH  32  33
ENDBRANCH  30  32
ENDBRANCH  22  25
ENDBRANCH   8  22
BRANCH   7  44
ATOM     44  C   UNL     1     110.626 130.842 142.191  0.00  0.00    +0.000 C 
BRANCH  44  45
ATOM     45  O   UNL     1     111.378 130.609 142.435  0.00  0.00    +0.000 OA
BRANCH  45  47
ATOM     46  O   UNL     1     111.558 131.220 143.713  0.00  0.00    +0.000 OA
ATOM     47  C   UNL     1     111.551 130.545 143.238  0.00  0.00    +0.000 C 
ATOM     48  C   UNL     1     111.716 129.807 143.568  0.00  0.00    +0.000 C 
ENDBRANCH  45  47
ENDBRANCH  44  45
ENDBRANCH   7  44
TORSDOF 13
ENDMDL
MODEL 7
REMARK VINA RESULT:      -8.7      4.632      7.121
REMARK  Name = 42607579
REMARK  13 active torsions:
REMARK  status: ('A' for Active; 'I' for Inactive)
REMARK    1  A    between atoms: O_2  and  C_18
REMARK    2  A    between atoms: O_2  and  C_23
REMARK    3  A    between atoms: O_5  and  C_20
REMARK    4  A    between atoms: O_5  and  C_22
REMARK    5  A    between atoms: O_6  and  C_21
REMARK    6  A    between atoms: O_6  and  C_26
REMARK    7  A    between atoms: O_14  and  C_47
REMARK    8  A    between atoms: C_19  and  C_21
REMARK    9  A    between atoms: C_23  and  C_27
REMARK   10  A    between atoms: C_30  and  C_33
REMARK   11  A    between atoms: C_32  and  C_34
REMARK   12  A    between atoms: C_33  and  C_35
REMARK   13  A    between atoms: C_38  and  C_42
REMARK                            x       y       z     vdW  Elec       q    Type
REMARK                         _______ _______ _______ _____ _____    ______ ____
ROOT
ATOM      1  O   UNL     1     109.128 127.697 142.062  0.00  0.00    +0.000 OA
ATOM      2  O   UNL     1     106.665 127.652 141.817  0.00  0.00    +0.000 OA
ATOM      3  O   UNL     1     107.387 128.859 142.680  0.00  0.00    +0.000 OA
ATOM      4  C   UNL     1     107.486 127.667 141.899  0.00  0.00    +0.000 C 
ATOM      5  C   UNL     1     107.847 128.270 142.330  0.00  0.00    +0.000 C 
ATOM      6  C   UNL     1     107.947 127.078 141.548  0.00  0.00    +0.000 C 
ATOM      7  C   UNL     1     108.668 128.285 142.411  0.00  0.00    +0.000 C 
ATOM      8  C   UNL     1     108.768 127.093 141.630  0.00  0.00    +0.000 C 
ENDROOT
BRANCH   6   9
ATOM      9  O   UNL     1     107.585 126.474 141.117  0.00  0.00    +0.000 OA
BRANCH   9  11
ATOM     10  O   UNL     1     107.421 125.637 142.262  0.00  0.00    +0.000 OA
ATOM     11  C   UNL     1     107.182 125.871 141.509  0.00  0.00    +0.000 C 
BRANCH  11  12
ATOM     12  C   UNL     1     106.538 125.503 141.147  0.00  0.00    +0.000 C 
ATOM     13  C   UNL     1     106.612 124.733 140.860  0.00  0.00    +0.000 C 
BRANCH  13  16
ATOM     14  O   UNL     1     104.933 124.364 138.578  0.00  0.00    +0.000 OA
ATOM     15  O   UNL     1     104.042 123.253 139.412  0.00  0.00    +0.000 OA
ATOM     16  C   UNL     1     105.970 124.363 140.498  0.00  0.00    +0.000 A 
ATOM     17  C   UNL     1     105.773 124.548 139.719  0.00  0.00    +0.000 A 
ATOM     18  C   UNL     1     105.525 123.807 140.916  0.00  0.00    +0.000 A 
ATOM     19  C   UNL     1     105.130 124.178 139.357  0.00  0.00    +0.000 A 
ATOM     20  C   UNL     1     104.882 123.438 140.553  0.00  0.00    +0.000 A 
ATOM     21  C   UNL     1     104.685 123.623 139.774  0.00  0.00    +0.000 A 
ENDBRANCH  13  16
ENDBRANCH  11  12
ENDBRANCH   9  11
ENDBRANCH   6   9
BRANCH   8  22
ATOM     22  O   UNL     1     109.227 126.504 141.280  0.00  0.00    +0.000 OA
BRANCH  22  25
ATOM     23  O   UNL     1     110.635 125.747 141.689  0.00  0.00    +0.000 OA
ATOM     24  O   UNL     1     112.040 126.146 140.920  0.00  0.00    +0.000 OA
ATOM     25  C   UNL     1     109.929 126.704 140.896  0.00  0.00    +0.000 A 
ATOM     26  C   UNL     1     110.634 126.326 141.100  0.00  0.00    +0.000 A 
ATOM     27  C   UNL     1     109.928 127.282 140.306  0.00  0.00    +0.000 A 
ATOM     28  C   UNL     1     111.336 126.525 140.715  0.00  0.00    +0.000 A 
ATOM     29  C   UNL     1     110.630 127.481 139.922  0.00  0.00    +0.000 A 
ATOM     30  C   UNL     1     111.334 127.102 140.127  0.00  0.00    +0.000 A 
BRANCH  30  32
ATOM     31  O   UNL     1     112.361 126.789 139.184  0.00  0.00    +0.000 OA
ATOM     32  C   UNL     1     112.036 127.302 139.742  0.00  0.00    +0.000 C 
BRANCH  32  33
ATOM     33  C   UNL     1     112.414 128.015 139.916  0.00  0.00    +0.000 C 
ATOM     34  C   UNL     1     113.110 128.219 139.524  0.00  0.00    +0.000 C 
BRANCH  34  36
ATOM     35  O   UNL     1     113.666 130.948 138.879  0.00  0.00    +0.000 OA
ATOM     36  C   UNL     1     113.487 128.931 139.697  0.00  0.00    +0.000 A 
ATOM     37  C   UNL     1     113.388 129.583 139.201  0.00  0.00    +0.000 A 
ATOM     38  C   UNL     1     113.964 128.993 140.368  0.00  0.00    +0.000 A 
ATOM     39  C   UNL     1     113.765 130.296 139.375  0.00  0.00    +0.000 A 
ATOM     40  C   UNL     1     114.342 129.706 140.542  0.00  0.00    +0.000 A 
ATOM     41  C   UNL     1     114.242 130.357 140.045  0.00  0.00    +0.000 A 
BRANCH  41  42
ATOM     42  O   UNL     1     114.620 131.070 140.220  0.00  0.00    +0.000 OA
ATOM     43  C   UNL     1     115.095 131.132 140.891  0.00  0.00    +0.000 C 
ENDBRANCH  41  42
ENDBRANCH  34  36
ENDBRANCH  32  33
ENDBRANCH  30  32
ENDBRANCH  22  25
ENDBRANCH   8  22
BRANCH   7  44
ATOM     44  C   UNL     1     109.029 128.889 142.843  0.00  0.00    +0.000 C 
BRANCH  44  45
ATOM     45  O   UNL     1     109.754 128.757 143.211  0.00  0.00    +0.000 OA
BRANCH  45  47
ATOM     46  O   UNL     1     109.874 129.832 144.144  0.00  0.00    +0.000 OA
ATOM     47  C   UNL     1     110.182 129.391 143.518  0.00  0.00    +0.000 C 
ATOM     48  C   UNL     1     110.919 129.585 143.201  0.00  0.00    +0.000 C 
ENDBRANCH  45  47
ENDBRANCH  44  45
ENDBRANCH   7  44
TORSDOF 13
ENDMDL
MODEL 8
REMARK VINA RESULT:      -8.7      4.369      6.970
REMARK  Name = 42607579
REMARK  13 active torsions:
REMARK  status: ('A' for Active; 'I' for Inactive)
REMARK    1  A    between atoms: O_2  and  C_18
REMARK    2  A    between atoms: O_2  and  C_23
REMARK    3  A    between atoms: O_5  and  C_20
REMARK    4  A    between atoms: O_5  and  C_22
REMARK    5  A    between atoms: O_6  and  C_21
REMARK    6  A    between atoms: O_6  and  C_26
REMARK    7  A    between atoms: O_14  and  C_47
REMARK    8  A    between atoms: C_19  and  C_21
REMARK    9  A    between atoms: C_23  and  C_27
REMARK   10  A    between atoms: C_30  and  C_33
REMARK   11  A    between atoms: C_32  and  C_34
REMARK   12  A    between atoms: C_33  and  C_35
REMARK   13  A    between atoms: C_38  and  C_42
REMARK                            x       y       z     vdW  Elec       q    Type
REMARK                         _______ _______ _______ _____ _____    ______ ____
ROOT
ATOM      1  O   UNL     1     111.161 126.363 140.209  0.00  0.00    +0.000 OA
ATOM      2  O   UNL     1     109.324 126.713 141.829  0.00  0.00    +0.000 OA
ATOM      3  O   UNL     1     110.835 127.289 142.158  0.00  0.00    +0.000 OA
ATOM      4  C   UNL     1     109.936 126.597 141.289  0.00  0.00    +0.000 C 
ATOM      5  C   UNL     1     110.692 126.884 141.453  0.00  0.00    +0.000 C 
ATOM      6  C   UNL     1     109.793 126.192 140.584  0.00  0.00    +0.000 C 
ATOM      7  C   UNL     1     111.304 126.767 140.913  0.00  0.00    +0.000 C 
ATOM      8  C   UNL     1     110.406 126.075 140.043  0.00  0.00    +0.000 C 
ENDROOT
BRANCH   6   9
ATOM      9  O   UNL     1     109.038 125.905 140.420  0.00  0.00    +0.000 OA
BRANCH   9  11
ATOM     10  O   UNL     1     109.307 124.710 141.155  0.00  0.00    +0.000 OA
ATOM     11  C   UNL     1     108.770 125.214 140.784  0.00  0.00    +0.000 C 
BRANCH  11  12
ATOM     12  C   UNL     1     107.966 125.029 140.777  0.00  0.00    +0.000 C 
ATOM     13  C   UNL     1     107.705 124.315 141.096  0.00  0.00    +0.000 C 
BRANCH  13  16
ATOM     14  O   UNL     1     105.140 124.371 142.355  0.00  0.00    +0.000 OA
ATOM     15  O   UNL     1     104.490 123.570 141.067  0.00  0.00    +0.000 OA
ATOM     16  C   UNL     1     106.901 124.129 141.089  0.00  0.00    +0.000 A 
ATOM     17  C   UNL     1     106.422 124.343 141.726  0.00  0.00    +0.000 A 
ATOM     18  C   UNL     1     106.576 123.729 140.444  0.00  0.00    +0.000 A 
ATOM     19  C   UNL     1     105.618 124.157 141.718  0.00  0.00    +0.000 A 
ATOM     20  C   UNL     1     105.773 123.543 140.438  0.00  0.00    +0.000 A 
ATOM     21  C   UNL     1     105.294 123.757 141.074  0.00  0.00    +0.000 A 
ENDBRANCH  13  16
ENDBRANCH  11  12
ENDBRANCH   9  11
ENDBRANCH   6   9
BRANCH   8  22
ATOM     22  O   UNL     1     110.263 125.671 139.339  0.00  0.00    +0.000 OA
BRANCH  22  25
ATOM     23  O   UNL     1     111.192 124.734 138.349  0.00  0.00    +0.000 OA
ATOM     24  O   UNL     1     111.750 125.343 136.921  0.00  0.00    +0.000 OA
ATOM     25  C   UNL     1     110.542 125.976 138.625  0.00  0.00    +0.000 A 
ATOM     26  C   UNL     1     111.006 125.508 138.130  0.00  0.00    +0.000 A 
ATOM     27  C   UNL     1     110.356 126.750 138.406  0.00  0.00    +0.000 A 
ATOM     28  C   UNL     1     111.285 125.813 137.416  0.00  0.00    +0.000 A 
ATOM     29  C   UNL     1     110.634 127.054 137.691  0.00  0.00    +0.000 A 
ATOM     30  C   UNL     1     111.099 126.585 137.197  0.00  0.00    +0.000 A 
BRANCH  30  32
ATOM     31  O   UNL     1     111.048 126.639 135.770  0.00  0.00    +0.000 OA
ATOM     32  C   UNL     1     111.378 126.890 136.483  0.00  0.00    +0.000 C 
BRANCH  32  33
ATOM     33  C   UNL     1     111.988 127.446 136.481  0.00  0.00    +0.000 C 
ATOM     34  C   UNL     1     112.161 127.867 135.793  0.00  0.00    +0.000 C 
BRANCH  34  36
ATOM     35  O   UNL     1     114.885 128.552 135.263  0.00  0.00    +0.000 OA
ATOM     36  C   UNL     1     112.771 128.422 135.791  0.00  0.00    +0.000 A 
ATOM     37  C   UNL     1     113.523 128.209 135.528  0.00  0.00    +0.000 A 
ATOM     38  C   UNL     1     112.628 129.191 136.054  0.00  0.00    +0.000 A 
ATOM     39  C   UNL     1     114.132 128.765 135.527  0.00  0.00    +0.000 A 
ATOM     40  C   UNL     1     113.238 129.747 136.053  0.00  0.00    +0.000 A 
ATOM     41  C   UNL     1     113.990 129.534 135.789  0.00  0.00    +0.000 A 
BRANCH  41  42
ATOM     42  O   UNL     1     114.600 130.090 135.788  0.00  0.00    +0.000 OA
ATOM     43  C   UNL     1     114.460 130.857 136.058  0.00  0.00    +0.000 C 
ENDBRANCH  41  42
ENDBRANCH  34  36
ENDBRANCH  32  33
ENDBRANCH  30  32
ENDBRANCH  22  25
ENDBRANCH   8  22
BRANCH   7  44
ATOM     44  C   UNL     1     112.060 127.055 141.078  0.00  0.00    +0.000 C 
BRANCH  44  45
ATOM     45  O   UNL     1     112.715 126.746 140.685  0.00  0.00    +0.000 OA
BRANCH  45  47
ATOM     46  O   UNL     1     113.921 126.967 141.417  0.00  0.00    +0.000 OA
ATOM     47  C   UNL     1     113.450 127.112 140.756  0.00  0.00    +0.000 C 
ATOM     48  C   UNL     1     113.715 127.625 140.166  0.00  0.00    +0.000 C 
ENDBRANCH  45  47
ENDBRANCH  44  45
ENDBRANCH   7  44
TORSDOF 13
ENDMDL
MODEL 9
REMARK VINA RESULT:      -8.7      8.271      9.239
REMARK  Name = 42607579
REMARK  13 active torsions:
REMARK  status: ('A' for Active; 'I' for Inactive)
REMARK    1  A    between atoms: O_2  and  C_18
REMARK    2  A    between atoms: O_2  and  C_23
REMARK    3  A    between atoms: O_5  and  C_20
REMARK    4  A    between atoms: O_5  and  C_22
REMARK    5  A    between atoms: O_6  and  C_21
REMARK    6  A    between atoms: O_6  and  C_26
REMARK    7  A    between atoms: O_14  and  C_47
REMARK    8  A    between atoms: C_19  and  C_21
REMARK    9  A    between atoms: C_23  and  C_27
REMARK   10  A    between atoms: C_30  and  C_33
REMARK   11  A    between atoms: C_32  and  C_34
REMARK   12  A    between atoms: C_33  and  C_35
REMARK   13  A    between atoms: C_38  and  C_42
REMARK                            x       y       z     vdW  Elec       q    Type
REMARK                         _______ _______ _______ _____ _____    ______ ____
ROOT
ATOM      1  O   UNL     1     106.929 126.446 142.920  0.00  0.00    +0.000 OA
ATOM      2  O   UNL     1     105.774 127.205 144.974  0.00  0.00    +0.000 OA
ATOM      3  O   UNL     1     106.899 128.174 144.254  0.00  0.00    +0.000 OA
ATOM      4  C   UNL     1     106.159 126.952 144.289  0.00  0.00    +0.000 C 
ATOM      5  C   UNL     1     106.722 127.436 143.929  0.00  0.00    +0.000 C 
ATOM      6  C   UNL     1     105.981 126.214 143.964  0.00  0.00    +0.000 C 
ATOM      7  C   UNL     1     107.106 127.183 143.245  0.00  0.00    +0.000 C 
ATOM      8  C   UNL     1     106.366 125.961 143.280  0.00  0.00    +0.000 C 
ENDROOT
BRANCH   6   9
ATOM      9  O   UNL     1     105.418 125.730 144.324  0.00  0.00    +0.000 OA
BRANCH   9  11
ATOM     10  O   UNL     1     106.355 125.030 145.144  0.00  0.00    +0.000 OA
ATOM     11  C   UNL     1     105.600 125.339 145.027  0.00  0.00    +0.000 C 
BRANCH  11  12
ATOM     12  C   UNL     1     105.024 125.257 145.613  0.00  0.00    +0.000 C 
ATOM     13  C   UNL     1     104.933 124.535 146.003  0.00  0.00    +0.000 C 
BRANCH  13  16
ATOM     14  O   UNL     1     102.345 123.644 146.823  0.00  0.00    +0.000 OA
ATOM     15  O   UNL     1     102.636 124.202 148.348  0.00  0.00    +0.000 OA
ATOM     16  C   UNL     1     104.359 124.452 146.589  0.00  0.00    +0.000 A 
ATOM     17  C   UNL     1     103.639 124.089 146.412  0.00  0.00    +0.000 A 
ATOM     18  C   UNL     1     104.505 124.731 147.352  0.00  0.00    +0.000 A 
ATOM     19  C   UNL     1     103.065 124.006 146.999  0.00  0.00    +0.000 A 
ATOM     20  C   UNL     1     103.930 124.648 147.938  0.00  0.00    +0.000 A 
ATOM     21  C   UNL     1     103.210 124.285 147.761  0.00  0.00    +0.000 A 
ENDBRANCH  13  16
ENDBRANCH  11  12
ENDBRANCH   9  11
ENDBRANCH   6   9
BRANCH   8  22
ATOM     22  O   UNL     1     106.188 125.225 142.955  0.00  0.00    +0.000 OA
BRANCH  22  25
ATOM     23  O   UNL     1     107.063 124.100 142.122  0.00  0.00    +0.000 OA
ATOM     24  O   UNL     1     106.864 123.943 140.492  0.00  0.00    +0.000 OA
ATOM     25  C   UNL     1     106.089 125.146 142.140  0.00  0.00    +0.000 A 
ATOM     26  C   UNL     1     106.526 124.584 141.723  0.00  0.00    +0.000 A 
ATOM     27  C   UNL     1     105.552 125.630 141.741  0.00  0.00    +0.000 A 
ATOM     28  C   UNL     1     106.426 124.505 140.908  0.00  0.00    +0.000 A 
ATOM     29  C   UNL     1     105.453 125.551 140.926  0.00  0.00    +0.000 A 
ATOM     30  C   UNL     1     105.890 124.989 140.510  0.00  0.00    +0.000 A 
BRANCH  30  32
ATOM     31  O   UNL     1     106.347 125.233 139.178  0.00  0.00    +0.000 OA
ATOM     32  C   UNL     1     105.791 124.910 139.694  0.00  0.00    +0.000 C 
BRANCH  32  33
ATOM     33  C   UNL     1     105.135 124.508 139.395  0.00  0.00    +0.000 C 
ATOM     34  C   UNL     1     104.897 124.629 138.614  0.00  0.00    +0.000 C 
BRANCH  34  36
ATOM     35  O   UNL     1     102.064 124.286 138.456  0.00  0.00    +0.000 OA
ATOM     36  C   UNL     1     104.242 124.228 138.316  0.00  0.00    +0.000 A 
ATOM     37  C   UNL     1     103.481 124.458 138.535  0.00  0.00    +0.000 A 
ATOM     38  C   UNL     1     104.348 123.595 137.798  0.00  0.00    +0.000 A 
ATOM     39  C   UNL     1     102.826 124.056 138.237  0.00  0.00    +0.000 A 
ATOM     40  C   UNL     1     103.692 123.192 137.498  0.00  0.00    +0.000 A 
ATOM     41  C   UNL     1     102.932 123.423 137.718  0.00  0.00    +0.000 A 
BRANCH  41  42
ATOM     42  O   UNL     1     102.276 123.020 137.419  0.00  0.00    +0.000 OA
ATOM     43  C   UNL     1     102.282 122.740 136.643  0.00  0.00    +0.000 C 
ENDBRANCH  41  42
ENDBRANCH  34  36
ENDBRANCH  32  33
ENDBRANCH  30  32
ENDBRANCH  22  25
ENDBRANCH   8  22
BRANCH   7  44
ATOM     44  C   UNL     1     107.669 127.668 142.885  0.00  0.00    +0.000 C 
BRANCH  44  45
ATOM     45  O   UNL     1     108.265 127.336 142.422  0.00  0.00    +0.000 OA
BRANCH  45  47
ATOM     46  O   UNL     1     108.435 127.829 141.092  0.00  0.00    +0.000 OA
ATOM     47  C   UNL     1     108.676 127.803 141.881  0.00  0.00    +0.000 C 
ATOM     48  C   UNL     1     109.327 128.246 142.128  0.00  0.00    +0.000 C 
ENDBRANCH  45  47
ENDBRANCH  44  45
ENDBRANCH   7  44
TORSDOF 13
ENDMDL
MODEL 10
REMARK VINA RESULT:      -8.6      4.844      7.140
REMARK  Name = 42607579
REMARK  13 active torsions:
REMARK  status: ('A' for Active; 'I' for Inactive)
REMARK    1  A    between atoms: O_2  and  C_18
REMARK    2  A    between atoms: O_2  and  C_23
REMARK    3  A    between atoms: O_5  and  C_20
REMARK    4  A    between atoms: O_5  and  C_22
REMARK    5  A    between atoms: O_6  and  C_21
REMARK    6  A    between atoms: O_6  and  C_26
REMARK    7  A    between atoms: O_14  and  C_47
REMARK    8  A    between atoms: C_19  and  C_21
REMARK    9  A    between atoms: C_23  and  C_27
REMARK   10  A    between atoms: C_30  and  C_33
REMARK   11  A    between atoms: C_32  and  C_34
REMARK   12  A    between atoms: C_33  and  C_35
REMARK   13  A    between atoms: C_38  and  C_42
REMARK                            x       y       z     vdW  Elec       q    Type
REMARK                         _______ _______ _______ _____ _____    ______ ____
ROOT
ATOM      1  O   UNL     1     109.086 127.833 142.454  0.00  0.00    +0.000 OA
ATOM      2  O   UNL     1     110.841 129.578 142.426  0.00  0.00    +0.000 OA
ATOM      3  O   UNL     1     110.994 128.238 141.474  0.00  0.00    +0.000 OA
ATOM      4  C   UNL     1     110.256 128.996 142.435  0.00  0.00    +0.000 C 
ATOM      5  C   UNL     1     110.332 128.326 141.960  0.00  0.00    +0.000 C 
ATOM      6  C   UNL     1     109.594 129.084 142.921  0.00  0.00    +0.000 C 
ATOM      7  C   UNL     1     109.747 127.745 141.969  0.00  0.00    +0.000 C 
ATOM      8  C   UNL     1     109.008 128.502 142.930  0.00  0.00    +0.000 C 
ENDROOT
BRANCH   6   9
ATOM      9  O   UNL     1     109.518 129.754 143.396  0.00  0.00    +0.000 OA
BRANCH   9  11
ATOM     10  O   UNL     1     110.225 129.179 144.496  0.00  0.00    +0.000 OA
ATOM     11  C   UNL     1     109.994 129.842 144.064  0.00  0.00    +0.000 C 
BRANCH  11  12
ATOM     12  C   UNL     1     110.237 130.594 144.299  0.00  0.00    +0.000 C 
ATOM     13  C   UNL     1     110.096 130.851 145.071  0.00  0.00    +0.000 C 
BRANCH  13  16
ATOM     14  O   UNL     1     109.558 133.638 145.399  0.00  0.00    +0.000 OA
ATOM     15  O   UNL     1     111.072 133.858 146.018  0.00  0.00    +0.000 OA
ATOM     16  C   UNL     1     110.339 131.603 145.307  0.00  0.00    +0.000 A 
ATOM     17  C   UNL     1     109.826 132.245 145.235  0.00  0.00    +0.000 A 
ATOM     18  C   UNL     1     111.097 131.712 145.617  0.00  0.00    +0.000 A 
ATOM     19  C   UNL     1     110.071 132.996 145.472  0.00  0.00    +0.000 A 
ATOM     20  C   UNL     1     111.340 132.464 145.853  0.00  0.00    +0.000 A 
ATOM     21  C   UNL     1     110.827 133.106 145.781  0.00  0.00    +0.000 A 
ENDBRANCH  13  16
ENDBRANCH  11  12
ENDBRANCH   9  11
ENDBRANCH   6   9
BRANCH   8  22
ATOM     22  O   UNL     1     108.348 128.590 143.414  0.00  0.00    +0.000 OA
BRANCH  22  25
ATOM     23  O   UNL     1     107.314 127.585 144.216  0.00  0.00    +0.000 OA
ATOM     24  O   UNL     1     105.805 127.301 143.612  0.00  0.00    +0.000 OA
ATOM     25  C   UNL     1     107.593 128.449 143.113  0.00  0.00    +0.000 A 
ATOM     26  C   UNL     1     107.076 127.946 143.513  0.00  0.00    +0.000 A 
ATOM     27  C   UNL     1     107.355 128.810 142.409  0.00  0.00    +0.000 A 
ATOM     28  C   UNL     1     106.321 127.804 143.211  0.00  0.00    +0.000 A 
ATOM     29  C   UNL     1     106.600 128.668 142.107  0.00  0.00    +0.000 A 
ATOM     30  C   UNL     1     106.084 128.165 142.509  0.00  0.00    +0.000 A 
BRANCH  30  32
ATOM     31  O   UNL     1     105.085 127.250 142.052  0.00  0.00    +0.000 OA
ATOM     32  C   UNL     1     105.329 128.023 142.207  0.00  0.00    +0.000 C 
BRANCH  32  33
ATOM     33  C   UNL     1     104.818 128.654 142.060  0.00  0.00    +0.000 C 
ATOM     34  C   UNL     1     104.088 128.519 141.699  0.00  0.00    +0.000 C 
BRANCH  34  36
ATOM     35  O   UNL     1     102.465 130.020 139.888  0.00  0.00    +0.000 OA
ATOM     36  C   UNL     1     103.578 129.149 141.553  0.00  0.00    +0.000 A 
ATOM     37  C   UNL     1     103.277 129.269 140.794  0.00  0.00    +0.000 A 
ATOM     38  C   UNL     1     103.368 129.661 142.165  0.00  0.00    +0.000 A 
ATOM     39  C   UNL     1     102.766 129.900 140.647  0.00  0.00    +0.000 A 
ATOM     40  C   UNL     1     102.857 130.293 142.018  0.00  0.00    +0.000 A 
ATOM     41  C   UNL     1     102.556 130.412 141.259  0.00  0.00    +0.000 A 
BRANCH  41  42
ATOM     42  O   UNL     1     102.045 131.043 141.112  0.00  0.00    +0.000 OA
ATOM     43  C   UNL     1     101.782 131.515 141.736  0.00  0.00    +0.000 C 
ENDBRANCH  41  42
ENDBRANCH  34  36
ENDBRANCH  32  33
ENDBRANCH  30  32
ENDBRANCH  22  25
ENDBRANCH   8  22
BRANCH   7  44
ATOM     44  C   UNL     1     109.824 127.075 141.493  0.00  0.00    +0.000 C 
BRANCH  44  45
ATOM     45  O   UNL     1     109.318 126.432 141.599  0.00  0.00    +0.000 OA
BRANCH  45  47
ATOM     46  O   UNL     1     109.973 125.287 141.052  0.00  0.00    +0.000 OA
ATOM     47  C   UNL     1     109.331 125.805 141.064  0.00  0.00    +0.000 C 
ATOM     48  C   UNL     1     108.702 125.695 140.542  0.00  0.00    +0.000 C 
ENDBRANCH  45  47
ENDBRANCH  44  45
ENDBRANCH   7  44
TORSDOF 13
ENDMDL
