MODEL 1
REMARK VINA RESULT:      -8.7      0.000      0.000
REMARK  Name = 101675301
REMARK  2 active torsions:
REMARK  status: ('A' for Active; 'I' for Inactive)
REMARK    1  A    between atoms: O_4  and  C_18
REMARK    2  A    between atoms: C_6  and  C_8
REMARK                            x       y       z     vdW  Elec       q    Type
REMARK                         _______ _______ _______ _____ _____    ______ ____
ROOT
ATOM      1  O   UNL     1     105.549 124.406 147.793  0.00  0.00    +0.000 OA
ATOM      2  O   UNL     1     106.908 125.555 146.073  0.00  0.00    +0.000 OA
ATOM      3  O   UNL     1     108.057 125.563 146.945  0.00  0.00    +0.000 OA
ATOM      4  O   UNL     1     107.825 124.386 149.608  0.00  0.00    +0.000 OA
ATOM      5  C   UNL     1     105.214 124.600 147.063  0.00  0.00    +0.000 C 
ATOM      6  C   UNL     1     105.667 124.983 146.490  0.00  0.00    +0.000 C 
ATOM      7  C   UNL     1     106.790 124.978 147.374  0.00  0.00    +0.000 A 
ATOM      8  C   UNL     1     106.455 125.172 146.646  0.00  0.00    +0.000 C 
ATOM      9  C   UNL     1     106.336 124.595 147.947  0.00  0.00    +0.000 A 
ATOM     10  C   UNL     1     107.612 125.180 147.525  0.00  0.00    +0.000 A 
ATOM     11  C   UNL     1     106.674 124.388 148.711  0.00  0.00    +0.000 A 
ATOM     12  C   UNL     1     107.966 124.980 148.281  0.00  0.00    +0.000 A 
ATOM     13  C   UNL     1     107.494 124.582 148.878  0.00  0.00    +0.000 A 
ENDROOT
BRANCH   5  14
ATOM     14  C   UNL     1     104.426 124.411 146.908  0.00  0.00    +0.000 A 
ATOM     15  C   UNL     1     104.241 123.729 146.483  0.00  0.00    +0.000 A 
ATOM     16  C   UNL     1     103.823 124.905 147.180  0.00  0.00    +0.000 A 
ATOM     17  C   UNL     1     103.452 123.541 146.329  0.00  0.00    +0.000 A 
ATOM     18  C   UNL     1     103.035 124.716 147.025  0.00  0.00    +0.000 A 
ATOM     19  C   UNL     1     102.850 124.034 146.599  0.00  0.00    +0.000 A 
BRANCH  17  20
ATOM     20  O   UNL     1     103.267 122.859 145.903  0.00  0.00    +0.000 OA
ATOM     21  C   UNL     1     102.520 122.774 145.564  0.00  0.00    +0.000 C 
ENDBRANCH  17  20
ENDBRANCH   5  14
TORSDOF 2
ENDMDL
MODEL 2
REMARK VINA RESULT:      -8.4     12.156     12.810
REMARK  Name = 101675301
REMARK  2 active torsions:
REMARK  status: ('A' for Active; 'I' for Inactive)
REMARK    1  A    between atoms: O_4  and  C_18
REMARK    2  A    between atoms: C_6  and  C_8
REMARK                            x       y       z     vdW  Elec       q    Type
REMARK                         _______ _______ _______ _____ _____    ______ ____
ROOT
ATOM      1  O   UNL     1     112.040 125.722 136.046  0.00  0.00    +0.000 OA
ATOM      2  O   UNL     1     111.904 123.380 136.833  0.00  0.00    +0.000 OA
ATOM      3  O   UNL     1     113.304 123.384 137.181  0.00  0.00    +0.000 OA
ATOM      4  O   UNL     1     114.872 125.806 136.722  0.00  0.00    +0.000 OA
ATOM      5  C   UNL     1     111.323 125.315 136.009  0.00  0.00    +0.000 C 
ATOM      6  C   UNL     1     111.277 124.534 136.272  0.00  0.00    +0.000 C 
ATOM      7  C   UNL     1     112.666 124.566 136.607  0.00  0.00    +0.000 A 
ATOM      8  C   UNL     1     111.950 124.160 136.571  0.00  0.00    +0.000 C 
ATOM      9  C   UNL     1     112.712 125.347 136.345  0.00  0.00    +0.000 A 
ATOM     10  C   UNL     1     113.359 124.165 136.921  0.00  0.00    +0.000 A 
ATOM     11  C   UNL     1     113.453 125.781 136.377  0.00  0.00    +0.000 A 
ATOM     12  C   UNL     1     114.108 124.583 136.961  0.00  0.00    +0.000 A 
ATOM     13  C   UNL     1     114.156 125.396 136.687  0.00  0.00    +0.000 A 
ENDROOT
BRANCH   5  14
ATOM     14  C   UNL     1     110.652 125.690 135.710  0.00  0.00    +0.000 A 
ATOM     15  C   UNL     1     110.218 126.203 136.189  0.00  0.00    +0.000 A 
ATOM     16  C   UNL     1     110.414 125.551 134.932  0.00  0.00    +0.000 A 
ATOM     17  C   UNL     1     109.546 126.578 135.888  0.00  0.00    +0.000 A 
ATOM     18  C   UNL     1     109.743 125.926 134.633  0.00  0.00    +0.000 A 
ATOM     19  C   UNL     1     109.309 126.440 135.111  0.00  0.00    +0.000 A 
BRANCH  17  20
ATOM     20  O   UNL     1     109.112 127.091 136.367  0.00  0.00    +0.000 OA
ATOM     21  C   UNL     1     108.953 127.859 136.110  0.00  0.00    +0.000 C 
ENDBRANCH  17  20
ENDBRANCH   5  14
TORSDOF 2
ENDMDL
MODEL 3
REMARK VINA RESULT:      -8.2      8.131      9.126
REMARK  Name = 101675301
REMARK  2 active torsions:
REMARK  status: ('A' for Active; 'I' for Inactive)
REMARK    1  A    between atoms: O_4  and  C_18
REMARK    2  A    between atoms: C_6  and  C_8
REMARK                            x       y       z     vdW  Elec       q    Type
REMARK                         _______ _______ _______ _____ _____    ______ ____
ROOT
ATOM      1  O   UNL     1     102.904 130.501 142.191  0.00  0.00    +0.000 OA
ATOM      2  O   UNL     1     102.768 129.327 140.016  0.00  0.00    +0.000 OA
ATOM      3  O   UNL     1     103.735 128.349 140.451  0.00  0.00    +0.000 OA
ATOM      4  O   UNL     1     104.863 128.565 143.137  0.00  0.00    +0.000 OA
ATOM      5  C   UNL     1     102.401 130.783 141.600  0.00  0.00    +0.000 C 
ATOM      6  C   UNL     1     102.355 130.391 140.875  0.00  0.00    +0.000 C 
ATOM      7  C   UNL     1     103.316 129.436 141.331  0.00  0.00    +0.000 A 
ATOM      8  C   UNL     1     102.813 129.718 140.741  0.00  0.00    +0.000 C 
ATOM      9  C   UNL     1     103.361 129.828 142.055  0.00  0.00    +0.000 A 
ATOM     10  C   UNL     1     103.787 128.734 141.179  0.00  0.00    +0.000 A 
ATOM     11  C   UNL     1     103.882 129.544 142.678  0.00  0.00    +0.000 A 
ATOM     12  C   UNL     1     104.313 128.436 141.789  0.00  0.00    +0.000 A 
ATOM     13  C   UNL     1     104.360 128.844 142.544  0.00  0.00    +0.000 A 
ENDROOT
BRANCH   5  14
ATOM     14  C   UNL     1     101.944 131.456 141.735  0.00  0.00    +0.000 A 
ATOM     15  C   UNL     1     102.262 132.205 141.599  0.00  0.00    +0.000 A 
ATOM     16  C   UNL     1     101.167 131.380 142.006  0.00  0.00    +0.000 A 
ATOM     17  C   UNL     1     101.803 132.878 141.735  0.00  0.00    +0.000 A 
ATOM     18  C   UNL     1     100.710 132.053 142.141  0.00  0.00    +0.000 A 
ATOM     19  C   UNL     1     101.028 132.802 142.006  0.00  0.00    +0.000 A 
BRANCH  17  20
ATOM     20  O   UNL     1     102.121 133.627 141.600  0.00  0.00    +0.000 OA
ATOM     21  C   UNL     1     101.622 134.267 141.452  0.00  0.00    +0.000 C 
ENDBRANCH  17  20
ENDBRANCH   5  14
TORSDOF 2
ENDMDL
MODEL 4
REMARK VINA RESULT:      -8.1     11.348     12.834
REMARK  Name = 101675301
REMARK  2 active torsions:
REMARK  status: ('A' for Active; 'I' for Inactive)
REMARK    1  A    between atoms: O_4  and  C_18
REMARK    2  A    between atoms: C_6  and  C_8
REMARK                            x       y       z     vdW  Elec       q    Type
REMARK                         _______ _______ _______ _____ _____    ______ ____
ROOT
ATOM      1  O   UNL     1     110.997 125.793 136.836  0.00  0.00    +0.000 OA
ATOM      2  O   UNL     1     109.917 125.531 134.624  0.00  0.00    +0.000 OA
ATOM      3  O   UNL     1     108.956 126.559 134.939  0.00  0.00    +0.000 OA
ATOM      4  O   UNL     1     109.090 127.877 137.542  0.00  0.00    +0.000 OA
ATOM      5  C   UNL     1     111.287 125.238 136.297  0.00  0.00    +0.000 C 
ATOM      6  C   UNL     1     110.927 125.151 135.560  0.00  0.00    +0.000 C 
ATOM      7  C   UNL     1     109.987 126.172 135.898  0.00  0.00    +0.000 A 
ATOM      8  C   UNL     1     110.277 125.618 135.361  0.00  0.00    +0.000 C 
ATOM      9  C   UNL     1     110.347 126.259 136.635  0.00  0.00    +0.000 A 
ATOM     10  C   UNL     1     109.309 126.653 135.679  0.00  0.00    +0.000 A 
ATOM     11  C   UNL     1     110.054 126.834 137.204  0.00  0.00    +0.000 A 
ATOM     12  C   UNL     1     109.003 127.232 136.234  0.00  0.00    +0.000 A 
ATOM     13  C   UNL     1     109.377 127.323 137.002  0.00  0.00    +0.000 A 
ENDROOT
BRANCH   5  14
ATOM     14  C   UNL     1     111.937 124.771 136.498  0.00  0.00    +0.000 A 
ATOM     15  C   UNL     1     112.702 125.069 136.412  0.00  0.00    +0.000 A 
ATOM     16  C   UNL     1     111.822 124.005 136.784  0.00  0.00    +0.000 A 
ATOM     17  C   UNL     1     113.351 124.601 136.613  0.00  0.00    +0.000 A 
ATOM     18  C   UNL     1     112.472 123.538 136.984  0.00  0.00    +0.000 A 
ATOM     19  C   UNL     1     113.236 123.836 136.899  0.00  0.00    +0.000 A 
BRANCH  17  20
ATOM     20  O   UNL     1     114.116 124.899 136.527  0.00  0.00    +0.000 OA
ATOM     21  C   UNL     1     114.631 124.904 137.171  0.00  0.00    +0.000 C 
ENDBRANCH  17  20
ENDBRANCH   5  14
TORSDOF 2
ENDMDL
MODEL 5
REMARK VINA RESULT:      -7.9      1.000      4.317
REMARK  Name = 101675301
REMARK  2 active torsions:
REMARK  status: ('A' for Active; 'I' for Inactive)
REMARK    1  A    between atoms: O_4  and  C_18
REMARK    2  A    between atoms: C_6  and  C_8
REMARK                            x       y       z     vdW  Elec       q    Type
REMARK                         _______ _______ _______ _____ _____    ______ ____
ROOT
ATOM      1  O   UNL     1     104.963 124.161 146.793  0.00  0.00    +0.000 OA
ATOM      2  O   UNL     1     103.180 125.358 148.024  0.00  0.00    +0.000 OA
ATOM      3  O   UNL     1     102.161 124.709 147.236  0.00  0.00    +0.000 OA
ATOM      4  O   UNL     1     102.961 122.812 145.164  0.00  0.00    +0.000 OA
ATOM      5  C   UNL     1     105.161 124.689 147.396  0.00  0.00    +0.000 C 
ATOM      6  C   UNL     1     104.566 125.088 147.806  0.00  0.00    +0.000 C 
ATOM      7  C   UNL     1     103.577 124.431 147.012  0.00  0.00    +0.000 A 
ATOM      8  C   UNL     1     103.774 124.959 147.614  0.00  0.00    +0.000 C 
ATOM      9  C   UNL     1     104.171 124.032 146.602  0.00  0.00    +0.000 A 
ATOM     10  C   UNL     1     102.748 124.305 146.821  0.00  0.00    +0.000 A 
ATOM     11  C   UNL     1     103.978 123.480 145.972  0.00  0.00    +0.000 A 
ATOM     12  C   UNL     1     102.536 123.757 146.194  0.00  0.00    +0.000 A 
ATOM     13  C   UNL     1     103.155 123.341 145.767  0.00  0.00    +0.000 A 
ENDROOT
BRANCH   5  14
ATOM     14  C   UNL     1     105.952 124.818 147.588  0.00  0.00    +0.000 A 
ATOM     15  C   UNL     1     106.294 124.417 148.223  0.00  0.00    +0.000 A 
ATOM     16  C   UNL     1     106.403 125.347 147.143  0.00  0.00    +0.000 A 
ATOM     17  C   UNL     1     107.086 124.546 148.414  0.00  0.00    +0.000 A 
ATOM     18  C   UNL     1     107.195 125.476 147.335  0.00  0.00    +0.000 A 
ATOM     19  C   UNL     1     107.537 125.075 147.971  0.00  0.00    +0.000 A 
BRANCH  17  20
ATOM     20  O   UNL     1     107.428 124.146 149.049  0.00  0.00    +0.000 OA
ATOM     21  C   UNL     1     107.872 124.559 149.608  0.00  0.00    +0.000 C 
ENDBRANCH  17  20
ENDBRANCH   5  14
TORSDOF 2
ENDMDL
MODEL 6
REMARK VINA RESULT:      -7.8      6.896      8.095
REMARK  Name = 101675301
REMARK  2 active torsions:
REMARK  status: ('A' for Active; 'I' for Inactive)
REMARK    1  A    between atoms: O_4  and  C_18
REMARK    2  A    between atoms: C_6  and  C_8
REMARK                            x       y       z     vdW  Elec       q    Type
REMARK                         _______ _______ _______ _____ _____    ______ ____
ROOT
ATOM      1  O   UNL     1     104.560 124.628 139.528  0.00  0.00    +0.000 OA
ATOM      2  O   UNL     1     106.022 122.774 140.270  0.00  0.00    +0.000 OA
ATOM      3  O   UNL     1     106.733 123.655 141.165  0.00  0.00    +0.000 OA
ATOM      4  O   UNL     1     105.949 126.465 141.310  0.00  0.00    +0.000 OA
ATOM      5  C   UNL     1     104.460 123.872 139.213  0.00  0.00    +0.000 C 
ATOM      6  C   UNL     1     104.947 123.254 139.460  0.00  0.00    +0.000 C 
ATOM      7  C   UNL     1     105.635 124.148 140.338  0.00  0.00    +0.000 A 
ATOM      8  C   UNL     1     105.535 123.392 140.023  0.00  0.00    +0.000 C 
ATOM      9  C   UNL     1     105.147 124.765 140.090  0.00  0.00    +0.000 A 
ATOM     10  C   UNL     1     106.251 124.279 140.923  0.00  0.00    +0.000 A 
ATOM     11  C   UNL     1     105.242 125.557 140.411  0.00  0.00    +0.000 A 
ATOM     12  C   UNL     1     106.360 125.064 141.255  0.00  0.00    +0.000 A 
ATOM     13  C   UNL     1     105.852 125.707 140.997  0.00  0.00    +0.000 A 
ENDROOT
BRANCH   5  14
ATOM     14  C   UNL     1     103.872 123.734 138.651  0.00  0.00    +0.000 A 
ATOM     15  C   UNL     1     104.079 123.539 137.876  0.00  0.00    +0.000 A 
ATOM     16  C   UNL     1     103.076 123.792 138.863  0.00  0.00    +0.000 A 
ATOM     17  C   UNL     1     103.490 123.402 137.314  0.00  0.00    +0.000 A 
ATOM     18  C   UNL     1     102.489 123.655 138.301  0.00  0.00    +0.000 A 
ATOM     19  C   UNL     1     102.696 123.460 137.527  0.00  0.00    +0.000 A 
BRANCH  17  20
ATOM     20  O   UNL     1     103.697 123.207 136.540  0.00  0.00    +0.000 OA
ATOM     21  C   UNL     1     103.165 122.797 136.061  0.00  0.00    +0.000 C 
ENDBRANCH  17  20
ENDBRANCH   5  14
TORSDOF 2
ENDMDL
MODEL 7
REMARK VINA RESULT:      -7.7     11.813     13.397
REMARK  Name = 101675301
REMARK  2 active torsions:
REMARK  status: ('A' for Active; 'I' for Inactive)
REMARK    1  A    between atoms: O_4  and  C_18
REMARK    2  A    between atoms: C_6  and  C_8
REMARK                            x       y       z     vdW  Elec       q    Type
REMARK                         _______ _______ _______ _____ _____    ______ ____
ROOT
ATOM      1  O   UNL     1     112.179 126.586 136.210  0.00  0.00    +0.000 OA
ATOM      2  O   UNL     1     110.789 124.637 135.580  0.00  0.00    +0.000 OA
ATOM      3  O   UNL     1     109.928 125.473 134.779  0.00  0.00    +0.000 OA
ATOM      4  O   UNL     1     110.485 128.335 134.612  0.00  0.00    +0.000 OA
ATOM      5  C   UNL     1     112.365 125.835 136.498  0.00  0.00    +0.000 C 
ATOM      6  C   UNL     1     111.902 125.186 136.288  0.00  0.00    +0.000 C 
ATOM      7  C   UNL     1     111.066 126.036 135.502  0.00  0.00    +0.000 A 
ATOM      8  C   UNL     1     111.252 125.287 135.790  0.00  0.00    +0.000 C 
ATOM      9  C   UNL     1     111.529 126.686 135.712  0.00  0.00    +0.000 A 
ATOM     10  C   UNL     1     110.386 126.128 134.983  0.00  0.00    +0.000 A 
ATOM     11  C   UNL     1     111.344 127.473 135.418  0.00  0.00    +0.000 A 
ATOM     12  C   UNL     1     110.187 126.907 134.680  0.00  0.00    +0.000 A 
ATOM     13  C   UNL     1     110.669 127.583 134.899  0.00  0.00    +0.000 A 
ENDROOT
BRANCH   5  14
ATOM     14  C   UNL     1     113.015 125.735 136.996  0.00  0.00    +0.000 A 
ATOM     15  C   UNL     1     112.960 125.941 137.793  0.00  0.00    +0.000 A 
ATOM     16  C   UNL     1     113.721 125.429 136.696  0.00  0.00    +0.000 A 
ATOM     17  C   UNL     1     113.611 125.840 138.290  0.00  0.00    +0.000 A 
ATOM     18  C   UNL     1     114.371 125.329 137.194  0.00  0.00    +0.000 A 
ATOM     19  C   UNL     1     114.316 125.535 137.991  0.00  0.00    +0.000 A 
BRANCH  17  20
ATOM     20  O   UNL     1     113.556 126.046 139.087  0.00  0.00    +0.000 OA
ATOM     21  C   UNL     1     113.783 126.799 139.336  0.00  0.00    +0.000 C 
ENDBRANCH  17  20
ENDBRANCH   5  14
TORSDOF 2
ENDMDL
MODEL 8
REMARK VINA RESULT:      -7.7     12.474     13.779
REMARK  Name = 101675301
REMARK  2 active torsions:
REMARK  status: ('A' for Active; 'I' for Inactive)
REMARK    1  A    between atoms: O_4  and  C_18
REMARK    2  A    between atoms: C_6  and  C_8
REMARK                            x       y       z     vdW  Elec       q    Type
REMARK                         _______ _______ _______ _____ _____    ______ ____
ROOT
ATOM      1  O   UNL     1     113.916 127.142 136.215  0.00  0.00    +0.000 OA
ATOM      2  O   UNL     1     112.638 128.381 137.935  0.00  0.00    +0.000 OA
ATOM      3  O   UNL     1     112.894 129.632 137.265  0.00  0.00    +0.000 OA
ATOM      4  O   UNL     1     114.475 129.630 134.809  0.00  0.00    +0.000 OA
ATOM      5  C   UNL     1     113.568 126.735 136.844  0.00  0.00    +0.000 C 
ATOM      6  C   UNL     1     113.142 127.148 137.417  0.00  0.00    +0.000 C 
ATOM      7  C   UNL     1     113.411 128.374 136.734  0.00  0.00    +0.000 A 
ATOM      8  C   UNL     1     113.064 127.968 137.362  0.00  0.00    +0.000 C 
ATOM      9  C   UNL     1     113.837 127.961 136.161  0.00  0.00    +0.000 A 
ATOM     10  C   UNL     1     113.323 129.228 136.687  0.00  0.00    +0.000 A 
ATOM     11  C   UNL     1     114.204 128.373 135.502  0.00  0.00    +0.000 A 
ATOM     12  C   UNL     1     113.682 129.656 136.036  0.00  0.00    +0.000 A 
ATOM     13  C   UNL     1     114.126 129.226 135.439  0.00  0.00    +0.000 A 
ENDROOT
BRANCH   5  14
ATOM     14  C   UNL     1     113.647 125.916 136.899  0.00  0.00    +0.000 A 
ATOM     15  C   UNL     1     113.048 125.424 136.617  0.00  0.00    +0.000 A 
ATOM     16  C   UNL     1     114.326 125.589 137.236  0.00  0.00    +0.000 A 
ATOM     17  C   UNL     1     113.128 124.604 136.672  0.00  0.00    +0.000 A 
ATOM     18  C   UNL     1     114.405 124.769 137.290  0.00  0.00    +0.000 A 
ATOM     19  C   UNL     1     113.806 124.277 137.008  0.00  0.00    +0.000 A 
BRANCH  17  20
ATOM     20  O   UNL     1     112.529 124.112 136.390  0.00  0.00    +0.000 OA
ATOM     21  C   UNL     1     112.166 123.571 136.897  0.00  0.00    +0.000 C 
ENDBRANCH  17  20
ENDBRANCH   5  14
TORSDOF 2
ENDMDL
MODEL 9
REMARK VINA RESULT:      -7.6     12.806     13.948
REMARK  Name = 101675301
REMARK  2 active torsions:
REMARK  status: ('A' for Active; 'I' for Inactive)
REMARK    1  A    between atoms: O_4  and  C_18
REMARK    2  A    between atoms: C_6  and  C_8
REMARK                            x       y       z     vdW  Elec       q    Type
REMARK                         _______ _______ _______ _____ _____    ______ ____
ROOT
ATOM      1  O   UNL     1     112.856 126.395 136.369  0.00  0.00    +0.000 OA
ATOM      2  O   UNL     1     114.732 125.217 137.474  0.00  0.00    +0.000 OA
ATOM      3  O   UNL     1     114.040 123.956 137.370  0.00  0.00    +0.000 OA
ATOM      4  O   UNL     1     111.399 123.886 136.125  0.00  0.00    +0.000 OA
ATOM      5  C   UNL     1     113.523 126.817 136.611  0.00  0.00    +0.000 C 
ATOM      6  C   UNL     1     114.149 126.424 136.979  0.00  0.00    +0.000 C 
ATOM      7  C   UNL     1     113.441 125.188 136.864  0.00  0.00    +0.000 A 
ATOM      8  C   UNL     1     114.107 125.610 137.105  0.00  0.00    +0.000 C 
ATOM      9  C   UNL     1     112.816 125.581 136.496  0.00  0.00    +0.000 A 
ATOM     10  C   UNL     1     113.410 124.340 137.001  0.00  0.00    +0.000 A 
ATOM     11  C   UNL     1     112.116 125.152 136.239  0.00  0.00    +0.000 A 
ATOM     12  C   UNL     1     112.718 123.896 136.752  0.00  0.00    +0.000 A 
ATOM     13  C   UNL     1     112.067 124.304 136.368  0.00  0.00    +0.000 A 
ENDROOT
BRANCH   5  14
ATOM     14  C   UNL     1     113.564 127.631 136.485  0.00  0.00    +0.000 A 
ATOM     15  C   UNL     1     113.946 127.926 135.816  0.00  0.00    +0.000 A 
ATOM     16  C   UNL     1     113.222 128.150 137.028  0.00  0.00    +0.000 A 
ATOM     17  C   UNL     1     113.986 128.741 135.690  0.00  0.00    +0.000 A 
ATOM     18  C   UNL     1     113.262 128.964 136.901  0.00  0.00    +0.000 A 
ATOM     19  C   UNL     1     113.644 129.259 136.232  0.00  0.00    +0.000 A 
BRANCH  17  20
ATOM     20  O   UNL     1     114.368 129.036 135.021  0.00  0.00    +0.000 OA
ATOM     21  C   UNL     1     114.743 129.770 135.050  0.00  0.00    +0.000 C 
ENDBRANCH  17  20
ENDBRANCH   5  14
TORSDOF 2
ENDMDL
MODEL 10
REMARK VINA RESULT:      -7.6      1.325      2.361
REMARK  Name = 101675301
REMARK  2 active torsions:
REMARK  status: ('A' for Active; 'I' for Inactive)
REMARK    1  A    between atoms: O_4  and  C_18
REMARK    2  A    between atoms: C_6  and  C_8
REMARK                            x       y       z     vdW  Elec       q    Type
REMARK                         _______ _______ _______ _____ _____    ______ ____
ROOT
ATOM      1  O   UNL     1     104.084 124.607 146.095  0.00  0.00    +0.000 OA
ATOM      2  O   UNL     1     105.087 124.477 148.354  0.00  0.00    +0.000 OA
ATOM      3  O   UNL     1     106.368 124.897 147.842  0.00  0.00    +0.000 OA
ATOM      4  O   UNL     1     106.639 125.460 144.988  0.00  0.00    +0.000 OA
ATOM      5  C   UNL     1     103.622 124.376 146.739  0.00  0.00    +0.000 C 
ATOM      6  C   UNL     1     103.956 124.333 147.492  0.00  0.00    +0.000 C 
ATOM      7  C   UNL     1     105.214 124.751 146.958  0.00  0.00    +0.000 A 
ATOM      8  C   UNL     1     104.752 124.520 147.601  0.00  0.00    +0.000 C 
ATOM      9  C   UNL     1     104.880 124.794 146.205  0.00  0.00    +0.000 A 
ATOM     10  C   UNL     1     106.042 124.943 147.085  0.00  0.00    +0.000 A 
ATOM     11  C   UNL     1     105.351 125.034 145.527  0.00  0.00    +0.000 A 
ATOM     12  C   UNL     1     106.528 125.184 146.419  0.00  0.00    +0.000 A 
ATOM     13  C   UNL     1     106.180 125.230 145.635  0.00  0.00    +0.000 A 
ENDROOT
BRANCH   5  14
ATOM     14  C   UNL     1     102.826 124.189 146.629  0.00  0.00    +0.000 A 
ATOM     15  C   UNL     1     102.614 123.557 146.143  0.00  0.00    +0.000 A 
ATOM     16  C   UNL     1     102.242 124.636 147.006  0.00  0.00    +0.000 A 
ATOM     17  C   UNL     1     101.817 123.371 146.034  0.00  0.00    +0.000 A 
ATOM     18  C   UNL     1     101.446 124.449 146.895  0.00  0.00    +0.000 A 
ATOM     19  C   UNL     1     101.234 123.816 146.410  0.00  0.00    +0.000 A 
BRANCH  17  20
ATOM     20  O   UNL     1     101.605 122.739 145.548  0.00  0.00    +0.000 OA
ATOM     21  C   UNL     1     100.925 122.786 145.084  0.00  0.00    +0.000 C 
ENDBRANCH  17  20
ENDBRANCH   5  14
TORSDOF 2
ENDMDL
