MODEL 1
REMARK VINA RESULT:     -10.3      0.000      0.000
REMARK  Name = 21477996
REMARK  3 active torsions:
REMARK  status: ('A' for Active; 'I' for Inactive)
REMARK    1  A    between atoms: O_2  and  C_16
REMARK    2  A    between atoms: O_2  and  C_18
REMARK    3  A    between atoms: C_19  and  C_23
REMARK                            x       y       z     vdW  Elec       q    Type
REMARK                         _______ _______ _______ _____ _____    ______ ____
ROOT
ATOM      1  O   UNL     1     105.637 124.398 147.688  0.00  0.00    +0.000 OA
ATOM      2  O   UNL     1     107.034 125.632 146.060  0.00  0.00    +0.000 OA
ATOM      3  O   UNL     1     108.147 125.640 146.977  0.00  0.00    +0.000 OA
ATOM      4  O   UNL     1     107.840 124.375 149.592  0.00  0.00    +0.000 OA
ATOM      5  C   UNL     1     105.792 125.019 146.409  0.00  0.00    +0.000 A 
ATOM      6  C   UNL     1     105.327 124.607 146.952  0.00  0.00    +0.000 A 
ATOM      7  C   UNL     1     106.569 125.221 146.602  0.00  0.00    +0.000 A 
ATOM      8  C   UNL     1     106.879 125.012 147.337  0.00  0.00    +0.000 A 
ATOM      9  C   UNL     1     106.413 124.601 147.880  0.00  0.00    +0.000 A 
ATOM     10  C   UNL     1     107.689 125.229 147.526  0.00  0.00    +0.000 A 
ATOM     11  C   UNL     1     106.725 124.378 148.649  0.00  0.00    +0.000 A 
ATOM     12  C   UNL     1     108.018 125.014 148.290  0.00  0.00    +0.000 A 
ATOM     13  C   UNL     1     107.533 124.586 148.855  0.00  0.00    +0.000 A 
ENDROOT
BRANCH   6  17
ATOM     14  O   UNL     1     103.482 122.961 145.518  0.00  0.00    +0.000 OA
ATOM     15  O   UNL     1     102.514 125.034 147.231  0.00  0.00    +0.000 OA
ATOM     16  O   UNL     1     102.222 123.795 146.182  0.00  0.00    +0.000 OA
ATOM     17  C   UNL     1     104.550 124.405 146.760  0.00  0.00    +0.000 A 
ATOM     18  C   UNL     1     103.920 124.821 147.092  0.00  0.00    +0.000 A 
ATOM     19  C   UNL     1     104.404 123.784 146.235  0.00  0.00    +0.000 A 
ATOM     20  C   UNL     1     103.628 123.582 146.043  0.00  0.00    +0.000 A 
ATOM     21  C   UNL     1     103.144 124.618 146.899  0.00  0.00    +0.000 A 
ATOM     22  C   UNL     1     102.998 123.998 146.375  0.00  0.00    +0.000 A 
ENDBRANCH   6  17
BRANCH   5  23
ATOM     23  O   UNL     1     105.482 125.227 145.674  0.00  0.00    +0.000 OA
BRANCH  23  31
ATOM     24  O   UNL     1     105.365 126.610 146.018  0.00  0.00    +0.000 OA
ATOM     25  O   UNL     1     105.558 127.221 143.628  0.00  0.00    +0.000 OA
ATOM     26  O   UNL     1     105.611 125.635 144.081  0.00  0.00    +0.000 OA
ATOM     27  O   UNL     1     105.377 128.399 144.769  0.00  0.00    +0.000 OA
ATOM     28  C   UNL     1     105.494 127.018 144.424  0.00  0.00    +0.000 C 
ATOM     29  C   UNL     1     105.520 126.225 144.651  0.00  0.00    +0.000 C 
ATOM     30  C   UNL     1     105.403 127.606 144.995  0.00  0.00    +0.000 C 
ATOM     31  C   UNL     1     105.456 126.020 145.448  0.00  0.00    +0.000 C 
ATOM     32  C   UNL     1     105.339 127.403 145.792  0.00  0.00    +0.000 C 
ENDBRANCH  23  31
ENDBRANCH   5  23
TORSDOF 3
ENDMDL
MODEL 2
REMARK VINA RESULT:      -9.8      1.625      4.171
REMARK  Name = 21477996
REMARK  3 active torsions:
REMARK  status: ('A' for Active; 'I' for Inactive)
REMARK    1  A    between atoms: O_2  and  C_16
REMARK    2  A    between atoms: O_2  and  C_18
REMARK    3  A    between atoms: C_19  and  C_23
REMARK                            x       y       z     vdW  Elec       q    Type
REMARK                         _______ _______ _______ _____ _____    ______ ____
ROOT
ATOM      1  O   UNL     1     104.923 124.148 147.063  0.00  0.00    +0.000 OA
ATOM      2  O   UNL     1     103.364 125.760 148.110  0.00  0.00    +0.000 OA
ATOM      3  O   UNL     1     102.235 125.128 147.472  0.00  0.00    +0.000 OA
ATOM      4  O   UNL     1     102.694 122.820 145.741  0.00  0.00    +0.000 OA
ATOM      5  C   UNL     1     104.693 125.277 147.909  0.00  0.00    +0.000 A 
ATOM      6  C   UNL     1     105.213 124.740 147.560  0.00  0.00    +0.000 A 
ATOM      7  C   UNL     1     103.883 125.223 147.761  0.00  0.00    +0.000 A 
ATOM      8  C   UNL     1     103.593 124.632 147.265  0.00  0.00    +0.000 A 
ATOM      9  C   UNL     1     104.113 124.095 146.916  0.00  0.00    +0.000 A 
ATOM     10  C   UNL     1     102.747 124.586 147.118  0.00  0.00    +0.000 A 
ATOM     11  C   UNL     1     103.823 123.474 146.396  0.00  0.00    +0.000 A 
ATOM     12  C   UNL     1     102.439 123.972 146.602  0.00  0.00    +0.000 A 
ATOM     13  C   UNL     1     102.981 123.413 146.238  0.00  0.00    +0.000 A 
ENDROOT
BRANCH   6  17
ATOM     14  O   UNL     1     107.837 125.490 146.714  0.00  0.00    +0.000 OA
ATOM     15  O   UNL     1     107.449 124.312 149.288  0.00  0.00    +0.000 OA
ATOM     16  O   UNL     1     108.453 124.955 148.148  0.00  0.00    +0.000 OA
ATOM     17  C   UNL     1     106.023 124.793 147.708  0.00  0.00    +0.000 A 
ATOM     18  C   UNL     1     106.331 124.525 148.425  0.00  0.00    +0.000 A 
ATOM     19  C   UNL     1     106.525 125.115 147.137  0.00  0.00    +0.000 A 
ATOM     20  C   UNL     1     107.335 125.169 147.285  0.00  0.00    +0.000 A 
ATOM     21  C   UNL     1     107.141 124.580 148.571  0.00  0.00    +0.000 A 
ATOM     22  C   UNL     1     107.643 124.901 148.002  0.00  0.00    +0.000 A 
ENDBRANCH   6  17
BRANCH   5  23
ATOM     23  O   UNL     1     104.983 125.868 148.406  0.00  0.00    +0.000 OA
BRANCH  23  31
ATOM     24  O   UNL     1     104.779 126.895 147.434  0.00  0.00    +0.000 OA
ATOM     25  O   UNL     1     104.622 128.577 149.243  0.00  0.00    +0.000 OA
ATOM     26  O   UNL     1     104.878 126.989 149.612  0.00  0.00    +0.000 OA
ATOM     27  O   UNL     1     104.470 129.043 147.667  0.00  0.00    +0.000 OA
ATOM     28  C   UNL     1     104.674 128.017 148.640  0.00  0.00    +0.000 C 
ATOM     29  C   UNL     1     104.802 127.223 148.825  0.00  0.00    +0.000 C 
ATOM     30  C   UNL     1     104.598 128.249 147.852  0.00  0.00    +0.000 C 
ATOM     31  C   UNL     1     104.855 126.662 148.221  0.00  0.00    +0.000 C 
ATOM     32  C   UNL     1     104.650 127.689 147.249  0.00  0.00    +0.000 C 
ENDBRANCH  23  31
ENDBRANCH   5  23
TORSDOF 3
ENDMDL
MODEL 3
REMARK VINA RESULT:      -9.8      1.605      4.139
REMARK  Name = 21477996
REMARK  3 active torsions:
REMARK  status: ('A' for Active; 'I' for Inactive)
REMARK    1  A    between atoms: O_2  and  C_16
REMARK    2  A    between atoms: O_2  and  C_18
REMARK    3  A    between atoms: C_19  and  C_23
REMARK                            x       y       z     vdW  Elec       q    Type
REMARK                         _______ _______ _______ _____ _____    ______ ____
ROOT
ATOM      1  O   UNL     1     103.708 125.719 147.308  0.00  0.00    +0.000 OA
ATOM      2  O   UNL     1     105.628 124.395 146.480  0.00  0.00    +0.000 OA
ATOM      3  O   UNL     1     104.757 123.306 146.112  0.00  0.00    +0.000 OA
ATOM      4  O   UNL     1     101.887 123.562 146.592  0.00  0.00    +0.000 OA
ATOM      5  C   UNL     1     105.112 125.589 147.071  0.00  0.00    +0.000 A 
ATOM      6  C   UNL     1     104.472 126.030 147.348  0.00  0.00    +0.000 A 
ATOM      7  C   UNL     1     104.988 124.836 146.756  0.00  0.00    +0.000 A 
ATOM      8  C   UNL     1     104.226 124.525 146.717  0.00  0.00    +0.000 A 
ATOM      9  C   UNL     1     103.586 124.966 146.993  0.00  0.00    +0.000 A 
ATOM     10  C   UNL     1     104.110 123.740 146.386  0.00  0.00    +0.000 A 
ATOM     11  C   UNL     1     102.786 124.653 146.957  0.00  0.00    +0.000 A 
ATOM     12  C   UNL     1     103.318 123.411 146.342  0.00  0.00    +0.000 A 
ATOM     13  C   UNL     1     102.652 123.870 146.630  0.00  0.00    +0.000 A 
ENDROOT
BRANCH   6  17
ATOM     14  O   UNL     1     104.983 128.817 146.973  0.00  0.00    +0.000 OA
ATOM     15  O   UNL     1     104.694 127.759 149.612  0.00  0.00    +0.000 OA
ATOM     16  O   UNL     1     104.961 129.041 148.607  0.00  0.00    +0.000 OA
ATOM     17  C   UNL     1     104.594 126.782 147.663  0.00  0.00    +0.000 A 
ATOM     18  C   UNL     1     104.582 126.894 148.480  0.00  0.00    +0.000 A 
ATOM     19  C   UNL     1     104.727 127.423 147.160  0.00  0.00    +0.000 A 
ATOM     20  C   UNL     1     104.850 128.176 147.476  0.00  0.00    +0.000 A 
ATOM     21  C   UNL     1     104.705 127.647 148.795  0.00  0.00    +0.000 A 
ATOM     22  C   UNL     1     104.838 128.288 148.293  0.00  0.00    +0.000 A 
ENDBRANCH   6  17
BRANCH   5  23
ATOM     23  O   UNL     1     105.874 125.900 147.111  0.00  0.00    +0.000 OA
BRANCH  23  31
ATOM     24  O   UNL     1     106.238 125.068 148.215  0.00  0.00    +0.000 OA
ATOM     25  O   UNL     1     108.621 125.268 147.581  0.00  0.00    +0.000 OA
ATOM     26  O   UNL     1     107.464 126.033 146.688  0.00  0.00    +0.000 OA
ATOM     27  O   UNL     1     108.190 124.370 148.896  0.00  0.00    +0.000 OA
ATOM     28  C   UNL     1     107.827 125.202 147.792  0.00  0.00    +0.000 C 
ATOM     29  C   UNL     1     107.248 125.584 147.346  0.00  0.00    +0.000 C 
ATOM     30  C   UNL     1     107.611 124.752 148.450  0.00  0.00    +0.000 C 
ATOM     31  C   UNL     1     106.453 125.517 147.557  0.00  0.00    +0.000 C 
ATOM     32  C   UNL     1     106.817 124.686 148.661  0.00  0.00    +0.000 C 
ENDBRANCH  23  31
ENDBRANCH   5  23
TORSDOF 3
ENDMDL
MODEL 4
REMARK VINA RESULT:      -9.5     10.151     12.250
REMARK  Name = 21477996
REMARK  3 active torsions:
REMARK  status: ('A' for Active; 'I' for Inactive)
REMARK    1  A    between atoms: O_2  and  C_16
REMARK    2  A    between atoms: O_2  and  C_18
REMARK    3  A    between atoms: C_19  and  C_23
REMARK                            x       y       z     vdW  Elec       q    Type
REMARK                         _______ _______ _______ _____ _____    ______ ____
ROOT
ATOM      1  O   UNL     1     113.455 127.180 136.333  0.00  0.00    +0.000 OA
ATOM      2  O   UNL     1     112.389 128.326 138.250  0.00  0.00    +0.000 OA
ATOM      3  O   UNL     1     112.741 129.617 137.712  0.00  0.00    +0.000 OA
ATOM      4  O   UNL     1     114.199 129.751 135.184  0.00  0.00    +0.000 OA
ATOM      5  C   UNL     1     112.742 127.120 137.570  0.00  0.00    +0.000 A 
ATOM      6  C   UNL     1     113.097 126.738 136.931  0.00  0.00    +0.000 A 
ATOM      7  C   UNL     1     112.745 127.944 137.611  0.00  0.00    +0.000 A 
ATOM      8  C   UNL     1     113.102 128.386 137.014  0.00  0.00    +0.000 A 
ATOM      9  C   UNL     1     113.458 128.004 136.375  0.00  0.00    +0.000 A 
ATOM     10  C   UNL     1     113.099 129.244 137.069  0.00  0.00    +0.000 A 
ATOM     11  C   UNL     1     113.834 128.454 135.746  0.00  0.00    +0.000 A 
ATOM     12  C   UNL     1     113.470 129.709 136.449  0.00  0.00    +0.000 A 
ATOM     13  C   UNL     1     113.840 129.312 135.784  0.00  0.00    +0.000 A 
ENDROOT
BRANCH   6  17
ATOM     14  O   UNL     1     111.727 124.293 136.370  0.00  0.00    +0.000 OA
ATOM     15  O   UNL     1     114.449 124.239 137.237  0.00  0.00    +0.000 OA
ATOM     16  O   UNL     1     113.085 123.442 136.761  0.00  0.00    +0.000 OA
ATOM     17  C   UNL     1     113.095 125.914 136.889  0.00  0.00    +0.000 A 
ATOM     18  C   UNL     1     113.774 125.489 137.084  0.00  0.00    +0.000 A 
ATOM     19  C   UNL     1     112.412 125.516 136.650  0.00  0.00    +0.000 A 
ATOM     20  C   UNL     1     112.409 124.692 136.608  0.00  0.00    +0.000 A 
ATOM     21  C   UNL     1     113.770 124.665 137.041  0.00  0.00    +0.000 A 
ATOM     22  C   UNL     1     113.089 124.266 136.804  0.00  0.00    +0.000 A 
ENDBRANCH   6  17
BRANCH   5  23
ATOM     23  O   UNL     1     112.384 126.678 138.167  0.00  0.00    +0.000 OA
BRANCH  23  31
ATOM     24  O   UNL     1     113.435 126.958 139.094  0.00  0.00    +0.000 OA
ATOM     25  O   UNL     1     111.901 126.489 140.977  0.00  0.00    +0.000 OA
ATOM     26  O   UNL     1     111.361 126.365 139.423  0.00  0.00    +0.000 OA
ATOM     27  O   UNL     1     113.464 126.926 141.275  0.00  0.00    +0.000 OA
ATOM     28  C   UNL     1     112.412 126.645 140.350  0.00  0.00    +0.000 C 
ATOM     29  C   UNL     1     112.142 126.583 139.573  0.00  0.00    +0.000 C 
ATOM     30  C   UNL     1     113.194 126.864 140.498  0.00  0.00    +0.000 C 
ATOM     31  C   UNL     1     112.654 126.740 138.944  0.00  0.00    +0.000 C 
ATOM     32  C   UNL     1     113.705 127.020 139.871  0.00  0.00    +0.000 C 
ENDBRANCH  23  31
ENDBRANCH   5  23
TORSDOF 3
ENDMDL
MODEL 5
REMARK VINA RESULT:      -9.4     10.335     12.523
REMARK  Name = 21477996
REMARK  3 active torsions:
REMARK  status: ('A' for Active; 'I' for Inactive)
REMARK    1  A    between atoms: O_2  and  C_16
REMARK    2  A    between atoms: O_2  and  C_18
REMARK    3  A    between atoms: C_19  and  C_23
REMARK                            x       y       z     vdW  Elec       q    Type
REMARK                         _______ _______ _______ _____ _____    ______ ____
ROOT
ATOM      1  O   UNL     1     113.544 126.758 136.787  0.00  0.00    +0.000 OA
ATOM      2  O   UNL     1     111.594 125.431 136.036  0.00  0.00    +0.000 OA
ATOM      3  O   UNL     1     112.262 124.200 136.380  0.00  0.00    +0.000 OA
ATOM      4  O   UNL     1     114.955 124.314 137.506  0.00  0.00    +0.000 OA
ATOM      5  C   UNL     1     112.226 126.697 136.236  0.00  0.00    +0.000 A 
ATOM      6  C   UNL     1     112.876 127.139 136.487  0.00  0.00    +0.000 A 
ATOM      7  C   UNL     1     112.244 125.873 136.286  0.00  0.00    +0.000 A 
ATOM      8  C   UNL     1     112.911 125.493 136.586  0.00  0.00    +0.000 A 
ATOM      9  C   UNL     1     113.561 125.935 136.837  0.00  0.00    +0.000 A 
ATOM     10  C   UNL     1     112.917 124.634 136.633  0.00  0.00    +0.000 A 
ATOM     11  C   UNL     1     114.262 125.549 137.151  0.00  0.00    +0.000 A 
ATOM     12  C   UNL     1     113.609 124.232 136.945  0.00  0.00    +0.000 A 
ATOM     13  C   UNL     1     114.286 124.692 137.205  0.00  0.00    +0.000 A 
ENDROOT
BRANCH   6  17
ATOM     14  O   UNL     1     113.083 129.529 134.933  0.00  0.00    +0.000 OA
ATOM     15  O   UNL     1     112.568 129.689 137.740  0.00  0.00    +0.000 OA
ATOM     16  O   UNL     1     112.809 130.433 136.287  0.00  0.00    +0.000 OA
ATOM     17  C   UNL     1     112.859 127.962 136.437  0.00  0.00    +0.000 A 
ATOM     18  C   UNL     1     112.722 128.414 137.114  0.00  0.00    +0.000 A 
ATOM     19  C   UNL     1     112.979 128.334 135.710  0.00  0.00    +0.000 A 
ATOM     20  C   UNL     1     112.962 129.157 135.661  0.00  0.00    +0.000 A 
ATOM     21  C   UNL     1     112.705 129.238 137.063  0.00  0.00    +0.000 A 
ATOM     22  C   UNL     1     112.825 129.609 136.337  0.00  0.00    +0.000 A 
ENDBRANCH   6  17
BRANCH   5  23
ATOM     23  O   UNL     1     111.559 127.078 135.937  0.00  0.00    +0.000 OA
BRANCH  23  31
ATOM     24  O   UNL     1     110.787 126.819 137.111  0.00  0.00    +0.000 OA
ATOM     25  O   UNL     1     108.707 126.981 135.779  0.00  0.00    +0.000 OA
ATOM     26  O   UNL     1     110.172 127.186 135.049  0.00  0.00    +0.000 OA
ATOM     27  O   UNL     1     108.629 126.668 137.398  0.00  0.00    +0.000 OA
ATOM     28  C   UNL     1     109.400 126.927 136.223  0.00  0.00    +0.000 C 
ATOM     29  C   UNL     1     110.132 127.030 135.858  0.00  0.00    +0.000 C 
ATOM     30  C   UNL     1     109.361 126.771 137.032  0.00  0.00    +0.000 C 
ATOM     31  C   UNL     1     110.827 126.975 136.302  0.00  0.00    +0.000 C 
ATOM     32  C   UNL     1     110.054 126.716 137.476  0.00  0.00    +0.000 C 
ENDBRANCH  23  31
ENDBRANCH   5  23
TORSDOF 3
ENDMDL
MODEL 6
REMARK VINA RESULT:      -9.4      0.823      3.413
REMARK  Name = 21477996
REMARK  3 active torsions:
REMARK  status: ('A' for Active; 'I' for Inactive)
REMARK    1  A    between atoms: O_2  and  C_16
REMARK    2  A    between atoms: O_2  and  C_18
REMARK    3  A    between atoms: C_19  and  C_23
REMARK                            x       y       z     vdW  Elec       q    Type
REMARK                         _______ _______ _______ _____ _____    ______ ____
ROOT
ATOM      1  O   UNL     1     106.732 125.324 146.953  0.00  0.00    +0.000 OA
ATOM      2  O   UNL     1     104.750 124.718 148.305  0.00  0.00    +0.000 OA
ATOM      3  O   UNL     1     105.590 124.296 149.399  0.00  0.00    +0.000 OA
ATOM      4  O   UNL     1     108.491 124.491 149.119  0.00  0.00    +0.000 OA
ATOM      5  C   UNL     1     105.313 125.227 147.094  0.00  0.00    +0.000 A 
ATOM      6  C   UNL     1     105.974 125.429 146.644  0.00  0.00    +0.000 A 
ATOM      7  C   UNL     1     105.411 124.920 147.854  0.00  0.00    +0.000 A 
ATOM      8  C   UNL     1     106.168 124.816 148.163  0.00  0.00    +0.000 A 
ATOM      9  C   UNL     1     106.829 125.018 147.712  0.00  0.00    +0.000 A 
ATOM     10  C   UNL     1     106.256 124.495 148.956  0.00  0.00    +0.000 A 
ATOM     11  C   UNL     1     107.624 124.913 148.023  0.00  0.00    +0.000 A 
ATOM     12  C   UNL     1     107.043 124.384 149.283  0.00  0.00    +0.000 A 
ATOM     13  C   UNL     1     107.731 124.594 148.814  0.00  0.00    +0.000 A 
ENDROOT
BRANCH   6  17
ATOM     14  O   UNL     1     105.293 127.607 144.923  0.00  0.00    +0.000 OA
ATOM     15  O   UNL     1     106.075 125.095 143.807  0.00  0.00    +0.000 OA
ATOM     16  O   UNL     1     105.587 126.658 143.606  0.00  0.00    +0.000 OA
ATOM     17  C   UNL     1     105.877 125.736 145.884  0.00  0.00    +0.000 A 
ATOM     18  C   UNL     1     106.025 125.261 145.225  0.00  0.00    +0.000 A 
ATOM     19  C   UNL     1     105.634 126.518 145.783  0.00  0.00    +0.000 A 
ATOM     20  C   UNL     1     105.537 126.825 145.024  0.00  0.00    +0.000 A 
ATOM     21  C   UNL     1     105.928 125.569 144.466  0.00  0.00    +0.000 A 
ATOM     22  C   UNL     1     105.684 126.350 144.365  0.00  0.00    +0.000 A 
ENDBRANCH   6  17
BRANCH   5  23
ATOM     23  O   UNL     1     104.556 125.331 146.786  0.00  0.00    +0.000 OA
BRANCH  23  31
ATOM     24  O   UNL     1     104.362 123.944 146.505  0.00  0.00    +0.000 OA
ATOM     25  O   UNL     1     101.924 124.218 146.828  0.00  0.00    +0.000 OA
ATOM     26  O   UNL     1     102.930 125.515 147.001  0.00  0.00    +0.000 OA
ATOM     27  O   UNL     1     102.543 122.739 146.440  0.00  0.00    +0.000 OA
ATOM     28  C   UNL     1     102.736 124.127 146.721  0.00  0.00    +0.000 C 
ATOM     29  C   UNL     1     103.239 124.775 146.807  0.00  0.00    +0.000 C 
ATOM     30  C   UNL     1     103.047 123.387 146.526  0.00  0.00    +0.000 C 
ATOM     31  C   UNL     1     104.053 124.683 146.699  0.00  0.00    +0.000 C 
ATOM     32  C   UNL     1     103.859 123.296 146.419  0.00  0.00    +0.000 C 
ENDBRANCH  23  31
ENDBRANCH   5  23
TORSDOF 3
ENDMDL
MODEL 7
REMARK VINA RESULT:      -9.4      9.157     11.145
REMARK  Name = 21477996
REMARK  3 active torsions:
REMARK  status: ('A' for Active; 'I' for Inactive)
REMARK    1  A    between atoms: O_2  and  C_16
REMARK    2  A    between atoms: O_2  and  C_18
REMARK    3  A    between atoms: C_19  and  C_23
REMARK                            x       y       z     vdW  Elec       q    Type
REMARK                         _______ _______ _______ _____ _____    ______ ____
ROOT
ATOM      1  O   UNL     1     113.779 126.228 138.219  0.00  0.00    +0.000 OA
ATOM      2  O   UNL     1     111.742 124.871 137.849  0.00  0.00    +0.000 OA
ATOM      3  O   UNL     1     112.369 124.176 136.752  0.00  0.00    +0.000 OA
ATOM      4  O   UNL     1     115.109 124.867 136.014  0.00  0.00    +0.000 OA
ATOM      5  C   UNL     1     112.438 125.886 138.576  0.00  0.00    +0.000 A 
ATOM      6  C   UNL     1     113.117 126.338 138.699  0.00  0.00    +0.000 A 
ATOM      7  C   UNL     1     112.421 125.323 137.973  0.00  0.00    +0.000 A 
ATOM      8  C   UNL     1     113.083 125.213 137.493  0.00  0.00    +0.000 A 
ATOM      9  C   UNL     1     113.761 125.665 137.616  0.00  0.00    +0.000 A 
ATOM     10  C   UNL     1     113.052 124.623 136.867  0.00  0.00    +0.000 A 
ATOM     11  C   UNL     1     114.457 125.559 137.122  0.00  0.00    +0.000 A 
ATOM     12  C   UNL     1     113.738 124.504 136.364  0.00  0.00    +0.000 A 
ATOM     13  C   UNL     1     114.445 124.975 136.492  0.00  0.00    +0.000 A 
ENDROOT
BRANCH   6  17
ATOM     14  O   UNL     1     113.360 126.986 141.472  0.00  0.00    +0.000 OA
ATOM     15  O   UNL     1     112.981 129.064 139.547  0.00  0.00    +0.000 OA
ATOM     16  O   UNL     1     113.189 128.587 141.113  0.00  0.00    +0.000 OA
ATOM     17  C   UNL     1     113.135 126.901 139.302  0.00  0.00    +0.000 A 
ATOM     18  C   UNL     1     113.049 127.701 139.122  0.00  0.00    +0.000 A 
ATOM     19  C   UNL     1     113.239 126.662 140.086  0.00  0.00    +0.000 A 
ATOM     20  C   UNL     1     113.256 127.224 140.688  0.00  0.00    +0.000 A 
ATOM     21  C   UNL     1     113.067 128.263 139.727  0.00  0.00    +0.000 A 
ATOM     22  C   UNL     1     113.171 128.025 140.509  0.00  0.00    +0.000 A 
ENDBRANCH   6  17
BRANCH   5  23
ATOM     23  O   UNL     1     111.777 125.996 139.056  0.00  0.00    +0.000 OA
BRANCH  23  31
ATOM     24  O   UNL     1     111.044 126.648 138.016  0.00  0.00    +0.000 OA
ATOM     25  O   UNL     1     108.920 126.032 139.125  0.00  0.00    +0.000 OA
ATOM     26  O   UNL     1     110.360 125.586 139.796  0.00  0.00    +0.000 OA
ATOM     27  O   UNL     1     108.897 126.889 137.715  0.00  0.00    +0.000 OA
ATOM     28  C   UNL     1     109.628 126.237 138.756  0.00  0.00    +0.000 C 
ATOM     29  C   UNL     1     110.348 126.014 139.091  0.00  0.00    +0.000 C 
ATOM     30  C   UNL     1     109.617 126.666 138.051  0.00  0.00    +0.000 C 
ATOM     31  C   UNL     1     111.057 126.219 138.721  0.00  0.00    +0.000 C 
ATOM     32  C   UNL     1     110.324 126.871 137.681  0.00  0.00    +0.000 C 
ENDBRANCH  23  31
ENDBRANCH   5  23
TORSDOF 3
ENDMDL
MODEL 8
REMARK VINA RESULT:      -9.3     11.628     13.156
REMARK  Name = 21477996
REMARK  3 active torsions:
REMARK  status: ('A' for Active; 'I' for Inactive)
REMARK    1  A    between atoms: O_2  and  C_16
REMARK    2  A    between atoms: O_2  and  C_18
REMARK    3  A    between atoms: C_19  and  C_23
REMARK                            x       y       z     vdW  Elec       q    Type
REMARK                         _______ _______ _______ _____ _____    ______ ____
ROOT
ATOM      1  O   UNL     1     111.889 126.084 136.211  0.00  0.00    +0.000 OA
ATOM      2  O   UNL     1     111.696 128.538 135.950  0.00  0.00    +0.000 OA
ATOM      3  O   UNL     1     110.502 128.388 135.154  0.00  0.00    +0.000 OA
ATOM      4  O   UNL     1     109.486 125.704 134.612  0.00  0.00    +0.000 OA
ATOM      5  C   UNL     1     112.383 127.400 136.474  0.00  0.00    +0.000 A 
ATOM      6  C   UNL     1     112.448 126.582 136.561  0.00  0.00    +0.000 A 
ATOM      7  C   UNL     1     111.760 127.720 136.037  0.00  0.00    +0.000 A 
ATOM      8  C   UNL     1     111.203 127.223 135.688  0.00  0.00    +0.000 A 
ATOM      9  C   UNL     1     111.267 126.405 135.775  0.00  0.00    +0.000 A 
ATOM     10  C   UNL     1     110.558 127.569 135.236  0.00  0.00    +0.000 A 
ATOM     11  C   UNL     1     110.692 125.877 135.416  0.00  0.00    +0.000 A 
ATOM     12  C   UNL     1     109.975 127.056 134.870  0.00  0.00    +0.000 A 
ATOM     13  C   UNL     1     110.042 126.205 134.960  0.00  0.00    +0.000 A 
ENDROOT
BRANCH   6  17
ATOM     14  O   UNL     1     114.953 125.209 136.656  0.00  0.00    +0.000 OA
ATOM     15  O   UNL     1     113.678 126.027 139.080  0.00  0.00    +0.000 OA
ATOM     16  O   UNL     1     114.938 125.297 138.303  0.00  0.00    +0.000 OA
ATOM     17  C   UNL     1     113.070 126.261 136.997  0.00  0.00    +0.000 A 
ATOM     18  C   UNL     1     113.063 126.305 137.821  0.00  0.00    +0.000 A 
ATOM     19  C   UNL     1     113.700 125.896 136.608  0.00  0.00    +0.000 A 
ATOM     20  C   UNL     1     114.322 125.575 137.044  0.00  0.00    +0.000 A 
ATOM     21  C   UNL     1     113.686 125.983 138.256  0.00  0.00    +0.000 A 
ATOM     22  C   UNL     1     114.315 125.618 137.868  0.00  0.00    +0.000 A 
ENDBRANCH   6  17
BRANCH   5  23
ATOM     23  O   UNL     1     112.941 127.897 136.823  0.00  0.00    +0.000 OA
BRANCH  23  31
ATOM     24  O   UNL     1     113.566 128.213 135.577  0.00  0.00    +0.000 OA
ATOM     25  O   UNL     1     114.340 130.369 136.511  0.00  0.00    +0.000 OA
ATOM     26  O   UNL     1     113.457 129.335 137.446  0.00  0.00    +0.000 OA
ATOM     27  O   UNL     1     114.706 129.966 134.954  0.00  0.00    +0.000 OA
ATOM     28  C   UNL     1     114.082 129.651 136.200  0.00  0.00    +0.000 C 
ATOM     29  C   UNL     1     113.640 129.134 136.667  0.00  0.00    +0.000 C 
ATOM     30  C   UNL     1     114.265 129.448 135.421  0.00  0.00    +0.000 C 
ATOM     31  C   UNL     1     113.382 128.414 136.356  0.00  0.00    +0.000 C 
ATOM     32  C   UNL     1     114.007 128.730 135.110  0.00  0.00    +0.000 C 
ENDBRANCH  23  31
ENDBRANCH   5  23
TORSDOF 3
ENDMDL
MODEL 9
REMARK VINA RESULT:      -9.2     11.158     12.734
REMARK  Name = 21477996
REMARK  3 active torsions:
REMARK  status: ('A' for Active; 'I' for Inactive)
REMARK    1  A    between atoms: O_2  and  C_16
REMARK    2  A    between atoms: O_2  and  C_18
REMARK    3  A    between atoms: C_19  and  C_23
REMARK                            x       y       z     vdW  Elec       q    Type
REMARK                         _______ _______ _______ _____ _____    ______ ____
ROOT
ATOM      1  O   UNL     1     111.898 129.417 135.857  0.00  0.00    +0.000 OA
ATOM      2  O   UNL     1     112.451 131.119 137.567  0.00  0.00    +0.000 OA
ATOM      3  O   UNL     1     113.853 131.035 137.239  0.00  0.00    +0.000 OA
ATOM      4  O   UNL     1     114.712 129.192 135.142  0.00  0.00    +0.000 OA
ATOM      5  C   UNL     1     111.483 130.320 136.885  0.00  0.00    +0.000 A 
ATOM      6  C   UNL     1     111.298 129.753 136.315  0.00  0.00    +0.000 A 
ATOM      7  C   UNL     1     112.267 130.552 136.997  0.00  0.00    +0.000 A 
ATOM      8  C   UNL     1     112.866 130.217 136.540  0.00  0.00    +0.000 A 
ATOM      9  C   UNL     1     112.681 129.649 135.971  0.00  0.00    +0.000 A 
ATOM     10  C   UNL     1     113.679 130.466 136.667  0.00  0.00    +0.000 A 
ATOM     11  C   UNL     1     113.297 129.292 135.488  0.00  0.00    +0.000 A 
ATOM     12  C   UNL     1     114.307 130.121 136.194  0.00  0.00    +0.000 A 
ATOM     13  C   UNL     1     114.115 129.530 135.601  0.00  0.00    +0.000 A 
ENDROOT
BRANCH   6  17
ATOM     14  O   UNL     1     108.872 129.882 134.810  0.00  0.00    +0.000 OA
ATOM     15  O   UNL     1     109.023 128.232 137.138  0.00  0.00    +0.000 OA
ATOM     16  O   UNL     1     108.164 128.825 135.860  0.00  0.00    +0.000 OA
ATOM     17  C   UNL     1     110.515 129.521 136.202  0.00  0.00    +0.000 A 
ATOM     18  C   UNL     1     110.161 128.992 136.727  0.00  0.00    +0.000 A 
ATOM     19  C   UNL     1     110.085 129.818 135.562  0.00  0.00    +0.000 A 
ATOM     20  C   UNL     1     109.302 129.585 135.449  0.00  0.00    +0.000 A 
ATOM     21  C   UNL     1     109.377 128.761 136.613  0.00  0.00    +0.000 A 
ATOM     22  C   UNL     1     108.948 129.057 135.974  0.00  0.00    +0.000 A 
ENDBRANCH   6  17
BRANCH   5  23
ATOM     23  O   UNL     1     110.884 130.656 137.341  0.00  0.00    +0.000 OA
BRANCH  23  31
ATOM     24  O   UNL     1     110.930 131.900 136.641  0.00  0.00    +0.000 OA
ATOM     25  O   UNL     1     110.045 133.059 138.640  0.00  0.00    +0.000 OA
ATOM     26  O   UNL     1     110.294 131.428 138.675  0.00  0.00    +0.000 OA
ATOM     27  O   UNL     1     110.386 133.917 137.273  0.00  0.00    +0.000 OA
ATOM     28  C   UNL     1     110.340 132.673 137.974  0.00  0.00    +0.000 C 
ATOM     29  C   UNL     1     110.464 131.858 137.991  0.00  0.00    +0.000 C 
ATOM     30  C   UNL     1     110.511 133.102 137.290  0.00  0.00    +0.000 C 
ATOM     31  C   UNL     1     110.760 131.471 137.324  0.00  0.00    +0.000 C 
ATOM     32  C   UNL     1     110.806 132.716 136.624  0.00  0.00    +0.000 C 
ENDBRANCH  23  31
ENDBRANCH   5  23
TORSDOF 3
ENDMDL
MODEL 10
REMARK VINA RESULT:      -9.2     10.954     12.917
REMARK  Name = 21477996
REMARK  3 active torsions:
REMARK  status: ('A' for Active; 'I' for Inactive)
REMARK    1  A    between atoms: O_2  and  C_16
REMARK    2  A    between atoms: O_2  and  C_18
REMARK    3  A    between atoms: C_19  and  C_23
REMARK                            x       y       z     vdW  Elec       q    Type
REMARK                         _______ _______ _______ _____ _____    ______ ____
ROOT
ATOM      1  O   UNL     1     112.486 130.838 136.731  0.00  0.00    +0.000 OA
ATOM      2  O   UNL     1     111.280 129.301 135.210  0.00  0.00    +0.000 OA
ATOM      3  O   UNL     1     112.524 128.742 134.742  0.00  0.00    +0.000 OA
ATOM      4  O   UNL     1     115.036 129.757 135.833  0.00  0.00    +0.000 OA
ATOM      5  C   UNL     1     111.259 130.338 136.194  0.00  0.00    +0.000 A 
ATOM      6  C   UNL     1     111.661 130.850 136.700  0.00  0.00    +0.000 A 
ATOM      7  C   UNL     1     111.682 129.814 135.717  0.00  0.00    +0.000 A 
ATOM      8  C   UNL     1     112.506 129.801 135.747  0.00  0.00    +0.000 A 
ATOM      9  C   UNL     1     112.907 130.314 136.254  0.00  0.00    +0.000 A 
ATOM     10  C   UNL     1     112.935 129.250 135.245  0.00  0.00    +0.000 A 
ATOM     11  C   UNL     1     113.766 130.310 136.294  0.00  0.00    +0.000 A 
ATOM     12  C   UNL     1     113.793 129.233 135.272  0.00  0.00    +0.000 A 
ATOM     13  C   UNL     1     114.212 129.767 135.800  0.00  0.00    +0.000 A 
ENDROOT
BRANCH   6  17
ATOM     14  O   UNL     1     110.210 133.293 137.009  0.00  0.00    +0.000 OA
ATOM     15  O   UNL     1     110.579 131.557 139.250  0.00  0.00    +0.000 OA
ATOM     16  O   UNL     1     109.973 132.950 138.606  0.00  0.00    +0.000 OA
ATOM     17  C   UNL     1     111.239 131.375 137.177  0.00  0.00    +0.000 A 
ATOM     18  C   UNL     1     111.120 131.203 137.975  0.00  0.00    +0.000 A 
ATOM     19  C   UNL     1     110.935 132.071 136.855  0.00  0.00    +0.000 A 
ATOM     20  C   UNL     1     110.513 132.596 137.332  0.00  0.00    +0.000 A 
ATOM     21  C   UNL     1     110.698 131.729 138.451  0.00  0.00    +0.000 A 
ATOM     22  C   UNL     1     110.395 132.425 138.130  0.00  0.00    +0.000 A 
ENDBRANCH   6  17
BRANCH   5  23
ATOM     23  O   UNL     1     110.435 130.350 136.164  0.00  0.00    +0.000 OA
BRANCH  23  31
ATOM     24  O   UNL     1     110.310 129.096 136.838  0.00  0.00    +0.000 OA
ATOM     25  O   UNL     1     108.113 128.734 135.758  0.00  0.00    +0.000 OA
ATOM     26  O   UNL     1     108.970 130.108 135.444  0.00  0.00    +0.000 OA
ATOM     27  O   UNL     1     108.721 127.601 136.793  0.00  0.00    +0.000 OA
ATOM     28  C   UNL     1     108.845 128.855 136.118  0.00  0.00    +0.000 C 
ATOM     29  C   UNL     1     109.273 129.542 135.961  0.00  0.00    +0.000 C 
ATOM     30  C   UNL     1     109.149 128.289 136.636  0.00  0.00    +0.000 C 
ATOM     31  C   UNL     1     110.006 129.663 136.321  0.00  0.00    +0.000 C 
ATOM     32  C   UNL     1     109.881 128.409 136.996  0.00  0.00    +0.000 C 
ENDBRANCH  23  31
ENDBRANCH   5  23
TORSDOF 3
ENDMDL
