MODEL 1
REMARK VINA RESULT:      -9.3      0.000      0.000
REMARK  Name = 44259680
REMARK  6 active torsions:
REMARK  status: ('A' for Active; 'I' for Inactive)
REMARK    1  A    between atoms: O_2  and  C_17
REMARK    2  A    between atoms: O_2  and  C_19
REMARK    3  A    between atoms: O_9  and  C_27
REMARK    4  A    between atoms: O_11  and  C_31
REMARK    5  A    between atoms: C_16  and  C_18
REMARK    6  A    between atoms: C_26  and  C_28
REMARK                            x       y       z     vdW  Elec       q    Type
REMARK                         _______ _______ _______ _____ _____    ______ ____
ROOT
ATOM      1  O   UNL     1     112.269 126.628 136.290  0.00  0.00    +0.000 OA
ATOM      2  O   UNL     1     109.808 125.740 135.065  0.00  0.00    +0.000 OA
ATOM      3  O   UNL     1     110.748 124.795 135.617  0.00  0.00    +0.000 OA
ATOM      4  C   UNL     1     110.619 127.808 135.352  0.00  0.00    +0.000 A 
ATOM      5  C   UNL     1     111.358 127.621 135.750  0.00  0.00    +0.000 A 
ATOM      6  C   UNL     1     110.091 127.172 135.119  0.00  0.00    +0.000 A 
ATOM      7  C   UNL     1     111.559 126.801 135.908  0.00  0.00    +0.000 A 
ATOM      8  C   UNL     1     111.051 126.191 135.684  0.00  0.00    +0.000 A 
ATOM      9  C   UNL     1     110.309 126.357 135.286  0.00  0.00    +0.000 A 
ATOM     10  C   UNL     1     111.255 125.407 135.841  0.00  0.00    +0.000 A 
ATOM     11  C   UNL     1     112.473 125.844 136.448  0.00  0.00    +0.000 A 
ATOM     12  C   UNL     1     111.965 125.234 136.223  0.00  0.00    +0.000 A 
ENDROOT
BRANCH  11  14
ATOM     13  O   UNL     1     115.314 125.152 137.975  0.00  0.00    +0.000 OA
ATOM     14  C   UNL     1     113.183 125.671 136.829  0.00  0.00    +0.000 A 
ATOM     15  C   UNL     1     113.269 125.833 137.634  0.00  0.00    +0.000 A 
ATOM     16  C   UNL     1     113.808 125.336 136.407  0.00  0.00    +0.000 A 
ATOM     17  C   UNL     1     113.979 125.660 138.016  0.00  0.00    +0.000 A 
ATOM     18  C   UNL     1     114.518 125.164 136.789  0.00  0.00    +0.000 A 
ATOM     19  C   UNL     1     114.604 125.325 137.594  0.00  0.00    +0.000 A 
BRANCH  17  20
ATOM     20  O   UNL     1     114.065 125.822 138.820  0.00  0.00    +0.000 OA
ATOM     21  C   UNL     1     113.676 126.468 139.155  0.00  0.00    +0.000 C 
ENDBRANCH  17  20
ENDBRANCH  11  14
BRANCH  12  22
ATOM     22  O   UNL     1     112.169 124.450 136.381  0.00  0.00    +0.000 OA
ATOM     23  C   UNL     1     111.580 123.877 136.448  0.00  0.00    +0.000 C 
ENDBRANCH  12  22
BRANCH   4  24
ATOM     24  O   UNL     1     110.418 128.593 135.196  0.00  0.00    +0.000 OA
BRANCH  24  33
ATOM     25  O   UNL     1     110.070 128.970 136.529  0.00  0.00    +0.000 OA
ATOM     26  O   UNL     1     108.183 130.313 135.657  0.00  0.00    +0.000 OA
ATOM     27  O   UNL     1     108.464 130.243 137.281  0.00  0.00    +0.000 OA
ATOM     28  O   UNL     1     109.160 129.488 134.614  0.00  0.00    +0.000 OA
ATOM     29  C   UNL     1     108.812 129.865 135.948  0.00  0.00    +0.000 C 
ATOM     30  C   UNL     1     108.953 129.830 136.760  0.00  0.00    +0.000 C 
ATOM     31  C   UNL     1     109.301 129.453 135.426  0.00  0.00    +0.000 C 
ATOM     32  C   UNL     1     109.582 129.382 137.050  0.00  0.00    +0.000 C 
ATOM     33  C   UNL     1     109.930 129.005 135.717  0.00  0.00    +0.000 C 
BRANCH  32  35
ATOM     34  O   UNL     1     110.475 129.511 138.159  0.00  0.00    +0.000 OA
ATOM     35  C   UNL     1     109.723 129.348 137.862  0.00  0.00    +0.000 C 
ENDBRANCH  32  35
ENDBRANCH  24  33
ENDBRANCH   4  24
TORSDOF 6
ENDMDL
MODEL 2
REMARK VINA RESULT:      -8.9      1.626      2.413
REMARK  Name = 44259680
REMARK  6 active torsions:
REMARK  status: ('A' for Active; 'I' for Inactive)
REMARK    1  A    between atoms: O_2  and  C_17
REMARK    2  A    between atoms: O_2  and  C_19
REMARK    3  A    between atoms: O_9  and  C_27
REMARK    4  A    between atoms: O_11  and  C_31
REMARK    5  A    between atoms: C_16  and  C_18
REMARK    6  A    between atoms: C_26  and  C_28
REMARK                            x       y       z     vdW  Elec       q    Type
REMARK                         _______ _______ _______ _____ _____    ______ ____
ROOT
ATOM      1  O   UNL     1     110.773 127.219 136.093  0.00  0.00    +0.000 OA
ATOM      2  O   UNL     1     112.185 129.539 135.108  0.00  0.00    +0.000 OA
ATOM      3  O   UNL     1     112.899 128.364 135.545  0.00  0.00    +0.000 OA
ATOM      4  C   UNL     1     109.988 129.175 135.348  0.00  0.00    +0.000 A 
ATOM      5  C   UNL     1     110.006 128.376 135.666  0.00  0.00    +0.000 A 
ATOM      6  C   UNL     1     110.726 129.572 135.158  0.00  0.00    +0.000 A 
ATOM      7  C   UNL     1     110.762 127.986 135.788  0.00  0.00    +0.000 A 
ATOM      8  C   UNL     1     111.470 128.368 135.605  0.00  0.00    +0.000 A 
ATOM      9  C   UNL     1     111.472 129.166 135.287  0.00  0.00    +0.000 A 
ATOM     10  C   UNL     1     112.190 127.983 135.727  0.00  0.00    +0.000 A 
ATOM     11  C   UNL     1     111.493 126.835 136.215  0.00  0.00    +0.000 A 
ATOM     12  C   UNL     1     112.201 127.216 136.032  0.00  0.00    +0.000 A 
ENDROOT
BRANCH  11  14
ATOM     13  O   UNL     1     111.538 123.769 137.435  0.00  0.00    +0.000 OA
ATOM     14  C   UNL     1     111.504 126.068 136.520  0.00  0.00    +0.000 A 
ATOM     15  C   UNL     1     111.438 125.947 137.334  0.00  0.00    +0.000 A 
ATOM     16  C   UNL     1     111.582 125.423 136.012  0.00  0.00    +0.000 A 
ATOM     17  C   UNL     1     111.449 125.181 137.639  0.00  0.00    +0.000 A 
ATOM     18  C   UNL     1     111.593 124.657 136.317  0.00  0.00    +0.000 A 
ATOM     19  C   UNL     1     111.527 124.536 137.130  0.00  0.00    +0.000 A 
BRANCH  17  20
ATOM     20  O   UNL     1     111.383 125.059 138.452  0.00  0.00    +0.000 OA
ATOM     21  C   UNL     1     110.953 125.590 138.915  0.00  0.00    +0.000 C 
ENDBRANCH  17  20
ENDBRANCH  11  14
BRANCH  12  22
ATOM     22  O   UNL     1     112.920 126.832 136.154  0.00  0.00    +0.000 OA
ATOM     23  C   UNL     1     113.608 127.270 136.271  0.00  0.00    +0.000 C 
ENDBRANCH  12  22
BRANCH   4  24
ATOM     24  O   UNL     1     109.267 129.557 135.227  0.00  0.00    +0.000 OA
BRANCH  24  33
ATOM     25  O   UNL     1     109.135 130.085 136.549  0.00  0.00    +0.000 OA
ATOM     26  O   UNL     1     108.119 132.144 135.626  0.00  0.00    +0.000 OA
ATOM     27  O   UNL     1     108.326 131.984 137.254  0.00  0.00    +0.000 OA
ATOM     28  O   UNL     1     108.589 130.930 134.612  0.00  0.00    +0.000 OA
ATOM     29  C   UNL     1     108.458 131.457 135.934  0.00  0.00    +0.000 C 
ATOM     30  C   UNL     1     108.562 131.377 136.748  0.00  0.00    +0.000 C 
ATOM     31  C   UNL     1     108.693 130.850 135.426  0.00  0.00    +0.000 C 
ATOM     32  C   UNL     1     108.900 130.691 137.056  0.00  0.00    +0.000 C 
ATOM     33  C   UNL     1     109.032 130.164 135.734  0.00  0.00    +0.000 C 
BRANCH  32  35
ATOM     34  O   UNL     1     108.653 129.982 138.271  0.00  0.00    +0.000 OA
ATOM     35  C   UNL     1     109.004 130.611 137.870  0.00  0.00    +0.000 C 
ENDBRANCH  32  35
ENDBRANCH  24  33
ENDBRANCH   4  24
TORSDOF 6
ENDMDL
MODEL 3
REMARK VINA RESULT:      -8.9      2.931      5.565
REMARK  Name = 44259680
REMARK  6 active torsions:
REMARK  status: ('A' for Active; 'I' for Inactive)
REMARK    1  A    between atoms: O_2  and  C_17
REMARK    2  A    between atoms: O_2  and  C_19
REMARK    3  A    between atoms: O_9  and  C_27
REMARK    4  A    between atoms: O_11  and  C_31
REMARK    5  A    between atoms: C_16  and  C_18
REMARK    6  A    between atoms: C_26  and  C_28
REMARK                            x       y       z     vdW  Elec       q    Type
REMARK                         _______ _______ _______ _____ _____    ______ ____
ROOT
ATOM      1  O   UNL     1     113.152 128.742 139.399  0.00  0.00    +0.000 OA
ATOM      2  O   UNL     1     111.601 128.560 136.968  0.00  0.00    +0.000 OA
ATOM      3  O   UNL     1     112.148 129.820 137.410  0.00  0.00    +0.000 OA
ATOM      4  C   UNL     1     112.176 126.974 138.443  0.00  0.00    +0.000 A 
ATOM      5  C   UNL     1     112.625 127.449 139.001  0.00  0.00    +0.000 A 
ATOM      6  C   UNL     1     111.827 127.348 137.752  0.00  0.00    +0.000 A 
ATOM      7  C   UNL     1     112.720 128.291 138.860  0.00  0.00    +0.000 A 
ATOM      8  C   UNL     1     112.385 128.650 138.197  0.00  0.00    +0.000 A 
ATOM      9  C   UNL     1     111.932 128.192 137.629  0.00  0.00    +0.000 A 
ATOM     10  C   UNL     1     112.482 129.460 138.073  0.00  0.00    +0.000 A 
ATOM     11  C   UNL     1     113.249 129.552 139.275  0.00  0.00    +0.000 A 
ATOM     12  C   UNL     1     112.915 129.911 138.612  0.00  0.00    +0.000 A 
ENDROOT
BRANCH  11  14
ATOM     13  O   UNL     1     114.978 131.356 141.431  0.00  0.00    +0.000 OA
ATOM     14  C   UNL     1     113.682 130.003 139.814  0.00  0.00    +0.000 A 
ATOM     15  C   UNL     1     113.321 130.280 140.503  0.00  0.00    +0.000 A 
ATOM     16  C   UNL     1     114.474 130.176 139.665  0.00  0.00    +0.000 A 
ATOM     17  C   UNL     1     113.753 130.731 141.042  0.00  0.00    +0.000 A 
ATOM     18  C   UNL     1     114.906 130.627 140.204  0.00  0.00    +0.000 A 
ATOM     19  C   UNL     1     114.546 130.905 140.892  0.00  0.00    +0.000 A 
BRANCH  17  20
ATOM     20  O   UNL     1     113.393 131.009 141.730  0.00  0.00    +0.000 OA
ATOM     21  C   UNL     1     112.750 130.604 142.051  0.00  0.00    +0.000 C 
ENDBRANCH  17  20
ENDBRANCH  11  14
BRANCH  12  22
ATOM     22  O   UNL     1     113.012 130.721 138.488  0.00  0.00    +0.000 OA
ATOM     23  C   UNL     1     112.718 131.071 137.802  0.00  0.00    +0.000 C 
ENDBRANCH  12  22
BRANCH   4  24
ATOM     24  O   UNL     1     112.080 126.164 138.569  0.00  0.00    +0.000 OA
BRANCH  24  33
ATOM     25  O   UNL     1     113.250 125.670 137.915  0.00  0.00    +0.000 OA
ATOM     26  O   UNL     1     111.899 123.898 136.837  0.00  0.00    +0.000 OA
ATOM     27  O   UNL     1     113.519 123.996 136.542  0.00  0.00    +0.000 OA
ATOM     28  O   UNL     1     111.179 124.983 137.851  0.00  0.00    +0.000 OA
ATOM     29  C   UNL     1     112.349 124.489 137.196  0.00  0.00    +0.000 C 
ATOM     30  C   UNL     1     113.159 124.538 137.049  0.00  0.00    +0.000 C 
ATOM     31  C   UNL     1     111.989 125.032 137.704  0.00  0.00    +0.000 C 
ATOM     32  C   UNL     1     113.610 125.129 137.408  0.00  0.00    +0.000 C 
ATOM     33  C   UNL     1     112.439 125.623 138.063  0.00  0.00    +0.000 C 
BRANCH  32  35
ATOM     34  O   UNL     1     114.953 125.206 137.889  0.00  0.00    +0.000 OA
ATOM     35  C   UNL     1     114.419 125.177 137.260  0.00  0.00    +0.000 C 
ENDBRANCH  32  35
ENDBRANCH  24  33
ENDBRANCH   4  24
TORSDOF 6
ENDMDL
MODEL 4
REMARK VINA RESULT:      -8.9      1.842      5.550
REMARK  Name = 44259680
REMARK  6 active torsions:
REMARK  status: ('A' for Active; 'I' for Inactive)
REMARK    1  A    between atoms: O_2  and  C_17
REMARK    2  A    between atoms: O_2  and  C_19
REMARK    3  A    between atoms: O_9  and  C_27
REMARK    4  A    between atoms: O_11  and  C_31
REMARK    5  A    between atoms: C_16  and  C_18
REMARK    6  A    between atoms: C_26  and  C_28
REMARK                            x       y       z     vdW  Elec       q    Type
REMARK                         _______ _______ _______ _____ _____    ______ ____
ROOT
ATOM      1  O   UNL     1     110.104 130.158 136.606  0.00  0.00    +0.000 OA
ATOM      2  O   UNL     1     108.043 128.431 135.548  0.00  0.00    +0.000 OA
ATOM      3  O   UNL     1     107.724 129.738 136.067  0.00  0.00    +0.000 OA
ATOM      4  C   UNL     1     110.251 128.103 135.738  0.00  0.00    +0.000 A 
ATOM      5  C   UNL     1     110.480 128.851 136.097  0.00  0.00    +0.000 A 
ATOM      6  C   UNL     1     109.425 127.958 135.551  0.00  0.00    +0.000 A 
ATOM      7  C   UNL     1     109.879 129.442 136.262  0.00  0.00    +0.000 A 
ATOM      8  C   UNL     1     109.086 129.302 136.082  0.00  0.00    +0.000 A 
ATOM      9  C   UNL     1     108.839 128.561 135.725  0.00  0.00    +0.000 A 
ATOM     10  C   UNL     1     108.518 129.878 136.246  0.00  0.00    +0.000 A 
ATOM     11  C   UNL     1     109.536 130.733 136.770  0.00  0.00    +0.000 A 
ATOM     12  C   UNL     1     108.743 130.593 136.590  0.00  0.00    +0.000 A 
ENDROOT
BRANCH  11  14
ATOM     13  O   UNL     1     110.435 133.595 138.146  0.00  0.00    +0.000 OA
ATOM     14  C   UNL     1     109.761 131.449 137.114  0.00  0.00    +0.000 A 
ATOM     15  C   UNL     1     109.816 131.512 137.935  0.00  0.00    +0.000 A 
ATOM     16  C   UNL     1     109.930 132.100 136.637  0.00  0.00    +0.000 A 
ATOM     17  C   UNL     1     110.041 132.228 138.279  0.00  0.00    +0.000 A 
ATOM     18  C   UNL     1     110.155 132.815 136.981  0.00  0.00    +0.000 A 
ATOM     19  C   UNL     1     110.210 132.879 137.802  0.00  0.00    +0.000 A 
BRANCH  17  20
ATOM     20  O   UNL     1     110.096 132.292 139.099  0.00  0.00    +0.000 OA
ATOM     21  C   UNL     1     110.143 131.611 139.564  0.00  0.00    +0.000 C 
ENDBRANCH  17  20
ENDBRANCH  11  14
BRANCH  12  22
ATOM     22  O   UNL     1     108.175 131.169 136.754  0.00  0.00    +0.000 OA
ATOM     23  C   UNL     1     107.572 131.319 136.212  0.00  0.00    +0.000 C 
ENDBRANCH  12  22
BRANCH   4  24
ATOM     24  O   UNL     1     110.821 127.529 135.576  0.00  0.00    +0.000 OA
BRANCH  24  33
ATOM     25  O   UNL     1     110.894 126.943 136.877  0.00  0.00    +0.000 OA
ATOM     26  O   UNL     1     111.047 124.694 135.855  0.00  0.00    +0.000 OA
ATOM     27  O   UNL     1     111.069 124.858 137.496  0.00  0.00    +0.000 OA
ATOM     28  O   UNL     1     110.923 126.030 134.895  0.00  0.00    +0.000 OA
ATOM     29  C   UNL     1     110.996 125.444 136.196  0.00  0.00    +0.000 C 
ATOM     30  C   UNL     1     111.007 125.526 137.017  0.00  0.00    +0.000 C 
ATOM     31  C   UNL     1     110.934 126.112 135.715  0.00  0.00    +0.000 C 
ATOM     32  C   UNL     1     110.956 126.276 137.357  0.00  0.00    +0.000 C 
ATOM     33  C   UNL     1     110.883 126.862 136.056  0.00  0.00    +0.000 C 
BRANCH  32  35
ATOM     34  O   UNL     1     111.521 126.854 138.536  0.00  0.00    +0.000 OA
ATOM     35  C   UNL     1     110.967 126.358 138.177  0.00  0.00    +0.000 C 
ENDBRANCH  32  35
ENDBRANCH  24  33
ENDBRANCH   4  24
TORSDOF 6
ENDMDL
MODEL 5
REMARK VINA RESULT:      -8.9      2.179      3.215
REMARK  Name = 44259680
REMARK  6 active torsions:
REMARK  status: ('A' for Active; 'I' for Inactive)
REMARK    1  A    between atoms: O_2  and  C_17
REMARK    2  A    between atoms: O_2  and  C_19
REMARK    3  A    between atoms: O_9  and  C_27
REMARK    4  A    between atoms: O_11  and  C_31
REMARK    5  A    between atoms: C_16  and  C_18
REMARK    6  A    between atoms: C_26  and  C_28
REMARK                            x       y       z     vdW  Elec       q    Type
REMARK                         _______ _______ _______ _____ _____    ______ ____
ROOT
ATOM      1  O   UNL     1     111.838 127.044 136.082  0.00  0.00    +0.000 OA
ATOM      2  O   UNL     1     110.127 128.850 134.613  0.00  0.00    +0.000 OA
ATOM      3  O   UNL     1     109.701 127.507 134.921  0.00  0.00    +0.000 OA
ATOM      4  C   UNL     1     112.184 129.159 135.446  0.00  0.00    +0.000 A 
ATOM      5  C   UNL     1     112.316 128.385 135.798  0.00  0.00    +0.000 A 
ATOM      6  C   UNL     1     111.442 129.319 135.044  0.00  0.00    +0.000 A 
ATOM      7  C   UNL     1     111.705 127.784 135.742  0.00  0.00    +0.000 A 
ATOM      8  C   UNL     1     110.993 127.938 135.355  0.00  0.00    +0.000 A 
ATOM      9  C   UNL     1     110.843 128.705 134.998  0.00  0.00    +0.000 A 
ATOM     10  C   UNL     1     110.414 127.353 135.308  0.00  0.00    +0.000 A 
ATOM     11  C   UNL     1     111.259 126.458 136.034  0.00  0.00    +0.000 A 
ATOM     12  C   UNL     1     110.547 126.613 135.648  0.00  0.00    +0.000 A 
ENDROOT
BRANCH  11  14
ATOM     13  O   UNL     1     111.790 123.498 137.393  0.00  0.00    +0.000 OA
ATOM     14  C   UNL     1     111.392 125.718 136.374  0.00  0.00    +0.000 A 
ATOM     15  C   UNL     1     111.230 125.597 137.174  0.00  0.00    +0.000 A 
ATOM     16  C   UNL     1     111.685 125.100 135.913  0.00  0.00    +0.000 A 
ATOM     17  C   UNL     1     111.363 124.857 137.514  0.00  0.00    +0.000 A 
ATOM     18  C   UNL     1     111.818 124.360 136.253  0.00  0.00    +0.000 A 
ATOM     19  C   UNL     1     111.657 124.238 137.053  0.00  0.00    +0.000 A 
BRANCH  17  20
ATOM     20  O   UNL     1     111.202 124.735 138.314  0.00  0.00    +0.000 OA
ATOM     21  C   UNL     1     111.108 125.381 138.819  0.00  0.00    +0.000 C 
ENDBRANCH  17  20
ENDBRANCH  11  14
BRANCH  12  22
ATOM     22  O   UNL     1     109.967 126.027 135.600  0.00  0.00    +0.000 OA
ATOM     23  C   UNL     1     109.331 126.117 135.084  0.00  0.00    +0.000 C 
ENDBRANCH  12  22
BRANCH   4  24
ATOM     24  O   UNL     1     112.765 129.742 135.495  0.00  0.00    +0.000 OA
BRANCH  24  33
ATOM     25  O   UNL     1     112.315 130.384 136.690  0.00  0.00    +0.000 OA
ATOM     26  O   UNL     1     114.658 130.602 137.455  0.00  0.00    +0.000 OA
ATOM     27  O   UNL     1     113.428 131.171 138.394  0.00  0.00    +0.000 OA
ATOM     28  O   UNL     1     114.327 129.888 136.005  0.00  0.00    +0.000 OA
ATOM     29  C   UNL     1     113.877 130.530 137.200  0.00  0.00    +0.000 C 
ATOM     30  C   UNL     1     113.261 130.814 137.669  0.00  0.00    +0.000 C 
ATOM     31  C   UNL     1     113.711 130.172 136.475  0.00  0.00    +0.000 C 
ATOM     32  C   UNL     1     112.480 130.741 137.414  0.00  0.00    +0.000 C 
ATOM     33  C   UNL     1     112.930 130.099 136.220  0.00  0.00    +0.000 C 
BRANCH  32  35
ATOM     34  O   UNL     1     111.327 131.570 137.575  0.00  0.00    +0.000 OA
ATOM     35  C   UNL     1     111.865 131.026 137.884  0.00  0.00    +0.000 C 
ENDBRANCH  32  35
ENDBRANCH  24  33
ENDBRANCH   4  24
TORSDOF 6
ENDMDL
MODEL 6
REMARK VINA RESULT:      -8.7      2.187      3.436
REMARK  Name = 44259680
REMARK  6 active torsions:
REMARK  status: ('A' for Active; 'I' for Inactive)
REMARK    1  A    between atoms: O_2  and  C_17
REMARK    2  A    between atoms: O_2  and  C_19
REMARK    3  A    between atoms: O_9  and  C_27
REMARK    4  A    between atoms: O_11  and  C_31
REMARK    5  A    between atoms: C_16  and  C_18
REMARK    6  A    between atoms: C_26  and  C_28
REMARK                            x       y       z     vdW  Elec       q    Type
REMARK                         _______ _______ _______ _____ _____    ______ ____
ROOT
ATOM      1  O   UNL     1     111.753 126.979 137.028  0.00  0.00    +0.000 OA
ATOM      2  O   UNL     1     110.505 128.932 135.303  0.00  0.00    +0.000 OA
ATOM      3  O   UNL     1     110.649 127.557 134.889  0.00  0.00    +0.000 OA
ATOM      4  C   UNL     1     111.376 129.158 137.354  0.00  0.00    +0.000 A 
ATOM      5  C   UNL     1     111.633 128.350 137.493  0.00  0.00    +0.000 A 
ATOM      6  C   UNL     1     110.993 129.358 136.611  0.00  0.00    +0.000 A 
ATOM      7  C   UNL     1     111.504 127.753 136.889  0.00  0.00    +0.000 A 
ATOM      8  C   UNL     1     111.136 127.946 136.176  0.00  0.00    +0.000 A 
ATOM      9  C   UNL     1     110.872 128.748 136.019  0.00  0.00    +0.000 A 
ATOM     10  C   UNL     1     111.017 127.365 135.603  0.00  0.00    +0.000 A 
ATOM     11  C   UNL     1     111.634 126.398 136.455  0.00  0.00    +0.000 A 
ATOM     12  C   UNL     1     111.266 126.591 135.742  0.00  0.00    +0.000 A 
ENDROOT
BRANCH  11  14
ATOM     13  O   UNL     1     112.630 123.302 137.012  0.00  0.00    +0.000 OA
ATOM     14  C   UNL     1     111.883 125.624 136.594  0.00  0.00    +0.000 A 
ATOM     15  C   UNL     1     112.658 125.402 136.419  0.00  0.00    +0.000 A 
ATOM     16  C   UNL     1     111.357 125.072 136.909  0.00  0.00    +0.000 A 
ATOM     17  C   UNL     1     112.907 124.628 136.558  0.00  0.00    +0.000 A 
ATOM     18  C   UNL     1     111.606 124.298 137.048  0.00  0.00    +0.000 A 
ATOM     19  C   UNL     1     112.381 124.076 136.873  0.00  0.00    +0.000 A 
BRANCH  17  20
ATOM     20  O   UNL     1     113.682 124.406 136.383  0.00  0.00    +0.000 OA
ATOM     21  C   UNL     1     114.309 124.903 136.584  0.00  0.00    +0.000 C 
ENDBRANCH  17  20
ENDBRANCH  11  14
BRANCH  12  22
ATOM     22  O   UNL     1     111.147 126.010 135.169  0.00  0.00    +0.000 OA
ATOM     23  C   UNL     1     110.546 126.097 134.612  0.00  0.00    +0.000 C 
ENDBRANCH  12  22
BRANCH   4  24
ATOM     24  O   UNL     1     111.496 129.737 137.929  0.00  0.00    +0.000 OA
BRANCH  24  33
ATOM     25  O   UNL     1     112.771 130.185 137.464  0.00  0.00    +0.000 OA
ATOM     26  O   UNL     1     113.522 130.478 139.805  0.00  0.00    +0.000 OA
ATOM     27  O   UNL     1     114.546 130.828 138.560  0.00  0.00    +0.000 OA
ATOM     28  O   UNL     1     111.996 129.933 139.489  0.00  0.00    +0.000 OA
ATOM     29  C   UNL     1     113.271 130.380 139.025  0.00  0.00    +0.000 C 
ATOM     30  C   UNL     1     113.783 130.555 138.402  0.00  0.00    +0.000 C 
ATOM     31  C   UNL     1     112.508 130.107 138.867  0.00  0.00    +0.000 C 
ATOM     32  C   UNL     1     113.533 130.458 137.622  0.00  0.00    +0.000 C 
ATOM     33  C   UNL     1     112.258 130.010 138.087  0.00  0.00    +0.000 C 
BRANCH  32  35
ATOM     34  O   UNL     1     113.806 131.143 136.398  0.00  0.00    +0.000 OA
ATOM     35  C   UNL     1     114.046 130.632 137.000  0.00  0.00    +0.000 C 
ENDBRANCH  32  35
ENDBRANCH  24  33
ENDBRANCH   4  24
TORSDOF 6
ENDMDL
MODEL 7
REMARK VINA RESULT:      -8.7      2.511      5.820
REMARK  Name = 44259680
REMARK  6 active torsions:
REMARK  status: ('A' for Active; 'I' for Inactive)
REMARK    1  A    between atoms: O_2  and  C_17
REMARK    2  A    between atoms: O_2  and  C_19
REMARK    3  A    between atoms: O_9  and  C_27
REMARK    4  A    between atoms: O_11  and  C_31
REMARK    5  A    between atoms: C_16  and  C_18
REMARK    6  A    between atoms: C_26  and  C_28
REMARK                            x       y       z     vdW  Elec       q    Type
REMARK                         _______ _______ _______ _____ _____    ______ ____
ROOT
ATOM      1  O   UNL     1     112.527 128.631 138.372  0.00  0.00    +0.000 OA
ATOM      2  O   UNL     1     113.977 127.355 140.521  0.00  0.00    +0.000 OA
ATOM      3  O   UNL     1     114.106 128.770 140.274  0.00  0.00    +0.000 OA
ATOM      4  C   UNL     1     112.556 126.492 139.020  0.00  0.00    +0.000 A 
ATOM      5  C   UNL     1     112.361 127.203 138.577  0.00  0.00    +0.000 A 
ATOM      6  C   UNL     1     113.104 126.541 139.680  0.00  0.00    +0.000 A 
ATOM      7  C   UNL     1     112.717 127.952 138.801  0.00  0.00    +0.000 A 
ATOM      8  C   UNL     1     113.244 127.998 139.434  0.00  0.00    +0.000 A 
ATOM      9  C   UNL     1     113.450 127.299 139.888  0.00  0.00    +0.000 A 
ATOM     10  C   UNL     1     113.579 128.723 139.640  0.00  0.00    +0.000 A 
ATOM     11  C   UNL     1     112.863 129.356 138.577  0.00  0.00    +0.000 A 
ATOM     12  C   UNL     1     113.389 129.402 139.211  0.00  0.00    +0.000 A 
ENDROOT
BRANCH  11  14
ATOM     13  O   UNL     1     112.100 132.071 136.864  0.00  0.00    +0.000 OA
ATOM     14  C   UNL     1     112.672 130.035 138.149  0.00  0.00    +0.000 A 
ATOM     15  C   UNL     1     112.024 130.495 138.373  0.00  0.00    +0.000 A 
ATOM     16  C   UNL     1     113.129 130.253 137.498  0.00  0.00    +0.000 A 
ATOM     17  C   UNL     1     111.834 131.174 137.944  0.00  0.00    +0.000 A 
ATOM     18  C   UNL     1     112.938 130.932 137.070  0.00  0.00    +0.000 A 
ATOM     19  C   UNL     1     112.291 131.392 137.293  0.00  0.00    +0.000 A 
BRANCH  17  20
ATOM     20  O   UNL     1     111.187 131.634 138.167  0.00  0.00    +0.000 OA
ATOM     21  C   UNL     1     110.497 131.272 138.438  0.00  0.00    +0.000 C 
ENDBRANCH  17  20
ENDBRANCH  11  14
BRANCH  12  22
ATOM     22  O   UNL     1     113.725 130.127 139.417  0.00  0.00    +0.000 OA
ATOM     23  C   UNL     1     114.222 130.181 140.071  0.00  0.00    +0.000 C 
ENDBRANCH  12  22
BRANCH   4  24
ATOM     24  O   UNL     1     112.219 125.768 138.812  0.00  0.00    +0.000 OA
BRANCH  24  33
ATOM     25  O   UNL     1     113.279 125.351 137.950  0.00  0.00    +0.000 OA
ATOM     26  O   UNL     1     111.637 124.229 136.475  0.00  0.00    +0.000 OA
ATOM     27  O   UNL     1     113.244 124.186 136.105  0.00  0.00    +0.000 OA
ATOM     28  O   UNL     1     111.124 125.020 137.829  0.00  0.00    +0.000 OA
ATOM     29  C   UNL     1     112.185 124.603 136.967  0.00  0.00    +0.000 C 
ATOM     30  C   UNL     1     112.988 124.582 136.782  0.00  0.00    +0.000 C 
ATOM     31  C   UNL     1     111.928 124.999 137.644  0.00  0.00    +0.000 C 
ATOM     32  C   UNL     1     113.535 124.955 137.273  0.00  0.00    +0.000 C 
ATOM     33  C   UNL     1     112.475 125.373 138.136  0.00  0.00    +0.000 C 
BRANCH  32  35
ATOM     34  O   UNL     1     114.878 124.615 137.625  0.00  0.00    +0.000 OA
ATOM     35  C   UNL     1     114.338 124.934 137.088  0.00  0.00    +0.000 C 
ENDBRANCH  32  35
ENDBRANCH  24  33
ENDBRANCH   4  24
TORSDOF 6
ENDMDL
MODEL 8
REMARK VINA RESULT:      -8.7      2.277      5.381
REMARK  Name = 44259680
REMARK  6 active torsions:
REMARK  status: ('A' for Active; 'I' for Inactive)
REMARK    1  A    between atoms: O_2  and  C_17
REMARK    2  A    between atoms: O_2  and  C_19
REMARK    3  A    between atoms: O_9  and  C_27
REMARK    4  A    between atoms: O_11  and  C_31
REMARK    5  A    between atoms: C_16  and  C_18
REMARK    6  A    between atoms: C_26  and  C_28
REMARK                            x       y       z     vdW  Elec       q    Type
REMARK                         _______ _______ _______ _____ _____    ______ ____
ROOT
ATOM      1  O   UNL     1     111.160 129.735 136.986  0.00  0.00    +0.000 OA
ATOM      2  O   UNL     1     113.587 128.462 136.073  0.00  0.00    +0.000 OA
ATOM      3  O   UNL     1     113.597 129.819 136.561  0.00  0.00    +0.000 OA
ATOM      4  C   UNL     1     111.492 127.677 136.181  0.00  0.00    +0.000 A 
ATOM      5  C   UNL     1     111.094 128.367 136.505  0.00  0.00    +0.000 A 
ATOM      6  C   UNL     1     112.338 127.707 136.034  0.00  0.00    +0.000 A 
ATOM      7  C   UNL     1     111.548 129.076 136.676  0.00  0.00    +0.000 A 
ATOM      8  C   UNL     1     112.360 129.104 136.534  0.00  0.00    +0.000 A 
ATOM      9  C   UNL     1     112.775 128.425 136.211  0.00  0.00    +0.000 A 
ATOM     10  C   UNL     1     112.785 129.791 136.702  0.00  0.00    +0.000 A 
ATOM     11  C   UNL     1     111.585 130.422 137.155  0.00  0.00    +0.000 A 
ATOM     12  C   UNL     1     112.397 130.450 137.013  0.00  0.00    +0.000 A 
ENDROOT
BRANCH  11  14
ATOM     13  O   UNL     1     110.037 133.058 138.397  0.00  0.00    +0.000 OA
ATOM     14  C   UNL     1     111.198 131.081 137.465  0.00  0.00    +0.000 A 
ATOM     15  C   UNL     1     111.041 131.124 138.274  0.00  0.00    +0.000 A 
ATOM     16  C   UNL     1     110.968 131.697 136.967  0.00  0.00    +0.000 A 
ATOM     17  C   UNL     1     110.654 131.783 138.585  0.00  0.00    +0.000 A 
ATOM     18  C   UNL     1     110.581 132.356 137.278  0.00  0.00    +0.000 A 
ATOM     19  C   UNL     1     110.424 132.399 138.087  0.00  0.00    +0.000 A 
BRANCH  17  20
ATOM     20  O   UNL     1     110.496 131.826 139.394  0.00  0.00    +0.000 OA
ATOM     21  C   UNL     1     110.248 131.153 139.802  0.00  0.00    +0.000 C 
ENDBRANCH  17  20
ENDBRANCH  11  14
BRANCH  12  22
ATOM     22  O   UNL     1     112.822 131.137 137.181  0.00  0.00    +0.000 OA
ATOM     23  C   UNL     1     113.638 131.100 137.294  0.00  0.00    +0.000 C 
ENDBRANCH  12  22
BRANCH   4  24
ATOM     24  O   UNL     1     111.065 126.991 136.014  0.00  0.00    +0.000 OA
BRANCH  24  33
ATOM     25  O   UNL     1     111.139 126.398 137.312  0.00  0.00    +0.000 OA
ATOM     26  O   UNL     1     111.444 124.171 136.277  0.00  0.00    +0.000 OA
ATOM     27  O   UNL     1     111.417 124.321 137.919  0.00  0.00    +0.000 OA
ATOM     28  O   UNL     1     111.268 125.506 135.324  0.00  0.00    +0.000 OA
ATOM     29  C   UNL     1     111.342 124.913 136.622  0.00  0.00    +0.000 C 
ATOM     30  C   UNL     1     111.329 124.989 137.443  0.00  0.00    +0.000 C 
ATOM     31  C   UNL     1     111.254 125.582 136.145  0.00  0.00    +0.000 C 
ATOM     32  C   UNL     1     111.227 125.731 137.788  0.00  0.00    +0.000 C 
ATOM     33  C   UNL     1     111.153 126.324 136.490  0.00  0.00    +0.000 C 
BRANCH  32  35
ATOM     34  O   UNL     1     110.568 126.161 138.981  0.00  0.00    +0.000 OA
ATOM     35  C   UNL     1     111.213 125.806 138.609  0.00  0.00    +0.000 C 
ENDBRANCH  32  35
ENDBRANCH  24  33
ENDBRANCH   4  24
TORSDOF 6
ENDMDL
MODEL 9
REMARK VINA RESULT:      -8.6      1.424      2.602
REMARK  Name = 44259680
REMARK  6 active torsions:
REMARK  status: ('A' for Active; 'I' for Inactive)
REMARK    1  A    between atoms: O_2  and  C_17
REMARK    2  A    between atoms: O_2  and  C_19
REMARK    3  A    between atoms: O_9  and  C_27
REMARK    4  A    between atoms: O_11  and  C_31
REMARK    5  A    between atoms: C_16  and  C_18
REMARK    6  A    between atoms: C_26  and  C_28
REMARK                            x       y       z     vdW  Elec       q    Type
REMARK                         _______ _______ _______ _____ _____    ______ ____
ROOT
ATOM      1  O   UNL     1     112.554 127.425 136.642  0.00  0.00    +0.000 OA
ATOM      2  O   UNL     1     112.100 129.399 138.702  0.00  0.00    +0.000 OA
ATOM      3  O   UNL     1     112.838 128.190 138.979  0.00  0.00    +0.000 OA
ATOM      4  C   UNL     1     111.468 129.377 136.553  0.00  0.00    +0.000 A 
ATOM      5  C   UNL     1     111.804 128.623 136.310  0.00  0.00    +0.000 A 
ATOM      6  C   UNL     1     111.567 129.642 137.364  0.00  0.00    +0.000 A 
ATOM      7  C   UNL     1     112.234 128.147 136.881  0.00  0.00    +0.000 A 
ATOM      8  C   UNL     1     112.328 128.402 137.660  0.00  0.00    +0.000 A 
ATOM      9  C   UNL     1     112.000 129.152 137.921  0.00  0.00    +0.000 A 
ATOM     10  C   UNL     1     112.743 127.936 138.199  0.00  0.00    +0.000 A 
ATOM     11  C   UNL     1     112.968 126.958 137.182  0.00  0.00    +0.000 A 
ATOM     12  C   UNL     1     113.063 127.214 137.960  0.00  0.00    +0.000 A 
ENDROOT
BRANCH  11  14
ATOM     13  O   UNL     1     114.247 124.070 136.225  0.00  0.00    +0.000 OA
ATOM     14  C   UNL     1     113.288 126.236 136.942  0.00  0.00    +0.000 A 
ATOM     15  C   UNL     1     112.816 125.559 136.936  0.00  0.00    +0.000 A 
ATOM     16  C   UNL     1     114.078 126.192 136.710  0.00  0.00    +0.000 A 
ATOM     17  C   UNL     1     113.136 124.837 136.697  0.00  0.00    +0.000 A 
ATOM     18  C   UNL     1     114.397 125.470 136.471  0.00  0.00    +0.000 A 
ATOM     19  C   UNL     1     113.927 124.792 136.465  0.00  0.00    +0.000 A 
BRANCH  17  20
ATOM     20  O   UNL     1     112.666 124.159 136.690  0.00  0.00    +0.000 OA
ATOM     21  C   UNL     1     111.871 124.211 136.476  0.00  0.00    +0.000 C 
ENDBRANCH  17  20
ENDBRANCH  11  14
BRANCH  12  22
ATOM     22  O   UNL     1     113.477 126.747 138.500  0.00  0.00    +0.000 OA
ATOM     23  C   UNL     1     113.320 126.811 139.306  0.00  0.00    +0.000 C 
ENDBRANCH  12  22
BRANCH   4  24
ATOM     24  O   UNL     1     111.055 129.841 136.011  0.00  0.00    +0.000 OA
BRANCH  24  33
ATOM     25  O   UNL     1     109.845 129.083 135.944  0.00  0.00    +0.000 OA
ATOM     26  O   UNL     1     108.529 131.178 136.001  0.00  0.00    +0.000 OA
ATOM     27  O   UNL     1     107.759 129.723 135.916  0.00  0.00    +0.000 OA
ATOM     28  O   UNL     1     110.177 131.238 136.049  0.00  0.00    +0.000 OA
ATOM     29  C   UNL     1     108.967 130.480 135.982  0.00  0.00    +0.000 C 
ATOM     30  C   UNL     1     108.583 129.752 135.939  0.00  0.00    +0.000 C 
ATOM     31  C   UNL     1     109.792 130.510 136.006  0.00  0.00    +0.000 C 
ATOM     32  C   UNL     1     109.022 129.053 135.920  0.00  0.00    +0.000 C 
ATOM     33  C   UNL     1     110.231 129.811 135.987  0.00  0.00    +0.000 C 
BRANCH  32  35
ATOM     34  O   UNL     1     108.692 127.791 136.503  0.00  0.00    +0.000 OA
ATOM     35  C   UNL     1     108.636 128.326 135.877  0.00  0.00    +0.000 C 
ENDBRANCH  32  35
ENDBRANCH  24  33
ENDBRANCH   4  24
TORSDOF 6
ENDMDL
MODEL 10
REMARK VINA RESULT:      -8.6      9.754     11.444
REMARK  Name = 44259680
REMARK  6 active torsions:
REMARK  status: ('A' for Active; 'I' for Inactive)
REMARK    1  A    between atoms: O_2  and  C_17
REMARK    2  A    between atoms: O_2  and  C_19
REMARK    3  A    between atoms: O_9  and  C_27
REMARK    4  A    between atoms: O_11  and  C_31
REMARK    5  A    between atoms: C_16  and  C_18
REMARK    6  A    between atoms: C_26  and  C_28
REMARK                            x       y       z     vdW  Elec       q    Type
REMARK                         _______ _______ _______ _____ _____    ______ ____
ROOT
ATOM      1  O   UNL     1     104.719 125.719 145.972  0.00  0.00    +0.000 OA
ATOM      2  O   UNL     1     107.390 126.590 146.643  0.00  0.00    +0.000 OA
ATOM      3  O   UNL     1     106.759 125.507 147.357  0.00  0.00    +0.000 OA
ATOM      4  C   UNL     1     105.972 127.341 145.080  0.00  0.00    +0.000 A 
ATOM      5  C   UNL     1     105.307 126.814 145.221  0.00  0.00    +0.000 A 
ATOM      6  C   UNL     1     106.680 127.267 145.561  0.00  0.00    +0.000 A 
ATOM      7  C   UNL     1     105.360 126.222 145.841  0.00  0.00    +0.000 A 
ATOM      8  C   UNL     1     106.040 126.151 146.302  0.00  0.00    +0.000 A 
ATOM      9  C   UNL     1     106.714 126.668 146.176  0.00  0.00    +0.000 A 
ATOM     10  C   UNL     1     106.079 125.578 146.895  0.00  0.00    +0.000 A 
ATOM     11  C   UNL     1     104.758 125.146 146.564  0.00  0.00    +0.000 A 
ATOM     12  C   UNL     1     105.438 125.076 147.025  0.00  0.00    +0.000 A 
ENDROOT
BRANCH  11  14
ATOM     13  O   UNL     1     102.194 123.136 147.086  0.00  0.00    +0.000 OA
ATOM     14  C   UNL     1     104.116 124.644 146.695  0.00  0.00    +0.000 A 
ATOM     15  C   UNL     1     104.047 123.943 146.264  0.00  0.00    +0.000 A 
ATOM     16  C   UNL     1     103.545 124.841 147.256  0.00  0.00    +0.000 A 
ATOM     17  C   UNL     1     103.406 123.440 146.394  0.00  0.00    +0.000 A 
ATOM     18  C   UNL     1     102.905 124.338 147.386  0.00  0.00    +0.000 A 
ATOM     19  C   UNL     1     102.835 123.638 146.956  0.00  0.00    +0.000 A 
BRANCH  17  20
ATOM     20  O   UNL     1     103.337 122.740 145.964  0.00  0.00    +0.000 OA
ATOM     21  C   UNL     1     103.419 122.751 145.143  0.00  0.00    +0.000 C 
ENDBRANCH  17  20
ENDBRANCH  11  14
BRANCH  12  22
ATOM     22  O   UNL     1     105.477 124.503 147.618  0.00  0.00    +0.000 OA
ATOM     23  C   UNL     1     106.100 124.509 148.157  0.00  0.00    +0.000 C 
ENDBRANCH  12  22
BRANCH   4  24
ATOM     24  O   UNL     1     105.930 127.913 144.487  0.00  0.00    +0.000 OA
BRANCH  24  33
ATOM     25  O   UNL     1     106.480 127.143 143.417  0.00  0.00    +0.000 OA
ATOM     26  O   UNL     1     104.795 128.089 141.870  0.00  0.00    +0.000 OA
ATOM     27  O   UNL     1     105.906 127.004 141.316  0.00  0.00    +0.000 OA
ATOM     28  O   UNL     1     104.807 128.544 143.456  0.00  0.00    +0.000 OA
ATOM     29  C   UNL     1     105.357 127.774 142.386  0.00  0.00    +0.000 C 
ATOM     30  C   UNL     1     105.913 127.231 142.109  0.00  0.00    +0.000 C 
ATOM     31  C   UNL     1     105.363 128.001 143.179  0.00  0.00    +0.000 C 
ATOM     32  C   UNL     1     106.474 126.915 142.624  0.00  0.00    +0.000 C 
ATOM     33  C   UNL     1     105.924 127.686 143.695  0.00  0.00    +0.000 C 
BRANCH  32  35
ATOM     34  O   UNL     1     107.833 126.496 142.486  0.00  0.00    +0.000 OA
ATOM     35  C   UNL     1     107.029 126.373 142.347  0.00  0.00    +0.000 C 
ENDBRANCH  32  35
ENDBRANCH  24  33
ENDBRANCH   4  24
TORSDOF 6
ENDMDL
