MODEL 1
REMARK VINA RESULT:     -10.1      0.000      0.000
REMARK  Name = 44257607
REMARK  4 active torsions:
REMARK  status: ('A' for Active; 'I' for Inactive)
REMARK    1  A    between atoms: O_2  and  C_16
REMARK    2  A    between atoms: O_2  and  C_18
REMARK    3  A    between atoms: C_15  and  C_17
REMARK    4  A    between atoms: C_25  and  C_27
REMARK                            x       y       z     vdW  Elec       q    Type
REMARK                         _______ _______ _______ _____ _____    ______ ____
ROOT
ATOM      1  O   UNL     1     112.439 126.409 136.300  0.00  0.00    +0.000 OA
ATOM      2  O   UNL     1     109.914 125.536 135.201  0.00  0.00    +0.000 OA
ATOM      3  O   UNL     1     110.864 124.588 135.728  0.00  0.00    +0.000 OA
ATOM      4  C   UNL     1     110.765 127.597 135.414  0.00  0.00    +0.000 A 
ATOM      5  C   UNL     1     111.519 127.407 135.782  0.00  0.00    +0.000 A 
ATOM      6  C   UNL     1     110.219 126.964 135.216  0.00  0.00    +0.000 A 
ATOM      7  C   UNL     1     111.714 126.586 135.946  0.00  0.00    +0.000 A 
ATOM      8  C   UNL     1     111.189 125.979 135.756  0.00  0.00    +0.000 A 
ATOM      9  C   UNL     1     110.432 126.150 135.388  0.00  0.00    +0.000 A 
ATOM     10  C   UNL     1     111.388 125.195 135.918  0.00  0.00    +0.000 A 
ATOM     11  C   UNL     1     112.638 125.626 136.463  0.00  0.00    +0.000 A 
ATOM     12  C   UNL     1     112.113 125.019 136.272  0.00  0.00    +0.000 A 
ENDROOT
BRANCH  11  14
ATOM     13  O   UNL     1     112.811 125.757 138.099  0.00  0.00    +0.000 OA
ATOM     14  C   UNL     1     113.362 125.449 136.816  0.00  0.00    +0.000 A 
ATOM     15  C   UNL     1     113.448 125.514 137.634  0.00  0.00    +0.000 A 
ATOM     16  C   UNL     1     114.000 125.206 136.352  0.00  0.00    +0.000 A 
ATOM     17  C   UNL     1     114.172 125.337 137.988  0.00  0.00    +0.000 A 
ATOM     18  C   UNL     1     114.723 125.030 136.705  0.00  0.00    +0.000 A 
ATOM     19  C   UNL     1     114.810 125.095 137.523  0.00  0.00    +0.000 A 
ENDBRANCH  11  14
BRANCH   4  20
ATOM     20  O   UNL     1     110.569 128.382 135.252  0.00  0.00    +0.000 OA
BRANCH  20  29
ATOM     21  O   UNL     1     110.139 128.733 136.569  0.00  0.00    +0.000 OA
ATOM     22  O   UNL     1     108.328 130.120 135.609  0.00  0.00    +0.000 OA
ATOM     23  O   UNL     1     109.361 129.307 134.612  0.00  0.00    +0.000 OA
ATOM     24  O   UNL     1     108.503 130.009 137.245  0.00  0.00    +0.000 OA
ATOM     25  C   UNL     1     108.932 129.658 135.929  0.00  0.00    +0.000 C 
ATOM     26  C   UNL     1     109.449 129.251 135.431  0.00  0.00    +0.000 C 
ATOM     27  C   UNL     1     109.020 129.602 136.747  0.00  0.00    +0.000 C 
ATOM     28  C   UNL     1     109.624 129.140 137.068  0.00  0.00    +0.000 C 
ATOM     29  C   UNL     1     110.053 128.789 135.751  0.00  0.00    +0.000 C 
BRANCH  28  32
ATOM     30  O   UNL     1     110.233 129.586 138.280  0.00  0.00    +0.000 OA
ATOM     31  O   UNL     1     109.275 128.527 138.310  0.00  0.00    +0.000 OA
ATOM     32  C   UNL     1     109.711 129.085 137.885  0.00  0.00    +0.000 C 
ENDBRANCH  28  32
ENDBRANCH  20  29
ENDBRANCH   4  20
TORSDOF 4
ENDMDL
MODEL 2
REMARK VINA RESULT:      -9.6      1.479      1.795
REMARK  Name = 44257607
REMARK  4 active torsions:
REMARK  status: ('A' for Active; 'I' for Inactive)
REMARK    1  A    between atoms: O_2  and  C_16
REMARK    2  A    between atoms: O_2  and  C_18
REMARK    3  A    between atoms: C_15  and  C_17
REMARK    4  A    between atoms: C_25  and  C_27
REMARK                            x       y       z     vdW  Elec       q    Type
REMARK                         _______ _______ _______ _____ _____    ______ ____
ROOT
ATOM      1  O   UNL     1     111.827 125.906 136.932  0.00  0.00    +0.000 OA
ATOM      2  O   UNL     1     109.471 126.106 138.592  0.00  0.00    +0.000 OA
ATOM      3  O   UNL     1     110.648 125.409 139.051  0.00  0.00    +0.000 OA
ATOM      4  C   UNL     1     109.865 126.899 136.534  0.00  0.00    +0.000 A 
ATOM      5  C   UNL     1     110.670 126.620 136.422  0.00  0.00    +0.000 A 
ATOM      6  C   UNL     1     109.456 126.727 137.270  0.00  0.00    +0.000 A 
ATOM      7  C   UNL     1     111.054 126.172 137.046  0.00  0.00    +0.000 A 
ATOM      8  C   UNL     1     110.661 126.006 137.752  0.00  0.00    +0.000 A 
ATOM      9  C   UNL     1     109.857 126.277 137.883  0.00  0.00    +0.000 A 
ATOM     10  C   UNL     1     111.040 125.575 138.344  0.00  0.00    +0.000 A 
ATOM     11  C   UNL     1     112.207 125.475 137.524  0.00  0.00    +0.000 A 
ATOM     12  C   UNL     1     111.813 125.309 138.230  0.00  0.00    +0.000 A 
ENDROOT
BRANCH  11  14
ATOM     13  O   UNL     1     112.480 124.031 136.773  0.00  0.00    +0.000 OA
ATOM     14  C   UNL     1     112.979 125.209 137.411  0.00  0.00    +0.000 A 
ATOM     15  C   UNL     1     113.116 124.487 137.035  0.00  0.00    +0.000 A 
ATOM     16  C   UNL     1     113.615 125.665 137.672  0.00  0.00    +0.000 A 
ATOM     17  C   UNL     1     113.889 124.221 136.921  0.00  0.00    +0.000 A 
ATOM     18  C   UNL     1     114.387 125.399 137.558  0.00  0.00    +0.000 A 
ATOM     19  C   UNL     1     114.524 124.677 137.183  0.00  0.00    +0.000 A 
ENDBRANCH  11  14
BRANCH   4  20
ATOM     20  O   UNL     1     109.488 127.330 135.941  0.00  0.00    +0.000 OA
BRANCH  20  29
ATOM     21  O   UNL     1     110.125 128.589 136.167  0.00  0.00    +0.000 OA
ATOM     22  O   UNL     1     107.971 129.748 135.785  0.00  0.00    +0.000 OA
ATOM     23  O   UNL     1     108.052 128.103 135.685  0.00  0.00    +0.000 OA
ATOM     24  O   UNL     1     109.326 130.620 136.139  0.00  0.00    +0.000 OA
ATOM     25  C   UNL     1     108.689 129.362 135.912  0.00  0.00    +0.000 C 
ATOM     26  C   UNL     1     108.730 128.538 135.863  0.00  0.00    +0.000 C 
ATOM     27  C   UNL     1     109.367 129.797 136.089  0.00  0.00    +0.000 C 
ATOM     28  C   UNL     1     110.085 129.411 136.217  0.00  0.00    +0.000 C 
ATOM     29  C   UNL     1     109.448 128.152 135.990  0.00  0.00    +0.000 C 
BRANCH  28  32
ATOM     30  O   UNL     1     110.918 130.069 137.173  0.00  0.00    +0.000 OA
ATOM     31  O   UNL     1     111.282 130.062 135.792  0.00  0.00    +0.000 OA
ATOM     32  C   UNL     1     110.761 129.847 136.394  0.00  0.00    +0.000 C 
ENDBRANCH  28  32
ENDBRANCH  20  29
ENDBRANCH   4  20
TORSDOF 4
ENDMDL
MODEL 3
REMARK VINA RESULT:      -9.6      1.213      1.917
REMARK  Name = 44257607
REMARK  4 active torsions:
REMARK  status: ('A' for Active; 'I' for Inactive)
REMARK    1  A    between atoms: O_2  and  C_16
REMARK    2  A    between atoms: O_2  and  C_18
REMARK    3  A    between atoms: C_15  and  C_17
REMARK    4  A    between atoms: C_25  and  C_27
REMARK                            x       y       z     vdW  Elec       q    Type
REMARK                         _______ _______ _______ _____ _____    ______ ____
ROOT
ATOM      1  O   UNL     1     112.730 126.976 136.337  0.00  0.00    +0.000 OA
ATOM      2  O   UNL     1     113.048 129.626 135.230  0.00  0.00    +0.000 OA
ATOM      3  O   UNL     1     114.180 128.891 135.738  0.00  0.00    +0.000 OA
ATOM      4  C   UNL     1     111.209 128.370 135.477  0.00  0.00    +0.000 A 
ATOM      5  C   UNL     1     111.557 127.672 135.840  0.00  0.00    +0.000 A 
ATOM      6  C   UNL     1     111.713 129.034 135.270  0.00  0.00    +0.000 A 
ATOM      7  C   UNL     1     112.402 127.648 135.989  0.00  0.00    +0.000 A 
ATOM      8  C   UNL     1     112.885 128.287 135.789  0.00  0.00    +0.000 A 
ATOM      9  C   UNL     1     112.556 128.992 135.427  0.00  0.00    +0.000 A 
ATOM     10  C   UNL     1     113.696 128.253 135.937  0.00  0.00    +0.000 A 
ATOM     11  C   UNL     1     113.541 126.942 136.485  0.00  0.00    +0.000 A 
ATOM     12  C   UNL     1     114.024 127.580 136.285  0.00  0.00    +0.000 A 
ENDROOT
BRANCH  11  14
ATOM     13  O   UNL     1     113.491 126.754 138.124  0.00  0.00    +0.000 OA
ATOM     14  C   UNL     1     113.869 126.269 136.833  0.00  0.00    +0.000 A 
ATOM     15  C   UNL     1     113.843 126.176 137.653  0.00  0.00    +0.000 A 
ATOM     16  C   UNL     1     114.222 125.691 136.362  0.00  0.00    +0.000 A 
ATOM     17  C   UNL     1     114.171 125.503 138.001  0.00  0.00    +0.000 A 
ATOM     18  C   UNL     1     114.549 125.020 136.711  0.00  0.00    +0.000 A 
ATOM     19  C   UNL     1     114.524 124.925 137.530  0.00  0.00    +0.000 A 
ENDBRANCH  11  14
BRANCH   4  20
ATOM     20  O   UNL     1     110.398 128.402 135.330  0.00  0.00    +0.000 OA
BRANCH  20  29
ATOM     21  O   UNL     1     110.023 128.851 136.634  0.00  0.00    +0.000 OA
ATOM     22  O   UNL     1     108.206 130.209 135.643  0.00  0.00    +0.000 OA
ATOM     23  O   UNL     1     109.187 129.306 134.670  0.00  0.00    +0.000 OA
ATOM     24  O   UNL     1     108.437 130.206 137.276  0.00  0.00    +0.000 OA
ATOM     25  C   UNL     1     108.812 129.756 135.973  0.00  0.00    +0.000 C 
ATOM     26  C   UNL     1     109.303 129.305 135.486  0.00  0.00    +0.000 C 
ATOM     27  C   UNL     1     108.928 129.755 136.790  0.00  0.00    +0.000 C 
ATOM     28  C   UNL     1     109.533 129.302 137.120  0.00  0.00    +0.000 C 
ATOM     29  C   UNL     1     109.908 128.852 135.817  0.00  0.00    +0.000 C 
BRANCH  28  32
ATOM     30  O   UNL     1     110.135 129.868 138.286  0.00  0.00    +0.000 OA
ATOM     31  O   UNL     1     109.277 128.732 138.404  0.00  0.00    +0.000 OA
ATOM     32  C   UNL     1     109.648 129.301 137.936  0.00  0.00    +0.000 C 
ENDBRANCH  28  32
ENDBRANCH  20  29
ENDBRANCH   4  20
TORSDOF 4
ENDMDL
MODEL 4
REMARK VINA RESULT:      -9.4      7.140     10.216
REMARK  Name = 44257607
REMARK  4 active torsions:
REMARK  status: ('A' for Active; 'I' for Inactive)
REMARK    1  A    between atoms: O_2  and  C_16
REMARK    2  A    between atoms: O_2  and  C_18
REMARK    3  A    between atoms: C_15  and  C_17
REMARK    4  A    between atoms: C_25  and  C_27
REMARK                            x       y       z     vdW  Elec       q    Type
REMARK                         _______ _______ _______ _____ _____    ______ ____
ROOT
ATOM      1  O   UNL     1     103.157 130.268 141.986  0.00  0.00    +0.000 OA
ATOM      2  O   UNL     1     103.684 128.009 140.264  0.00  0.00    +0.000 OA
ATOM      3  O   UNL     1     102.752 129.038 139.876  0.00  0.00    +0.000 OA
ATOM      4  C   UNL     1     104.522 128.522 142.277  0.00  0.00    +0.000 A 
ATOM      5  C   UNL     1     104.106 129.260 142.425  0.00  0.00    +0.000 A 
ATOM      6  C   UNL     1     104.381 128.096 141.545  0.00  0.00    +0.000 A 
ATOM      7  C   UNL     1     103.554 129.560 141.838  0.00  0.00    +0.000 A 
ATOM      8  C   UNL     1     103.419 129.150 141.135  0.00  0.00    +0.000 A 
ATOM      9  C   UNL     1     103.826 128.412 140.970  0.00  0.00    +0.000 A 
ATOM     10  C   UNL     1     102.887 129.448 140.580  0.00  0.00    +0.000 A 
ATOM     11  C   UNL     1     102.625 130.566 141.430  0.00  0.00    +0.000 A 
ATOM     12  C   UNL     1     102.491 130.156 140.727  0.00  0.00    +0.000 A 
ENDROOT
BRANCH  11  14
ATOM     13  O   UNL     1     103.313 132.003 140.996  0.00  0.00    +0.000 OA
ATOM     14  C   UNL     1     102.229 131.274 141.577  0.00  0.00    +0.000 A 
ATOM     15  C   UNL     1     102.573 131.993 141.360  0.00  0.00    +0.000 A 
ATOM     16  C   UNL     1     101.488 131.265 141.941  0.00  0.00    +0.000 A 
ATOM     17  C   UNL     1     102.176 132.701 141.507  0.00  0.00    +0.000 A 
ATOM     18  C   UNL     1     101.092 131.973 142.087  0.00  0.00    +0.000 A 
ATOM     19  C   UNL     1     101.436 132.691 141.871  0.00  0.00    +0.000 A 
ENDBRANCH  11  14
BRANCH   4  20
ATOM     20  O   UNL     1     105.054 128.226 142.835  0.00  0.00    +0.000 OA
BRANCH  20  29
ATOM     21  O   UNL     1     106.207 128.864 142.283  0.00  0.00    +0.000 OA
ATOM     22  O   UNL     1     107.600 126.937 142.968  0.00  0.00    +0.000 OA
ATOM     23  O   UNL     1     105.982 126.942 143.292  0.00  0.00    +0.000 OA
ATOM     24  O   UNL     1     108.289 128.216 142.188  0.00  0.00    +0.000 OA
ATOM     25  C   UNL     1     107.136 127.579 142.740  0.00  0.00    +0.000 C 
ATOM     26  C   UNL     1     106.326 127.582 142.902  0.00  0.00    +0.000 C 
ATOM     27  C   UNL     1     107.480 128.219 142.349  0.00  0.00    +0.000 C 
ATOM     28  C   UNL     1     107.015 128.862 142.121  0.00  0.00    +0.000 C 
ATOM     29  C   UNL     1     105.862 128.224 142.673  0.00  0.00    +0.000 C 
BRANCH  28  32
ATOM     30  O   UNL     1     107.433 129.493 140.909  0.00  0.00    +0.000 OA
ATOM     31  O   UNL     1     107.632 130.150 142.162  0.00  0.00    +0.000 OA
ATOM     32  C   UNL     1     107.360 129.501 141.731  0.00  0.00    +0.000 C 
ENDBRANCH  28  32
ENDBRANCH  20  29
ENDBRANCH   4  20
TORSDOF 4
ENDMDL
MODEL 5
REMARK VINA RESULT:      -9.4      8.575     10.471
REMARK  Name = 44257607
REMARK  4 active torsions:
REMARK  status: ('A' for Active; 'I' for Inactive)
REMARK    1  A    between atoms: O_2  and  C_16
REMARK    2  A    between atoms: O_2  and  C_18
REMARK    3  A    between atoms: C_15  and  C_17
REMARK    4  A    between atoms: C_25  and  C_27
REMARK                            x       y       z     vdW  Elec       q    Type
REMARK                         _______ _______ _______ _____ _____    ______ ____
ROOT
ATOM      1  O   UNL     1     106.540 125.608 146.459  0.00  0.00    +0.000 OA
ATOM      2  O   UNL     1     105.859 128.267 145.558  0.00  0.00    +0.000 OA
ATOM      3  O   UNL     1     106.417 128.046 146.870  0.00  0.00    +0.000 OA
ATOM      4  C   UNL     1     105.671 126.293 144.517  0.00  0.00    +0.000 A 
ATOM      5  C   UNL     1     105.981 125.775 145.130  0.00  0.00    +0.000 A 
ATOM      6  C   UNL     1     105.628 127.139 144.660  0.00  0.00    +0.000 A 
ATOM      7  C   UNL     1     106.244 126.110 145.875  0.00  0.00    +0.000 A 
ATOM      8  C   UNL     1     106.202 126.923 146.012  0.00  0.00    +0.000 A 
ATOM      9  C   UNL     1     105.896 127.456 145.412  0.00  0.00    +0.000 A 
ATOM     10  C   UNL     1     106.458 127.233 146.732  0.00  0.00    +0.000 A 
ATOM     11  C   UNL     1     106.795 125.919 147.180  0.00  0.00    +0.000 A 
ATOM     12  C   UNL     1     106.754 126.732 147.316  0.00  0.00    +0.000 A 
ENDROOT
BRANCH  11  14
ATOM     13  O   UNL     1     108.416 125.621 147.265  0.00  0.00    +0.000 OA
ATOM     14  C   UNL     1     107.092 125.417 147.764  0.00  0.00    +0.000 A 
ATOM     15  C   UNL     1     107.903 125.268 147.806  0.00  0.00    +0.000 A 
ATOM     16  C   UNL     1     106.578 125.065 148.304  0.00  0.00    +0.000 A 
ATOM     17  C   UNL     1     108.199 124.766 148.390  0.00  0.00    +0.000 A 
ATOM     18  C   UNL     1     106.875 124.563 148.888  0.00  0.00    +0.000 A 
ATOM     19  C   UNL     1     107.685 124.414 148.931  0.00  0.00    +0.000 A 
ENDBRANCH  11  14
BRANCH   4  20
ATOM     20  O   UNL     1     105.416 125.979 143.798  0.00  0.00    +0.000 OA
BRANCH  20  29
ATOM     21  O   UNL     1     106.501 126.441 142.990  0.00  0.00    +0.000 OA
ATOM     22  O   UNL     1     106.497 124.294 141.758  0.00  0.00    +0.000 OA
ATOM     23  O   UNL     1     105.414 124.548 142.976  0.00  0.00    +0.000 OA
ATOM     24  O   UNL     1     107.582 125.471 141.361  0.00  0.00    +0.000 OA
ATOM     25  C   UNL     1     106.498 125.010 142.168  0.00  0.00    +0.000 C 
ATOM     26  C   UNL     1     105.956 125.137 142.778  0.00  0.00    +0.000 C 
ATOM     27  C   UNL     1     107.040 125.599 141.970  0.00  0.00    +0.000 C 
ATOM     28  C   UNL     1     107.042 126.314 142.381  0.00  0.00    +0.000 C 
ATOM     29  C   UNL     1     105.957 125.853 143.189  0.00  0.00    +0.000 C 
BRANCH  28  32
ATOM     30  O   UNL     1     107.384 127.479 141.626  0.00  0.00    +0.000 OA
ATOM     31  O   UNL     1     108.328 126.915 142.539  0.00  0.00    +0.000 OA
ATOM     32  C   UNL     1     107.584 126.902 142.182  0.00  0.00    +0.000 C 
ENDBRANCH  28  32
ENDBRANCH  20  29
ENDBRANCH   4  20
TORSDOF 4
ENDMDL
MODEL 6
REMARK VINA RESULT:      -9.4      7.787     10.277
REMARK  Name = 44257607
REMARK  4 active torsions:
REMARK  status: ('A' for Active; 'I' for Inactive)
REMARK    1  A    between atoms: O_2  and  C_16
REMARK    2  A    between atoms: O_2  and  C_18
REMARK    3  A    between atoms: C_15  and  C_17
REMARK    4  A    between atoms: C_25  and  C_27
REMARK                            x       y       z     vdW  Elec       q    Type
REMARK                         _______ _______ _______ _____ _____    ______ ____
ROOT
ATOM      1  O   UNL     1     104.942 127.748 142.559  0.00  0.00    +0.000 OA
ATOM      2  O   UNL     1     107.820 127.530 142.690  0.00  0.00    +0.000 OA
ATOM      3  O   UNL     1     107.184 128.770 142.320  0.00  0.00    +0.000 OA
ATOM      4  C   UNL     1     106.232 126.001 143.090  0.00  0.00    +0.000 A 
ATOM      5  C   UNL     1     105.531 126.476 142.938  0.00  0.00    +0.000 A 
ATOM      6  C   UNL     1     107.010 126.357 143.007  0.00  0.00    +0.000 A 
ATOM      7  C   UNL     1     105.618 127.298 142.704  0.00  0.00    +0.000 A 
ATOM      8  C   UNL     1     106.366 127.638 142.625  0.00  0.00    +0.000 A 
ATOM      9  C   UNL     1     107.077 127.180 142.773  0.00  0.00    +0.000 A 
ATOM     10  C   UNL     1     106.437 128.429 142.400  0.00  0.00    +0.000 A 
ATOM     11  C   UNL     1     105.014 128.539 142.335  0.00  0.00    +0.000 A 
ATOM     12  C   UNL     1     105.761 128.879 142.255  0.00  0.00    +0.000 A 
ENDROOT
BRANCH  11  14
ATOM     13  O   UNL     1     104.269 128.459 140.864  0.00  0.00    +0.000 OA
ATOM     14  C   UNL     1     104.337 128.989 142.190  0.00  0.00    +0.000 A 
ATOM     15  C   UNL     1     103.966 128.949 141.454  0.00  0.00    +0.000 A 
ATOM     16  C   UNL     1     104.034 129.479 142.780  0.00  0.00    +0.000 A 
ATOM     17  C   UNL     1     103.290 129.399 141.309  0.00  0.00    +0.000 A 
ATOM     18  C   UNL     1     103.358 129.929 142.634  0.00  0.00    +0.000 A 
ATOM     19  C   UNL     1     102.986 129.889 141.899  0.00  0.00    +0.000 A 
ENDBRANCH  11  14
BRANCH   4  20
ATOM     20  O   UNL     1     106.158 125.211 143.315  0.00  0.00    +0.000 OA
BRANCH  20  29
ATOM     21  O   UNL     1     106.358 125.395 144.718  0.00  0.00    +0.000 OA
ATOM     22  O   UNL     1     104.621 123.696 145.188  0.00  0.00    +0.000 OA
ATOM     23  O   UNL     1     104.999 124.079 143.629  0.00  0.00    +0.000 OA
ATOM     24  O   UNL     1     105.400 124.446 146.433  0.00  0.00    +0.000 OA
ATOM     25  C   UNL     1     105.200 124.263 145.031  0.00  0.00    +0.000 C 
ATOM     26  C   UNL     1     105.389 124.454 144.251  0.00  0.00    +0.000 C 
ATOM     27  C   UNL     1     105.590 124.638 145.654  0.00  0.00    +0.000 C 
ATOM     28  C   UNL     1     106.169 125.204 145.497  0.00  0.00    +0.000 C 
ATOM     29  C   UNL     1     105.969 125.020 144.094  0.00  0.00    +0.000 C 
BRANCH  28  32
ATOM     30  O   UNL     1     106.239 126.261 146.456  0.00  0.00    +0.000 OA
ATOM     31  O   UNL     1     107.268 125.271 146.407  0.00  0.00    +0.000 OA
ATOM     32  C   UNL     1     106.558 125.579 146.120  0.00  0.00    +0.000 C 
ENDBRANCH  28  32
ENDBRANCH  20  29
ENDBRANCH   4  20
TORSDOF 4
ENDMDL
MODEL 7
REMARK VINA RESULT:      -9.3      1.445      2.282
REMARK  Name = 44257607
REMARK  4 active torsions:
REMARK  status: ('A' for Active; 'I' for Inactive)
REMARK    1  A    between atoms: O_2  and  C_16
REMARK    2  A    between atoms: O_2  and  C_18
REMARK    3  A    between atoms: C_15  and  C_17
REMARK    4  A    between atoms: C_25  and  C_27
REMARK                            x       y       z     vdW  Elec       q    Type
REMARK                         _______ _______ _______ _____ _____    ______ ____
ROOT
ATOM      1  O   UNL     1     112.851 126.897 136.662  0.00  0.00    +0.000 OA
ATOM      2  O   UNL     1     112.339 129.203 138.326  0.00  0.00    +0.000 OA
ATOM      3  O   UNL     1     113.163 128.116 138.794  0.00  0.00    +0.000 OA
ATOM      4  C   UNL     1     111.638 128.729 136.251  0.00  0.00    +0.000 A 
ATOM      5  C   UNL     1     112.014 127.963 136.141  0.00  0.00    +0.000 A 
ATOM      6  C   UNL     1     111.746 129.151 136.991  0.00  0.00    +0.000 A 
ATOM      7  C   UNL     1     112.493 127.632 136.773  0.00  0.00    +0.000 A 
ATOM      8  C   UNL     1     112.597 128.038 137.483  0.00  0.00    +0.000 A 
ATOM      9  C   UNL     1     112.229 128.804 137.612  0.00  0.00    +0.000 A 
ATOM     10  C   UNL     1     113.059 127.710 138.083  0.00  0.00    +0.000 A 
ATOM     11  C   UNL     1     113.314 126.569 137.261  0.00  0.00    +0.000 A 
ATOM     12  C   UNL     1     113.417 126.975 137.971  0.00  0.00    +0.000 A 
ENDROOT
BRANCH  11  14
ATOM     13  O   UNL     1     112.513 125.188 137.684  0.00  0.00    +0.000 OA
ATOM     14  C   UNL     1     113.672 125.834 137.150  0.00  0.00    +0.000 A 
ATOM     15  C   UNL     1     113.271 125.144 137.361  0.00  0.00    +0.000 A 
ATOM     16  C   UNL     1     114.430 125.789 136.828  0.00  0.00    +0.000 A 
ATOM     17  C   UNL     1     113.630 124.409 137.250  0.00  0.00    +0.000 A 
ATOM     18  C   UNL     1     114.788 125.055 136.717  0.00  0.00    +0.000 A 
ATOM     19  C   UNL     1     114.388 124.364 136.928  0.00  0.00    +0.000 A 
ENDBRANCH  11  14
BRANCH   4  20
ATOM     20  O   UNL     1     111.176 129.055 135.650  0.00  0.00    +0.000 OA
BRANCH  20  29
ATOM     21  O   UNL     1     110.010 128.262 135.882  0.00  0.00    +0.000 OA
ATOM     22  O   UNL     1     108.579 130.207 135.339  0.00  0.00    +0.000 OA
ATOM     23  O   UNL     1     110.222 130.351 135.288  0.00  0.00    +0.000 OA
ATOM     24  O   UNL     1     107.891 128.766 135.752  0.00  0.00    +0.000 OA
ATOM     25  C   UNL     1     109.056 129.558 135.520  0.00  0.00    +0.000 C 
ATOM     26  C   UNL     1     109.878 129.631 135.495  0.00  0.00    +0.000 C 
ATOM     27  C   UNL     1     108.713 128.837 135.727  0.00  0.00    +0.000 C 
ATOM     28  C   UNL     1     109.190 128.189 135.908  0.00  0.00    +0.000 C 
ATOM     29  C   UNL     1     110.355 128.982 135.676  0.00  0.00    +0.000 C 
BRANCH  28  32
ATOM     30  O   UNL     1     108.690 126.904 135.534  0.00  0.00    +0.000 OA
ATOM     31  O   UNL     1     108.656 127.314 136.902  0.00  0.00    +0.000 OA
ATOM     32  C   UNL     1     108.845 127.469 136.114  0.00  0.00    +0.000 C 
ENDBRANCH  28  32
ENDBRANCH  20  29
ENDBRANCH   4  20
TORSDOF 4
ENDMDL
MODEL 8
REMARK VINA RESULT:      -9.3      3.406      4.716
REMARK  Name = 44257607
REMARK  4 active torsions:
REMARK  status: ('A' for Active; 'I' for Inactive)
REMARK    1  A    between atoms: O_2  and  C_16
REMARK    2  A    between atoms: O_2  and  C_18
REMARK    3  A    between atoms: C_15  and  C_17
REMARK    4  A    between atoms: C_25  and  C_27
REMARK                            x       y       z     vdW  Elec       q    Type
REMARK                         _______ _______ _______ _____ _____    ______ ____
ROOT
ATOM      1  O   UNL     1     113.555 126.313 138.802  0.00  0.00    +0.000 OA
ATOM      2  O   UNL     1     110.839 126.423 139.782  0.00  0.00    +0.000 OA
ATOM      3  O   UNL     1     111.154 125.771 138.534  0.00  0.00    +0.000 OA
ATOM      4  C   UNL     1     112.732 127.229 140.668  0.00  0.00    +0.000 A 
ATOM      5  C   UNL     1     113.292 126.981 140.065  0.00  0.00    +0.000 A 
ATOM      6  C   UNL     1     111.899 127.041 140.574  0.00  0.00    +0.000 A 
ATOM      7  C   UNL     1     113.012 126.549 139.377  0.00  0.00    +0.000 A 
ATOM      8  C   UNL     1     112.212 126.368 139.288  0.00  0.00    +0.000 A 
ATOM      9  C   UNL     1     111.637 126.608 139.880  0.00  0.00    +0.000 A 
ATOM     10  C   UNL     1     111.954 125.952 138.624  0.00  0.00    +0.000 A 
ATOM     11  C   UNL     1     113.297 125.897 138.138  0.00  0.00    +0.000 A 
ATOM     12  C   UNL     1     112.497 125.717 138.049  0.00  0.00    +0.000 A 
ENDROOT
BRANCH  11  14
ATOM     13  O   UNL     1     113.559 126.846 136.813  0.00  0.00    +0.000 OA
ATOM     14  C   UNL     1     113.840 125.662 137.563  0.00  0.00    +0.000 A 
ATOM     15  C   UNL     1     113.970 126.137 136.900  0.00  0.00    +0.000 A 
ATOM     16  C   UNL     1     114.251 124.952 137.650  0.00  0.00    +0.000 A 
ATOM     17  C   UNL     1     114.513 125.901 136.325  0.00  0.00    +0.000 A 
ATOM     18  C   UNL     1     114.793 124.717 137.074  0.00  0.00    +0.000 A 
ATOM     19  C   UNL     1     114.924 125.191 136.412  0.00  0.00    +0.000 A 
ENDBRANCH  11  14
BRANCH   4  20
ATOM     20  O   UNL     1     112.992 127.645 141.331  0.00  0.00    +0.000 OA
BRANCH  20  29
ATOM     21  O   UNL     1     113.243 128.923 140.742  0.00  0.00    +0.000 OA
ATOM     22  O   UNL     1     112.106 130.023 142.646  0.00  0.00    +0.000 OA
ATOM     23  O   UNL     1     112.234 128.378 142.600  0.00  0.00    +0.000 OA
ATOM     24  O   UNL     1     112.735 130.933 141.423  0.00  0.00    +0.000 OA
ATOM     25  C   UNL     1     112.485 129.656 142.011  0.00  0.00    +0.000 C 
ATOM     26  C   UNL     1     112.549 128.833 141.988  0.00  0.00    +0.000 C 
ATOM     27  C   UNL     1     112.800 130.111 141.399  0.00  0.00    +0.000 C 
ATOM     28  C   UNL     1     113.178 129.744 140.765  0.00  0.00    +0.000 C 
ATOM     29  C   UNL     1     112.928 128.467 141.354  0.00  0.00    +0.000 C 
BRANCH  28  32
ATOM     30  O   UNL     1     113.004 130.472 139.548  0.00  0.00    +0.000 OA
ATOM     31  O   UNL     1     114.297 130.383 140.147  0.00  0.00    +0.000 OA
ATOM     32  C   UNL     1     113.493 130.199 140.154  0.00  0.00    +0.000 C 
ENDBRANCH  28  32
ENDBRANCH  20  29
ENDBRANCH   4  20
TORSDOF 4
ENDMDL
MODEL 9
REMARK VINA RESULT:      -9.1      2.267      3.999
REMARK  Name = 44257607
REMARK  4 active torsions:
REMARK  status: ('A' for Active; 'I' for Inactive)
REMARK    1  A    between atoms: O_2  and  C_16
REMARK    2  A    between atoms: O_2  and  C_18
REMARK    3  A    between atoms: C_15  and  C_17
REMARK    4  A    between atoms: C_25  and  C_27
REMARK                            x       y       z     vdW  Elec       q    Type
REMARK                         _______ _______ _______ _____ _____    ______ ____
ROOT
ATOM      1  O   UNL     1     112.666 128.329 135.579  0.00  0.00    +0.000 OA
ATOM      2  O   UNL     1     109.912 128.435 134.714  0.00  0.00    +0.000 OA
ATOM      3  O   UNL     1     110.769 129.591 134.612  0.00  0.00    +0.000 OA
ATOM      4  C   UNL     1     111.089 126.745 135.596  0.00  0.00    +0.000 A 
ATOM      5  C   UNL     1     111.847 127.136 135.703  0.00  0.00    +0.000 A 
ATOM      6  C   UNL     1     110.431 127.184 135.260  0.00  0.00    +0.000 A 
ATOM      7  C   UNL     1     111.936 127.959 135.474  0.00  0.00    +0.000 A 
ATOM      8  C   UNL     1     111.304 128.380 135.152  0.00  0.00    +0.000 A 
ATOM      9  C   UNL     1     110.539 128.006 135.037  0.00  0.00    +0.000 A 
ATOM     10  C   UNL     1     111.401 129.170 134.935  0.00  0.00    +0.000 A 
ATOM     11  C   UNL     1     112.764 129.119 135.362  0.00  0.00    +0.000 A 
ATOM     12  C   UNL     1     112.131 129.540 135.040  0.00  0.00    +0.000 A 
ENDROOT
BRANCH  11  14
ATOM     13  O   UNL     1     113.080 129.935 136.762  0.00  0.00    +0.000 OA
ATOM     14  C   UNL     1     113.494 129.489 135.468  0.00  0.00    +0.000 A 
ATOM     15  C   UNL     1     113.651 129.897 136.168  0.00  0.00    +0.000 A 
ATOM     16  C   UNL     1     114.065 129.451 134.874  0.00  0.00    +0.000 A 
ATOM     17  C   UNL     1     114.381 130.267 136.273  0.00  0.00    +0.000 A 
ATOM     18  C   UNL     1     114.794 129.821 134.980  0.00  0.00    +0.000 A 
ATOM     19  C   UNL     1     114.953 130.229 135.679  0.00  0.00    +0.000 A 
ENDBRANCH  11  14
BRANCH   4  20
ATOM     20  O   UNL     1     110.995 125.955 135.814  0.00  0.00    +0.000 OA
BRANCH  20  29
ATOM     21  O   UNL     1     110.453 126.209 137.112  0.00  0.00    +0.000 OA
ATOM     22  O   UNL     1     111.649 124.232 137.997  0.00  0.00    +0.000 OA
ATOM     23  O   UNL     1     111.792 124.637 136.404  0.00  0.00    +0.000 OA
ATOM     24  O   UNL     1     110.709 125.145 138.999  0.00  0.00    +0.000 OA
ATOM     25  C   UNL     1     111.250 124.891 137.702  0.00  0.00    +0.000 C 
ATOM     26  C   UNL     1     111.322 125.094 136.905  0.00  0.00    +0.000 C 
ATOM     27  C   UNL     1     110.780 125.348 138.203  0.00  0.00    +0.000 C 
ATOM     28  C   UNL     1     110.382 126.007 137.908  0.00  0.00    +0.000 C 
ATOM     29  C   UNL     1     110.923 125.753 136.610  0.00  0.00    +0.000 C 
BRANCH  28  32
ATOM     30  O   UNL     1     110.254 127.056 138.869  0.00  0.00    +0.000 OA
ATOM     31  O   UNL     1     109.100 126.326 138.450  0.00  0.00    +0.000 OA
ATOM     32  C   UNL     1     109.912 126.463 138.409  0.00  0.00    +0.000 C 
ENDBRANCH  28  32
ENDBRANCH  20  29
ENDBRANCH   4  20
TORSDOF 4
ENDMDL
MODEL 10
REMARK VINA RESULT:      -9.1      3.026      4.221
REMARK  Name = 44257607
REMARK  4 active torsions:
REMARK  status: ('A' for Active; 'I' for Inactive)
REMARK    1  A    between atoms: O_2  and  C_16
REMARK    2  A    between atoms: O_2  and  C_18
REMARK    3  A    between atoms: C_15  and  C_17
REMARK    4  A    between atoms: C_25  and  C_27
REMARK                            x       y       z     vdW  Elec       q    Type
REMARK                         _______ _______ _______ _____ _____    ______ ____
ROOT
ATOM      1  O   UNL     1     113.117 127.153 137.470  0.00  0.00    +0.000 OA
ATOM      2  O   UNL     1     113.693 129.662 136.160  0.00  0.00    +0.000 OA
ATOM      3  O   UNL     1     114.170 128.414 135.618  0.00  0.00    +0.000 OA
ATOM      4  C   UNL     1     112.539 129.238 138.032  0.00  0.00    +0.000 A 
ATOM      5  C   UNL     1     112.612 128.382 138.058  0.00  0.00    +0.000 A 
ATOM      6  C   UNL     1     112.905 129.675 137.389  0.00  0.00    +0.000 A 
ATOM      7  C   UNL     1     113.050 127.975 137.440  0.00  0.00    +0.000 A 
ATOM      8  C   UNL     1     113.401 128.395 136.823  0.00  0.00    +0.000 A 
ATOM      9  C   UNL     1     113.338 129.251 136.781  0.00  0.00    +0.000 A 
ATOM     10  C   UNL     1     113.819 127.994 136.236  0.00  0.00    +0.000 A 
ATOM     11  C   UNL     1     113.535 126.752 136.883  0.00  0.00    +0.000 A 
ATOM     12  C   UNL     1     113.885 127.172 136.266  0.00  0.00    +0.000 A 
ENDROOT
BRANCH  11  14
ATOM     13  O   UNL     1     112.367 125.804 136.202  0.00  0.00    +0.000 OA
ATOM     14  C   UNL     1     113.601 125.930 136.913  0.00  0.00    +0.000 A 
ATOM     15  C   UNL     1     113.017 125.456 136.572  0.00  0.00    +0.000 A 
ATOM     16  C   UNL     1     114.252 125.582 137.283  0.00  0.00    +0.000 A 
ATOM     17  C   UNL     1     113.084 124.634 136.602  0.00  0.00    +0.000 A 
ATOM     18  C   UNL     1     114.318 124.761 137.312  0.00  0.00    +0.000 A 
ATOM     19  C   UNL     1     113.734 124.287 136.972  0.00  0.00    +0.000 A 
ENDBRANCH  11  14
BRANCH   4  20
ATOM     20  O   UNL     1     112.121 129.637 138.621  0.00  0.00    +0.000 OA
BRANCH  20  29
ATOM     21  O   UNL     1     113.251 130.009 139.412  0.00  0.00    +0.000 OA
ATOM     22  O   UNL     1     111.930 129.638 141.472  0.00  0.00    +0.000 OA
ATOM     23  O   UNL     1     111.240 129.389 139.994  0.00  0.00    +0.000 OA
ATOM     24  O   UNL     1     113.499 130.134 141.577  0.00  0.00    +0.000 OA
ATOM     25  C   UNL     1     112.370 129.762 140.786  0.00  0.00    +0.000 C 
ATOM     26  C   UNL     1     112.025 129.637 140.046  0.00  0.00    +0.000 C 
ATOM     27  C   UNL     1     113.155 130.010 140.837  0.00  0.00    +0.000 C 
ATOM     28  C   UNL     1     113.595 130.134 140.151  0.00  0.00    +0.000 C 
ATOM     29  C   UNL     1     112.465 129.761 139.359  0.00  0.00    +0.000 C 
BRANCH  28  32
ATOM     30  O   UNL     1     114.980 129.830 140.330  0.00  0.00    +0.000 OA
ATOM     31  O   UNL     1     114.565 131.182 140.130  0.00  0.00    +0.000 OA
ATOM     32  C   UNL     1     114.380 130.382 140.203  0.00  0.00    +0.000 C 
ENDBRANCH  28  32
ENDBRANCH  20  29
ENDBRANCH   4  20
TORSDOF 4
ENDMDL
