MODEL 1
REMARK VINA RESULT:      -9.7      0.000      0.000
REMARK  Name = 20055255
REMARK  4 active torsions:
REMARK  status: ('A' for Active; 'I' for Inactive)
REMARK    1  A    between atoms: O_10  and  C_30
REMARK    2  A    between atoms: C_14  and  C_17
REMARK    3  A    between atoms: C_16  and  C_18
REMARK    4  A    between atoms: C_25  and  C_27
REMARK                            x       y       z     vdW  Elec       q    Type
REMARK                         _______ _______ _______ _____ _____    ______ ____
ROOT
ATOM      1  O   UNL     1     105.044 125.061 147.331  0.00  0.00    +0.000 OA
ATOM      2  O   UNL     1     107.764 125.741 146.668  0.00  0.00    +0.000 OA
ATOM      3  O   UNL     1     107.181 124.627 149.235  0.00  0.00    +0.000 OA
ATOM      4  O   UNL     1     105.832 124.273 149.604  0.00  0.00    +0.000 OA
ATOM      5  C   UNL     1     106.419 125.399 147.009  0.00  0.00    +0.000 A 
ATOM      6  C   UNL     1     105.874 125.100 147.551  0.00  0.00    +0.000 A 
ATOM      7  C   UNL     1     107.218 125.441 147.210  0.00  0.00    +0.000 A 
ATOM      8  C   UNL     1     106.128 124.842 148.292  0.00  0.00    +0.000 A 
ATOM      9  C   UNL     1     107.472 125.184 147.951  0.00  0.00    +0.000 A 
ATOM     10  C   UNL     1     106.927 124.884 148.492  0.00  0.00    +0.000 A 
ATOM     11  C   UNL     1     105.569 124.528 148.865  0.00  0.00    +0.000 A 
ATOM     12  C   UNL     1     104.472 124.750 147.890  0.00  0.00    +0.000 A 
ATOM     13  C   UNL     1     104.736 124.482 148.663  0.00  0.00    +0.000 A 
ENDROOT
BRANCH   5  20
ATOM     14  O   UNL     1     105.851 126.414 146.179  0.00  0.00    +0.000 OA
ATOM     15  O   UNL     1     106.542 124.399 145.703  0.00  0.00    +0.000 OA
ATOM     16  O   UNL     1     106.035 124.914 144.220  0.00  0.00    +0.000 OA
ATOM     17  O   UNL     1     105.405 126.429 144.043  0.00  0.00    +0.000 OA
ATOM     18  C   UNL     1     106.227 125.157 145.615  0.00  0.00    +0.000 C 
ATOM     19  C   UNL     1     105.973 125.415 144.873  0.00  0.00    +0.000 C 
ATOM     20  C   UNL     1     106.166 125.657 146.268  0.00  0.00    +0.000 C 
ATOM     21  C   UNL     1     105.659 126.172 144.785  0.00  0.00    +0.000 C 
ATOM     22  C   UNL     1     105.598 126.671 145.438  0.00  0.00    +0.000 C 
BRANCH  22  24
ATOM     23  O   UNL     1     105.537 128.041 145.844  0.00  0.00    +0.000 OA
ATOM     24  C   UNL     1     105.283 127.429 145.350  0.00  0.00    +0.000 C 
ENDBRANCH  22  24
ENDBRANCH   5  20
BRANCH  12  26
ATOM     25  O   UNL     1     101.277 124.586 147.079  0.00  0.00    +0.000 OA
ATOM     26  C   UNL     1     103.673 124.709 147.688  0.00  0.00    +0.000 A 
ATOM     27  C   UNL     1     103.395 124.082 147.229  0.00  0.00    +0.000 A 
ATOM     28  C   UNL     1     103.151 125.295 147.943  0.00  0.00    +0.000 A 
ATOM     29  C   UNL     1     102.596 124.041 147.026  0.00  0.00    +0.000 A 
ATOM     30  C   UNL     1     102.353 125.254 147.740  0.00  0.00    +0.000 A 
ATOM     31  C   UNL     1     102.075 124.627 147.282  0.00  0.00    +0.000 A 
BRANCH  29  32
ATOM     32  O   UNL     1     102.319 123.413 146.567  0.00  0.00    +0.000 OA
ATOM     33  C   UNL     1     102.789 123.103 145.965  0.00  0.00    +0.000 C 
ENDBRANCH  29  32
ENDBRANCH  12  26
TORSDOF 4
ENDMDL
MODEL 2
REMARK VINA RESULT:      -9.5     11.525     13.541
REMARK  Name = 20055255
REMARK  4 active torsions:
REMARK  status: ('A' for Active; 'I' for Inactive)
REMARK    1  A    between atoms: O_10  and  C_30
REMARK    2  A    between atoms: C_14  and  C_17
REMARK    3  A    between atoms: C_16  and  C_18
REMARK    4  A    between atoms: C_25  and  C_27
REMARK                            x       y       z     vdW  Elec       q    Type
REMARK                         _______ _______ _______ _____ _____    ______ ____
ROOT
ATOM      1  O   UNL     1     112.135 126.819 136.109  0.00  0.00    +0.000 OA
ATOM      2  O   UNL     1     110.488 128.649 134.612  0.00  0.00    +0.000 OA
ATOM      3  O   UNL     1     109.843 125.864 134.621  0.00  0.00    +0.000 OA
ATOM      4  O   UNL     1     110.642 124.917 135.358  0.00  0.00    +0.000 OA
ATOM      5  C   UNL     1     111.297 127.731 135.351  0.00  0.00    +0.000 A 
ATOM      6  C   UNL     1     111.458 126.961 135.598  0.00  0.00    +0.000 A 
ATOM      7  C   UNL     1     110.650 127.878 134.860  0.00  0.00    +0.000 A 
ATOM      8  C   UNL     1     110.974 126.339 135.355  0.00  0.00    +0.000 A 
ATOM      9  C   UNL     1     110.166 127.256 134.617  0.00  0.00    +0.000 A 
ATOM     10  C   UNL     1     110.328 126.487 134.865  0.00  0.00    +0.000 A 
ATOM     11  C   UNL     1     111.132 125.532 135.606  0.00  0.00    +0.000 A 
ATOM     12  C   UNL     1     112.308 126.019 136.370  0.00  0.00    +0.000 A 
ATOM     13  C   UNL     1     111.804 125.372 136.117  0.00  0.00    +0.000 A 
ENDROOT
BRANCH   5  20
ATOM     14  O   UNL     1     112.481 128.512 135.188  0.00  0.00    +0.000 OA
ATOM     15  O   UNL     1     110.864 128.654 136.647  0.00  0.00    +0.000 OA
ATOM     16  O   UNL     1     111.833 129.898 137.133  0.00  0.00    +0.000 OA
ATOM     17  O   UNL     1     113.235 130.219 136.322  0.00  0.00    +0.000 OA
ATOM     18  C   UNL     1     111.565 128.814 136.241  0.00  0.00    +0.000 C 
ATOM     19  C   UNL     1     112.050 129.436 136.484  0.00  0.00    +0.000 C 
ATOM     20  C   UNL     1     111.781 128.352 135.593  0.00  0.00    +0.000 C 
ATOM     21  C   UNL     1     112.750 129.596 136.079  0.00  0.00    +0.000 C 
ATOM     22  C   UNL     1     112.966 129.134 135.431  0.00  0.00    +0.000 C 
BRANCH  22  24
ATOM     23  O   UNL     1     114.244 128.708 134.953  0.00  0.00    +0.000 OA
ATOM     24  C   UNL     1     113.666 129.294 135.025  0.00  0.00    +0.000 C 
ENDBRANCH  22  24
ENDBRANCH   5  20
BRANCH  12  26
ATOM     25  O   UNL     1     114.896 125.438 138.334  0.00  0.00    +0.000 OA
ATOM     26  C   UNL     1     112.955 125.874 136.861  0.00  0.00    +0.000 A 
ATOM     27  C   UNL     1     112.903 126.031 137.669  0.00  0.00    +0.000 A 
ATOM     28  C   UNL     1     113.654 125.572 136.544  0.00  0.00    +0.000 A 
ATOM     29  C   UNL     1     113.550 125.885 138.161  0.00  0.00    +0.000 A 
ATOM     30  C   UNL     1     114.301 125.427 137.035  0.00  0.00    +0.000 A 
ATOM     31  C   UNL     1     114.249 125.584 137.843  0.00  0.00    +0.000 A 
BRANCH  29  32
ATOM     32  O   UNL     1     113.498 126.042 138.969  0.00  0.00    +0.000 OA
ATOM     33  C   UNL     1     113.027 126.662 139.240  0.00  0.00    +0.000 C 
ENDBRANCH  29  32
ENDBRANCH  12  26
TORSDOF 4
ENDMDL
MODEL 3
REMARK VINA RESULT:      -9.5     10.817     13.099
REMARK  Name = 20055255
REMARK  4 active torsions:
REMARK  status: ('A' for Active; 'I' for Inactive)
REMARK    1  A    between atoms: O_10  and  C_30
REMARK    2  A    between atoms: C_14  and  C_17
REMARK    3  A    between atoms: C_16  and  C_18
REMARK    4  A    between atoms: C_25  and  C_27
REMARK                            x       y       z     vdW  Elec       q    Type
REMARK                         _______ _______ _______ _____ _____    ______ ____
ROOT
ATOM      1  O   UNL     1     112.637 126.548 136.588  0.00  0.00    +0.000 OA
ATOM      2  O   UNL     1     111.454 123.937 136.873  0.00  0.00    +0.000 OA
ATOM      3  O   UNL     1     114.300 124.186 136.769  0.00  0.00    +0.000 OA
ATOM      4  O   UNL     1     114.930 125.475 136.627  0.00  0.00    +0.000 OA
ATOM      5  C   UNL     1     112.053 125.226 136.732  0.00  0.00    +0.000 A 
ATOM      6  C   UNL     1     112.728 125.697 136.668  0.00  0.00    +0.000 A 
ATOM      7  C   UNL     1     112.129 124.408 136.809  0.00  0.00    +0.000 A 
ATOM      8  C   UNL     1     113.476 125.350 136.680  0.00  0.00    +0.000 A 
ATOM      9  C   UNL     1     112.877 124.062 136.821  0.00  0.00    +0.000 A 
ATOM     10  C   UNL     1     113.550 124.533 136.757  0.00  0.00    +0.000 A 
ATOM     11  C   UNL     1     114.186 125.831 136.613  0.00  0.00    +0.000 A 
ATOM     12  C   UNL     1     113.335 127.044 136.520  0.00  0.00    +0.000 A 
ATOM     13  C   UNL     1     114.115 126.683 136.533  0.00  0.00    +0.000 A 
ENDROOT
BRANCH   5  20
ATOM     14  O   UNL     1     110.947 125.756 136.000  0.00  0.00    +0.000 OA
ATOM     15  O   UNL     1     111.273 125.552 138.148  0.00  0.00    +0.000 OA
ATOM     16  O   UNL     1     109.776 126.246 138.123  0.00  0.00    +0.000 OA
ATOM     17  O   UNL     1     109.059 126.613 136.683  0.00  0.00    +0.000 OA
ATOM     18  C   UNL     1     110.915 125.736 137.427  0.00  0.00    +0.000 C 
ATOM     19  C   UNL     1     110.166 126.083 137.415  0.00  0.00    +0.000 C 
ATOM     20  C   UNL     1     111.306 125.572 136.720  0.00  0.00    +0.000 C 
ATOM     21  C   UNL     1     109.809 126.266 136.695  0.00  0.00    +0.000 C 
ATOM     22  C   UNL     1     110.199 126.103 135.987  0.00  0.00    +0.000 C 
BRANCH  22  24
ATOM     23  O   UNL     1     109.956 125.794 134.613  0.00  0.00    +0.000 OA
ATOM     24  C   UNL     1     109.842 126.286 135.267  0.00  0.00    +0.000 C 
ENDBRANCH  22  24
ENDBRANCH   5  20
BRANCH  12  26
ATOM     25  O   UNL     1     113.025 130.316 136.214  0.00  0.00    +0.000 OA
ATOM     26  C   UNL     1     113.258 127.862 136.444  0.00  0.00    +0.000 A 
ATOM     27  C   UNL     1     113.134 128.329 137.112  0.00  0.00    +0.000 A 
ATOM     28  C   UNL     1     113.304 128.213 135.699  0.00  0.00    +0.000 A 
ATOM     29  C   UNL     1     113.057 129.147 137.036  0.00  0.00    +0.000 A 
ATOM     30  C   UNL     1     113.226 129.031 135.622  0.00  0.00    +0.000 A 
ATOM     31  C   UNL     1     113.103 129.498 136.291  0.00  0.00    +0.000 A 
BRANCH  29  32
ATOM     32  O   UNL     1     112.933 129.615 137.705  0.00  0.00    +0.000 OA
ATOM     33  C   UNL     1     112.406 129.367 138.289  0.00  0.00    +0.000 C 
ENDBRANCH  29  32
ENDBRANCH  12  26
TORSDOF 4
ENDMDL
MODEL 4
REMARK VINA RESULT:      -9.5     11.207     13.456
REMARK  Name = 20055255
REMARK  4 active torsions:
REMARK  status: ('A' for Active; 'I' for Inactive)
REMARK    1  A    between atoms: O_10  and  C_30
REMARK    2  A    between atoms: C_14  and  C_17
REMARK    3  A    between atoms: C_16  and  C_18
REMARK    4  A    between atoms: C_25  and  C_27
REMARK                            x       y       z     vdW  Elec       q    Type
REMARK                         _______ _______ _______ _____ _____    ______ ____
ROOT
ATOM      1  O   UNL     1     112.269 127.065 136.229  0.00  0.00    +0.000 OA
ATOM      2  O   UNL     1     111.762 124.301 136.862  0.00  0.00    +0.000 OA
ATOM      3  O   UNL     1     110.100 125.633 134.956  0.00  0.00    +0.000 OA
ATOM      4  O   UNL     1     110.321 127.016 134.612  0.00  0.00    +0.000 OA
ATOM      5  C   UNL     1     112.003 125.672 136.539  0.00  0.00    +0.000 A 
ATOM      6  C   UNL     1     111.806 126.350 136.114  0.00  0.00    +0.000 A 
ATOM      7  C   UNL     1     111.565 124.980 136.437  0.00  0.00    +0.000 A 
ATOM      8  C   UNL     1     111.172 126.338 135.586  0.00  0.00    +0.000 A 
ATOM      9  C   UNL     1     110.931 124.967 135.909  0.00  0.00    +0.000 A 
ATOM     10  C   UNL     1     110.735 125.646 135.484  0.00  0.00    +0.000 A 
ATOM     11  C   UNL     1     110.957 127.039 135.138  0.00  0.00    +0.000 A 
ATOM     12  C   UNL     1     112.069 127.775 135.789  0.00  0.00    +0.000 A 
ATOM     13  C   UNL     1     111.409 127.762 135.240  0.00  0.00    +0.000 A 
ENDROOT
BRANCH   5  20
ATOM     14  O   UNL     1     112.535 125.987 137.827  0.00  0.00    +0.000 OA
ATOM     15  O   UNL     1     113.475 125.093 136.072  0.00  0.00    +0.000 OA
ATOM     16  O   UNL     1     114.744 125.119 137.127  0.00  0.00    +0.000 OA
ATOM     17  O   UNL     1     114.540 125.723 138.650  0.00  0.00    +0.000 OA
ATOM     18  C   UNL     1     113.373 125.395 136.834  0.00  0.00    +0.000 C 
ATOM     19  C   UNL     1     114.007 125.408 137.361  0.00  0.00    +0.000 C 
ATOM     20  C   UNL     1     112.636 125.685 137.066  0.00  0.00    +0.000 C 
ATOM     21  C   UNL     1     113.905 125.710 138.121  0.00  0.00    +0.000 C 
ATOM     22  C   UNL     1     113.169 125.999 138.355  0.00  0.00    +0.000 C 
BRANCH  22  24
ATOM     23  O   UNL     1     112.358 126.169 139.520  0.00  0.00    +0.000 OA
ATOM     24  C   UNL     1     113.066 126.302 139.116  0.00  0.00    +0.000 C 
ENDBRANCH  22  24
ENDBRANCH   5  20
BRANCH  12  26
ATOM     25  O   UNL     1     113.825 130.538 136.207  0.00  0.00    +0.000 OA
ATOM     26  C   UNL     1     112.508 128.466 135.894  0.00  0.00    +0.000 A 
ATOM     27  C   UNL     1     112.301 129.001 136.487  0.00  0.00    +0.000 A 
ATOM     28  C   UNL     1     113.154 128.622 135.405  0.00  0.00    +0.000 A 
ATOM     29  C   UNL     1     112.740 129.692 136.592  0.00  0.00    +0.000 A 
ATOM     30  C   UNL     1     113.593 129.313 135.510  0.00  0.00    +0.000 A 
ATOM     31  C   UNL     1     113.386 129.848 136.103  0.00  0.00    +0.000 A 
BRANCH  29  32
ATOM     32  O   UNL     1     112.533 130.227 137.185  0.00  0.00    +0.000 OA
ATOM     33  C   UNL     1     112.324 129.951 137.934  0.00  0.00    +0.000 C 
ENDBRANCH  29  32
ENDBRANCH  12  26
TORSDOF 4
ENDMDL
MODEL 5
REMARK VINA RESULT:      -9.5     11.144     12.957
REMARK  Name = 20055255
REMARK  4 active torsions:
REMARK  status: ('A' for Active; 'I' for Inactive)
REMARK    1  A    between atoms: O_10  and  C_30
REMARK    2  A    between atoms: C_14  and  C_17
REMARK    3  A    between atoms: C_16  and  C_18
REMARK    4  A    between atoms: C_25  and  C_27
REMARK                            x       y       z     vdW  Elec       q    Type
REMARK                         _______ _______ _______ _____ _____    ______ ____
ROOT
ATOM      1  O   UNL     1     110.521 127.764 135.992  0.00  0.00    +0.000 OA
ATOM      2  O   UNL     1     110.667 130.640 135.923  0.00  0.00    +0.000 OA
ATOM      3  O   UNL     1     108.119 129.357 135.736  0.00  0.00    +0.000 OA
ATOM      4  O   UNL     1     108.004 127.920 135.767  0.00  0.00    +0.000 OA
ATOM      5  C   UNL     1     110.581 129.214 135.956  0.00  0.00    +0.000 A 
ATOM      6  C   UNL     1     110.127 128.525 135.936  0.00  0.00    +0.000 A 
ATOM      7  C   UNL     1     110.213 129.951 135.903  0.00  0.00    +0.000 A 
ATOM      8  C   UNL     1     109.307 128.573 135.862  0.00  0.00    +0.000 A 
ATOM      9  C   UNL     1     109.393 129.998 135.830  0.00  0.00    +0.000 A 
ATOM     10  C   UNL     1     108.940 129.310 135.809  0.00  0.00    +0.000 A 
ATOM     11  C   UNL     1     108.824 127.862 135.840  0.00  0.00    +0.000 A 
ATOM     12  C   UNL     1     110.055 127.043 135.971  0.00  0.00    +0.000 A 
ATOM     13  C   UNL     1     109.201 127.092 135.895  0.00  0.00    +0.000 A 
ENDROOT
BRANCH   5  20
ATOM     14  O   UNL     1     111.744 129.079 136.774  0.00  0.00    +0.000 OA
ATOM     15  O   UNL     1     111.534 129.294 134.612  0.00  0.00    +0.000 OA
ATOM     16  O   UNL     1     113.175 129.199 134.758  0.00  0.00    +0.000 OA
ATOM     17  O   UNL     1     113.862 129.023 136.249  0.00  0.00    +0.000 OA
ATOM     18  C   UNL     1     111.878 129.206 135.358  0.00  0.00    +0.000 C 
ATOM     19  C   UNL     1     112.698 129.159 135.431  0.00  0.00    +0.000 C 
ATOM     20  C   UNL     1     111.400 129.167 136.029  0.00  0.00    +0.000 C 
ATOM     21  C   UNL     1     113.041 129.071 136.175  0.00  0.00    +0.000 C 
ATOM     22  C   UNL     1     112.564 129.031 136.847  0.00  0.00    +0.000 C 
BRANCH  22  24
ATOM     23  O   UNL     1     112.454 129.068 138.272  0.00  0.00    +0.000 OA
ATOM     24  C   UNL     1     112.907 128.944 137.592  0.00  0.00    +0.000 C 
ENDBRANCH  22  24
ENDBRANCH   5  20
BRANCH  12  26
ATOM     25  O   UNL     1     111.535 124.100 136.184  0.00  0.00    +0.000 OA
ATOM     26  C   UNL     1     110.425 126.307 136.024  0.00  0.00    +0.000 A 
ATOM     27  C   UNL     1     110.622 125.997 136.763  0.00  0.00    +0.000 A 
ATOM     28  C   UNL     1     110.597 125.881 135.339  0.00  0.00    +0.000 A 
ATOM     29  C   UNL     1     110.993 125.261 136.817  0.00  0.00    +0.000 A 
ATOM     30  C   UNL     1     110.967 125.146 135.393  0.00  0.00    +0.000 A 
ATOM     31  C   UNL     1     111.165 124.836 136.131  0.00  0.00    +0.000 A 
BRANCH  29  32
ATOM     32  O   UNL     1     111.190 124.951 137.555  0.00  0.00    +0.000 OA
ATOM     33  C   UNL     1     111.397 125.458 138.173  0.00  0.00    +0.000 C 
ENDBRANCH  29  32
ENDBRANCH  12  26
TORSDOF 4
ENDMDL
MODEL 6
REMARK VINA RESULT:      -9.4     10.661     12.589
REMARK  Name = 20055255
REMARK  4 active torsions:
REMARK  status: ('A' for Active; 'I' for Inactive)
REMARK    1  A    between atoms: O_10  and  C_30
REMARK    2  A    between atoms: C_14  and  C_17
REMARK    3  A    between atoms: C_16  and  C_18
REMARK    4  A    between atoms: C_25  and  C_27
REMARK                            x       y       z     vdW  Elec       q    Type
REMARK                         _______ _______ _______ _____ _____    ______ ____
ROOT
ATOM      1  O   UNL     1     111.947 125.916 136.601  0.00  0.00    +0.000 OA
ATOM      2  O   UNL     1     114.654 125.864 137.584  0.00  0.00    +0.000 OA
ATOM      3  O   UNL     1     113.363 123.409 136.894  0.00  0.00    +0.000 OA
ATOM      4  O   UNL     1     112.008 123.393 136.399  0.00  0.00    +0.000 OA
ATOM      5  C   UNL     1     113.312 125.876 137.095  0.00  0.00    +0.000 A 
ATOM      6  C   UNL     1     112.649 125.470 136.818  0.00  0.00    +0.000 A 
ATOM      7  C   UNL     1     113.991 125.458 137.306  0.00  0.00    +0.000 A 
ATOM      8  C   UNL     1     112.666 124.648 136.751  0.00  0.00    +0.000 A 
ATOM      9  C   UNL     1     114.008 124.636 137.239  0.00  0.00    +0.000 A 
ATOM     10  C   UNL     1     113.346 124.232 136.961  0.00  0.00    +0.000 A 
ATOM     11  C   UNL     1     111.982 124.215 136.463  0.00  0.00    +0.000 A 
ATOM     12  C   UNL     1     111.253 125.500 136.312  0.00  0.00    +0.000 A 
ATOM     13  C   UNL     1     111.271 124.644 136.242  0.00  0.00    +0.000 A 
ENDROOT
BRANCH   5  20
ATOM     14  O   UNL     1     113.441 127.168 136.501  0.00  0.00    +0.000 OA
ATOM     15  O   UNL     1     112.984 126.577 138.552  0.00  0.00    +0.000 OA
ATOM     16  O   UNL     1     112.950 128.222 138.686  0.00  0.00    +0.000 OA
ATOM     17  O   UNL     1     113.244 129.164 137.363  0.00  0.00    +0.000 OA
ATOM     18  C   UNL     1     113.131 127.049 137.890  0.00  0.00    +0.000 C 
ATOM     19  C   UNL     1     113.114 127.871 137.957  0.00  0.00    +0.000 C 
ATOM     20  C   UNL     1     113.295 126.697 137.162  0.00  0.00    +0.000 C 
ATOM     21  C   UNL     1     113.261 128.341 137.296  0.00  0.00    +0.000 C 
ATOM     22  C   UNL     1     113.424 127.990 136.568  0.00  0.00    +0.000 C 
BRANCH  22  24
ATOM     23  O   UNL     1     114.253 128.339 135.457  0.00  0.00    +0.000 OA
ATOM     24  C   UNL     1     113.571 128.461 135.906  0.00  0.00    +0.000 C 
ENDBRANCH  22  24
ENDBRANCH   5  20
BRANCH  12  26
ATOM     25  O   UNL     1     108.538 127.178 135.472  0.00  0.00    +0.000 OA
ATOM     26  C   UNL     1     110.575 125.919 136.102  0.00  0.00    +0.000 A 
ATOM     27  C   UNL     1     110.089 126.238 136.687  0.00  0.00    +0.000 A 
ATOM     28  C   UNL     1     110.381 126.020 135.306  0.00  0.00    +0.000 A 
ATOM     29  C   UNL     1     109.410 126.658 136.478  0.00  0.00    +0.000 A 
ATOM     30  C   UNL     1     109.702 126.440 135.096  0.00  0.00    +0.000 A 
ATOM     31  C   UNL     1     109.217 126.759 135.682  0.00  0.00    +0.000 A 
BRANCH  29  32
ATOM     32  O   UNL     1     108.924 126.977 137.064  0.00  0.00    +0.000 OA
ATOM     33  C   UNL     1     109.252 127.238 137.775  0.00  0.00    +0.000 C 
ENDBRANCH  29  32
ENDBRANCH  12  26
TORSDOF 4
ENDMDL
MODEL 7
REMARK VINA RESULT:      -9.2      9.187     11.809
REMARK  Name = 20055255
REMARK  4 active torsions:
REMARK  status: ('A' for Active; 'I' for Inactive)
REMARK    1  A    between atoms: O_10  and  C_30
REMARK    2  A    between atoms: C_14  and  C_17
REMARK    3  A    between atoms: C_16  and  C_18
REMARK    4  A    between atoms: C_25  and  C_27
REMARK                            x       y       z     vdW  Elec       q    Type
REMARK                         _______ _______ _______ _____ _____    ______ ____
ROOT
ATOM      1  O   UNL     1     112.645 126.208 138.461  0.00  0.00    +0.000 OA
ATOM      2  O   UNL     1     111.053 124.645 136.638  0.00  0.00    +0.000 OA
ATOM      3  O   UNL     1     113.882 124.245 136.730  0.00  0.00    +0.000 OA
ATOM      4  O   UNL     1     114.713 125.008 137.629  0.00  0.00    +0.000 OA
ATOM      5  C   UNL     1     111.854 125.414 137.537  0.00  0.00    +0.000 A 
ATOM      6  C   UNL     1     112.592 125.603 137.852  0.00  0.00    +0.000 A 
ATOM      7  C   UNL     1     111.792 124.835 136.953  0.00  0.00    +0.000 A 
ATOM      8  C   UNL     1     113.268 125.214 137.583  0.00  0.00    +0.000 A 
ATOM      9  C   UNL     1     112.468 124.445 136.684  0.00  0.00    +0.000 A 
ATOM     10  C   UNL     1     113.205 124.635 137.000  0.00  0.00    +0.000 A 
ATOM     11  C   UNL     1     114.043 125.403 137.904  0.00  0.00    +0.000 A 
ATOM     12  C   UNL     1     113.411 126.410 138.793  0.00  0.00    +0.000 A 
ATOM     13  C   UNL     1     114.114 126.005 138.513  0.00  0.00    +0.000 A 
ENDROOT
BRANCH   5  20
ATOM     14  O   UNL     1     110.811 125.558 138.502  0.00  0.00    +0.000 OA
ATOM     15  O   UNL     1     111.238 126.682 136.682  0.00  0.00    +0.000 OA
ATOM     16  O   UNL     1     109.887 127.461 137.219  0.00  0.00    +0.000 OA
ATOM     17  O   UNL     1     109.150 126.971 138.613  0.00  0.00    +0.000 OA
ATOM     18  C   UNL     1     110.870 126.437 137.379  0.00  0.00    +0.000 C 
ATOM     19  C   UNL     1     110.194 126.826 137.648  0.00  0.00    +0.000 C 
ATOM     20  C   UNL     1     111.179 125.802 137.806  0.00  0.00    +0.000 C 
ATOM     21  C   UNL     1     109.827 126.581 138.344  0.00  0.00    +0.000 C 
ATOM     22  C   UNL     1     110.135 125.947 138.771  0.00  0.00    +0.000 C 
BRANCH  22  24
ATOM     23  O   UNL     1     110.198 125.283 140.036  0.00  0.00    +0.000 OA
ATOM     24  C   UNL     1     109.767 125.701 139.468  0.00  0.00    +0.000 C 
ENDBRANCH  22  24
ENDBRANCH   5  20
BRANCH  12  26
ATOM     25  O   UNL     1     113.649 128.729 141.129  0.00  0.00    +0.000 OA
ATOM     26  C   UNL     1     113.470 126.989 139.377  0.00  0.00    +0.000 A 
ATOM     27  C   UNL     1     113.446 127.788 139.170  0.00  0.00    +0.000 A 
ATOM     28  C   UNL     1     113.554 126.772 140.168  0.00  0.00    +0.000 A 
ATOM     29  C   UNL     1     113.506 128.368 139.754  0.00  0.00    +0.000 A 
ATOM     30  C   UNL     1     113.613 127.351 140.752  0.00  0.00    +0.000 A 
ATOM     31  C   UNL     1     113.589 128.149 140.545  0.00  0.00    +0.000 A 
BRANCH  29  32
ATOM     32  O   UNL     1     113.482 129.166 139.547  0.00  0.00    +0.000 OA
ATOM     33  C   UNL     1     113.023 129.413 138.907  0.00  0.00    +0.000 C 
ENDBRANCH  29  32
ENDBRANCH  12  26
TORSDOF 4
ENDMDL
MODEL 8
REMARK VINA RESULT:      -9.0     11.360     12.602
REMARK  Name = 20055255
REMARK  4 active torsions:
REMARK  status: ('A' for Active; 'I' for Inactive)
REMARK    1  A    between atoms: O_10  and  C_30
REMARK    2  A    between atoms: C_14  and  C_17
REMARK    3  A    between atoms: C_16  and  C_18
REMARK    4  A    between atoms: C_25  and  C_27
REMARK                            x       y       z     vdW  Elec       q    Type
REMARK                         _______ _______ _______ _____ _____    ______ ____
ROOT
ATOM      1  O   UNL     1     113.202 127.285 138.058  0.00  0.00    +0.000 OA
ATOM      2  O   UNL     1     112.854 130.128 138.370  0.00  0.00    +0.000 OA
ATOM      3  O   UNL     1     113.518 128.535 140.649  0.00  0.00    +0.000 OA
ATOM      4  O   UNL     1     113.701 127.109 140.534  0.00  0.00    +0.000 OA
ATOM      5  C   UNL     1     113.029 128.716 138.229  0.00  0.00    +0.000 A 
ATOM      6  C   UNL     1     113.198 127.981 138.562  0.00  0.00    +0.000 A 
ATOM      7  C   UNL     1     113.023 129.391 138.703  0.00  0.00    +0.000 A 
ATOM      8  C   UNL     1     113.361 127.921 139.368  0.00  0.00    +0.000 A 
ATOM      9  C   UNL     1     113.186 129.331 139.510  0.00  0.00    +0.000 A 
ATOM     10  C   UNL     1     113.355 128.595 139.842  0.00  0.00    +0.000 A 
ATOM     11  C   UNL     1     113.539 127.159 139.726  0.00  0.00    +0.000 A 
ATOM     12  C   UNL     1     113.377 126.516 138.398  0.00  0.00    +0.000 A 
ATOM     13  C   UNL     1     113.547 126.453 139.238  0.00  0.00    +0.000 A 
ENDROOT
BRANCH   5  20
ATOM     14  O   UNL     1     113.484 128.813 136.878  0.00  0.00    +0.000 OA
ATOM     15  O   UNL     1     111.465 128.765 137.706  0.00  0.00    +0.000 OA
ATOM     16  O   UNL     1     111.139 128.886 136.093  0.00  0.00    +0.000 OA
ATOM     17  O   UNL     1     112.377 128.958 135.003  0.00  0.00    +0.000 OA
ATOM     18  C   UNL     1     112.085 128.801 137.161  0.00  0.00    +0.000 C 
ATOM     19  C   UNL     1     111.922 128.862 136.354  0.00  0.00    +0.000 C 
ATOM     20  C   UNL     1     112.866 128.777 137.423  0.00  0.00    +0.000 C 
ATOM     21  C   UNL     1     112.540 128.898 135.810  0.00  0.00    +0.000 C 
ATOM     22  C   UNL     1     113.321 128.873 136.072  0.00  0.00    +0.000 C 
BRANCH  22  24
ATOM     23  O   UNL     1     114.644 129.293 135.729  0.00  0.00    +0.000 OA
ATOM     24  C   UNL     1     113.941 128.909 135.528  0.00  0.00    +0.000 C 
ENDBRANCH  22  24
ENDBRANCH   5  20
BRANCH  12  26
ATOM     25  O   UNL     1     113.398 123.821 136.493  0.00  0.00    +0.000 OA
ATOM     26  C   UNL     1     113.383 125.842 137.922  0.00  0.00    +0.000 A 
ATOM     27  C   UNL     1     112.673 125.467 137.730  0.00  0.00    +0.000 A 
ATOM     28  C   UNL     1     114.097 125.543 137.638  0.00  0.00    +0.000 A 
ATOM     29  C   UNL     1     112.678 124.793 137.254  0.00  0.00    +0.000 A 
ATOM     30  C   UNL     1     114.102 124.869 137.162  0.00  0.00    +0.000 A 
ATOM     31  C   UNL     1     113.393 124.494 136.970  0.00  0.00    +0.000 A 
BRANCH  29  32
ATOM     32  O   UNL     1     111.969 124.418 137.061  0.00  0.00    +0.000 OA
ATOM     33  C   UNL     1     111.309 124.866 136.852  0.00  0.00    +0.000 C 
ENDBRANCH  29  32
ENDBRANCH  12  26
TORSDOF 4
ENDMDL
MODEL 9
REMARK VINA RESULT:      -8.9     10.060     12.611
REMARK  Name = 20055255
REMARK  4 active torsions:
REMARK  status: ('A' for Active; 'I' for Inactive)
REMARK    1  A    between atoms: O_10  and  C_30
REMARK    2  A    between atoms: C_14  and  C_17
REMARK    3  A    between atoms: C_16  and  C_18
REMARK    4  A    between atoms: C_25  and  C_27
REMARK                            x       y       z     vdW  Elec       q    Type
REMARK                         _______ _______ _______ _____ _____    ______ ____
ROOT
ATOM      1  O   UNL     1     113.143 127.397 137.701  0.00  0.00    +0.000 OA
ATOM      2  O   UNL     1     112.733 129.634 139.470  0.00  0.00    +0.000 OA
ATOM      3  O   UNL     1     113.413 130.112 136.734  0.00  0.00    +0.000 OA
ATOM      4  O   UNL     1     113.627 129.019 135.818  0.00  0.00    +0.000 OA
ATOM      5  C   UNL     1     112.939 128.533 138.582  0.00  0.00    +0.000 A 
ATOM      6  C   UNL     1     113.121 128.246 137.830  0.00  0.00    +0.000 A 
ATOM      7  C   UNL     1     112.915 129.346 138.717  0.00  0.00    +0.000 A 
ATOM      8  C   UNL     1     113.279 128.772 137.215  0.00  0.00    +0.000 A 
ATOM      9  C   UNL     1     113.073 129.872 138.102  0.00  0.00    +0.000 A 
ATOM     10  C   UNL     1     113.255 129.585 137.351  0.00  0.00    +0.000 A 
ATOM     11  C   UNL     1     113.470 128.485 136.427  0.00  0.00    +0.000 A 
ATOM     12  C   UNL     1     113.332 127.092 136.921  0.00  0.00    +0.000 A 
ATOM     13  C   UNL     1     113.497 127.639 136.280  0.00  0.00    +0.000 A 
ENDROOT
BRANCH   5  20
ATOM     14  O   UNL     1     113.402 127.680 139.629  0.00  0.00    +0.000 OA
ATOM     15  O   UNL     1     111.380 128.137 138.948  0.00  0.00    +0.000 OA
ATOM     16  O   UNL     1     111.064 127.085 140.179  0.00  0.00    +0.000 OA
ATOM     17  O   UNL     1     112.307 126.429 141.044  0.00  0.00    +0.000 OA
ATOM     18  C   UNL     1     112.002 127.809 139.381  0.00  0.00    +0.000 C 
ATOM     19  C   UNL     1     111.844 127.283 139.996  0.00  0.00    +0.000 C 
ATOM     20  C   UNL     1     112.781 128.008 139.197  0.00  0.00    +0.000 C 
ATOM     21  C   UNL     1     112.465 126.956 140.428  0.00  0.00    +0.000 C 
ATOM     22  C   UNL     1     113.244 127.154 140.245  0.00  0.00    +0.000 C 
BRANCH  22  24
ATOM     23  O   UNL     1     114.572 127.245 140.765  0.00  0.00    +0.000 OA
ATOM     24  C   UNL     1     113.866 126.826 140.677  0.00  0.00    +0.000 C 
ENDBRANCH  22  24
ENDBRANCH   5  20
BRANCH  12  26
ATOM     25  O   UNL     1     113.425 123.836 136.388  0.00  0.00    +0.000 OA
ATOM     26  C   UNL     1     113.356 126.278 136.787  0.00  0.00    +0.000 A 
ATOM     27  C   UNL     1     112.667 125.874 136.578  0.00  0.00    +0.000 A 
ATOM     28  C   UNL     1     114.067 125.867 136.863  0.00  0.00    +0.000 A 
ATOM     29  C   UNL     1     112.690 125.060 136.445  0.00  0.00    +0.000 A 
ATOM     30  C   UNL     1     114.090 125.053 136.730  0.00  0.00    +0.000 A 
ATOM     31  C   UNL     1     113.402 124.650 136.521  0.00  0.00    +0.000 A 
BRANCH  29  32
ATOM     32  O   UNL     1     112.001 124.656 136.235  0.00  0.00    +0.000 OA
ATOM     33  C   UNL     1     111.265 124.956 136.455  0.00  0.00    +0.000 C 
ENDBRANCH  29  32
ENDBRANCH  12  26
TORSDOF 4
ENDMDL
