MODEL 1
REMARK VINA RESULT:     -10.4      0.000      0.000
REMARK  Name = 14238620
REMARK  6 active torsions:
REMARK  status: ('A' for Active; 'I' for Inactive)
REMARK    1  A    between atoms: O_1  and  C_16
REMARK    2  A    between atoms: O_1  and  C_19
REMARK    3  A    between atoms: O_4  and  C_21
REMARK    4  A    between atoms: O_4  and  C_28
REMARK    5  A    between atoms: O_14  and  C_40
REMARK    6  A    between atoms: C_29  and  C_32
REMARK                            x       y       z     vdW  Elec       q    Type
REMARK                         _______ _______ _______ _____ _____    ______ ____
ROOT
ATOM      1  O   UNL     1     113.277 126.284 139.062  0.00  0.00    +0.000 OA
ATOM      2  O   UNL     1     112.364 128.490 138.412  0.00  0.00    +0.000 OA
ATOM      3  O   UNL     1     113.033 129.125 139.521  0.00  0.00    +0.000 OA
ATOM      4  O   UNL     1     114.657 127.498 141.320  0.00  0.00    +0.000 OA
ATOM      5  C   UNL     1     112.483 127.084 138.184  0.00  0.00    +0.000 A 
ATOM      6  C   UNL     1     112.787 126.349 138.401  0.00  0.00    +0.000 A 
ATOM      7  C   UNL     1     112.668 127.755 138.628  0.00  0.00    +0.000 A 
ATOM      8  C   UNL     1     113.157 127.689 139.290  0.00  0.00    +0.000 A 
ATOM      9  C   UNL     1     113.462 126.953 139.507  0.00  0.00    +0.000 A 
ATOM     10  C   UNL     1     113.342 128.394 139.745  0.00  0.00    +0.000 A 
ATOM     11  C   UNL     1     113.972 126.872 140.193  0.00  0.00    +0.000 A 
ATOM     12  C   UNL     1     113.851 128.332 140.434  0.00  0.00    +0.000 A 
ATOM     13  C   UNL     1     114.168 127.566 140.660  0.00  0.00    +0.000 A 
ENDROOT
BRANCH   6  15
ATOM     14  O   UNL     1     112.048 123.667 136.626  0.00  0.00    +0.000 OA
ATOM     15  C   UNL     1     112.603 125.678 137.957  0.00  0.00    +0.000 A 
ATOM     16  C   UNL     1     113.131 125.402 137.387  0.00  0.00    +0.000 A 
ATOM     17  C   UNL     1     111.890 125.284 138.083  0.00  0.00    +0.000 A 
ATOM     18  C   UNL     1     112.946 124.732 136.943  0.00  0.00    +0.000 A 
ATOM     19  C   UNL     1     111.704 124.613 137.640  0.00  0.00    +0.000 A 
ATOM     20  C   UNL     1     112.233 124.337 137.069  0.00  0.00    +0.000 A 
BRANCH  18  21
ATOM     21  O   UNL     1     113.474 124.456 136.373  0.00  0.00    +0.000 OA
ATOM     22  C   UNL     1     114.284 124.581 136.466  0.00  0.00    +0.000 C 
ENDBRANCH  18  21
ENDBRANCH   6  15
BRANCH   5  23
ATOM     23  O   UNL     1     111.994 127.149 137.523  0.00  0.00    +0.000 OA
BRANCH  23  30
ATOM     24  O   UNL     1     112.977 127.752 136.679  0.00  0.00    +0.000 OA
ATOM     25  O   UNL     1     111.208 129.071 135.559  0.00  0.00    +0.000 OA
ATOM     26  O   UNL     1     112.781 129.233 135.088  0.00  0.00    +0.000 OA
ATOM     27  C   UNL     1     111.601 128.111 136.541  0.00  0.00    +0.000 C 
ATOM     28  C   UNL     1     111.798 128.631 135.932  0.00  0.00    +0.000 C 
ATOM     29  C   UNL     1     112.584 128.712 135.697  0.00  0.00    +0.000 C 
ATOM     30  C   UNL     1     112.191 127.671 136.914  0.00  0.00    +0.000 C 
ATOM     31  C   UNL     1     113.173 128.273 136.070  0.00  0.00    +0.000 C 
ATOM     32  C   UNL     1     113.961 128.354 135.835  0.00  0.00    +0.000 C 
BRANCH  27  33
ATOM     33  O   UNL     1     110.815 128.029 136.777  0.00  0.00    +0.000 OA
BRANCH  33  38
ATOM     34  O   UNL     1     110.582 127.125 135.694  0.00  0.00    +0.000 OA
ATOM     35  O   UNL     1     109.212 127.974 137.168  0.00  0.00    +0.000 OA
ATOM     36  O   UNL     1     108.179 127.043 136.281  0.00  0.00    +0.000 OA
ATOM     37  O   UNL     1     108.747 126.167 135.003  0.00  0.00    +0.000 OA
ATOM     38  C   UNL     1     110.298 127.564 136.333  0.00  0.00    +0.000 C 
ATOM     39  C   UNL     1     109.497 127.536 136.528  0.00  0.00    +0.000 C 
ATOM     40  C   UNL     1     108.980 127.070 136.085  0.00  0.00    +0.000 C 
ATOM     41  C   UNL     1     109.264 126.632 135.447  0.00  0.00    +0.000 C 
ATOM     42  C   UNL     1     110.065 126.659 135.251  0.00  0.00    +0.000 C 
ATOM     43  C   UNL     1     110.349 126.222 134.613  0.00  0.00    +0.000 C 
ENDBRANCH  33  38
ENDBRANCH  27  33
ENDBRANCH  23  30
ENDBRANCH   5  23
TORSDOF 6
ENDMDL
MODEL 2
REMARK VINA RESULT:     -10.2      1.602      4.906
REMARK  Name = 14238620
REMARK  6 active torsions:
REMARK  status: ('A' for Active; 'I' for Inactive)
REMARK    1  A    between atoms: O_1  and  C_16
REMARK    2  A    between atoms: O_1  and  C_19
REMARK    3  A    between atoms: O_4  and  C_21
REMARK    4  A    between atoms: O_4  and  C_28
REMARK    5  A    between atoms: O_14  and  C_40
REMARK    6  A    between atoms: C_29  and  C_32
REMARK                            x       y       z     vdW  Elec       q    Type
REMARK                         _______ _______ _______ _____ _____    ______ ____
ROOT
ATOM      1  O   UNL     1     110.898 129.942 135.589  0.00  0.00    +0.000 OA
ATOM      2  O   UNL     1     109.630 128.156 136.738  0.00  0.00    +0.000 OA
ATOM      3  O   UNL     1     108.382 128.827 136.466  0.00  0.00    +0.000 OA
ATOM      4  O   UNL     1     108.419 131.353 135.003  0.00  0.00    +0.000 OA
ATOM      5  C   UNL     1     110.875 128.707 136.305  0.00  0.00    +0.000 A 
ATOM      6  C   UNL     1     111.298 129.302 135.922  0.00  0.00    +0.000 A 
ATOM      7  C   UNL     1     110.052 128.751 136.355  0.00  0.00    +0.000 A 
ATOM      8  C   UNL     1     109.653 129.391 136.022  0.00  0.00    +0.000 A 
ATOM      9  C   UNL     1     110.076 129.988 135.639  0.00  0.00    +0.000 A 
ATOM     10  C   UNL     1     108.797 129.428 136.081  0.00  0.00    +0.000 A 
ATOM     11  C   UNL     1     109.672 130.660 135.288  0.00  0.00    +0.000 A 
ATOM     12  C   UNL     1     108.375 130.092 135.736  0.00  0.00    +0.000 A 
ATOM     13  C   UNL     1     108.815 130.712 135.337  0.00  0.00    +0.000 A 
ENDROOT
BRANCH   6  15
ATOM     14  O   UNL     1     114.587 129.124 135.717  0.00  0.00    +0.000 OA
ATOM     15  C   UNL     1     112.120 129.258 135.871  0.00  0.00    +0.000 A 
ATOM     16  C   UNL     1     112.587 129.504 136.505  0.00  0.00    +0.000 A 
ATOM     17  C   UNL     1     112.476 128.967 135.186  0.00  0.00    +0.000 A 
ATOM     18  C   UNL     1     113.409 129.460 136.454  0.00  0.00    +0.000 A 
ATOM     19  C   UNL     1     113.298 128.922 135.134  0.00  0.00    +0.000 A 
ATOM     20  C   UNL     1     113.765 129.169 135.769  0.00  0.00    +0.000 A 
BRANCH  18  21
ATOM     21  O   UNL     1     113.876 129.706 137.088  0.00  0.00    +0.000 OA
ATOM     22  C   UNL     1     113.671 130.384 137.511  0.00  0.00    +0.000 C 
ENDBRANCH  18  21
ENDBRANCH   6  15
BRANCH   5  23
ATOM     23  O   UNL     1     111.274 128.066 136.638  0.00  0.00    +0.000 OA
BRANCH  23  30
ATOM     24  O   UNL     1     110.897 127.131 135.625  0.00  0.00    +0.000 OA
ATOM     25  O   UNL     1     110.865 125.319 137.310  0.00  0.00    +0.000 OA
ATOM     26  O   UNL     1     110.498 124.988 135.735  0.00  0.00    +0.000 OA
ATOM     27  C   UNL     1     111.069 126.692 136.974  0.00  0.00    +0.000 C 
ATOM     28  C   UNL     1     110.875 125.923 136.748  0.00  0.00    +0.000 C 
ATOM     29  C   UNL     1     110.692 125.758 135.962  0.00  0.00    +0.000 C 
ATOM     30  C   UNL     1     111.080 127.296 136.412  0.00  0.00    +0.000 C 
ATOM     31  C   UNL     1     110.703 126.362 135.400  0.00  0.00    +0.000 C 
ATOM     32  C   UNL     1     110.520 126.196 134.612  0.00  0.00    +0.000 C 
BRANCH  27  33
ATOM     33  O   UNL     1     111.253 126.858 137.761  0.00  0.00    +0.000 OA
BRANCH  33  38
ATOM     34  O   UNL     1     112.572 126.345 137.561  0.00  0.00    +0.000 OA
ATOM     35  O   UNL     1     111.604 127.145 139.347  0.00  0.00    +0.000 OA
ATOM     36  O   UNL     1     113.099 126.776 139.941  0.00  0.00    +0.000 OA
ATOM     37  O   UNL     1     114.242 126.120 138.948  0.00  0.00    +0.000 OA
ATOM     38  C   UNL     1     112.000 126.673 138.058  0.00  0.00    +0.000 C 
ATOM     39  C   UNL     1     112.176 126.817 138.851  0.00  0.00    +0.000 C 
ATOM     40  C   UNL     1     112.924 126.632 139.147  0.00  0.00    +0.000 C 
ATOM     41  C   UNL     1     113.495 126.305 138.651  0.00  0.00    +0.000 C 
ATOM     42  C   UNL     1     113.319 126.161 137.858  0.00  0.00    +0.000 C 
ATOM     43  C   UNL     1     113.890 125.833 137.361  0.00  0.00    +0.000 C 
ENDBRANCH  33  38
ENDBRANCH  27  33
ENDBRANCH  23  30
ENDBRANCH   5  23
TORSDOF 6
ENDMDL
MODEL 3
REMARK VINA RESULT:     -10.1      0.941      2.994
REMARK  Name = 14238620
REMARK  6 active torsions:
REMARK  status: ('A' for Active; 'I' for Inactive)
REMARK    1  A    between atoms: O_1  and  C_16
REMARK    2  A    between atoms: O_1  and  C_19
REMARK    3  A    between atoms: O_4  and  C_21
REMARK    4  A    between atoms: O_4  and  C_28
REMARK    5  A    between atoms: O_14  and  C_40
REMARK    6  A    between atoms: C_29  and  C_32
REMARK                            x       y       z     vdW  Elec       q    Type
REMARK                         _______ _______ _______ _____ _____    ______ ____
ROOT
ATOM      1  O   UNL     1     113.298 128.776 138.427  0.00  0.00    +0.000 OA
ATOM      2  O   UNL     1     112.261 126.689 139.260  0.00  0.00    +0.000 OA
ATOM      3  O   UNL     1     112.833 126.893 140.569  0.00  0.00    +0.000 OA
ATOM      4  O   UNL     1     114.484 129.253 141.044  0.00  0.00    +0.000 OA
ATOM      5  C   UNL     1     112.491 127.619 138.200  0.00  0.00    +0.000 A 
ATOM      6  C   UNL     1     112.836 128.315 137.923  0.00  0.00    +0.000 A 
ATOM      7  C   UNL     1     112.607 127.384 138.982  0.00  0.00    +0.000 A 
ATOM      8  C   UNL     1     113.068 127.845 139.487  0.00  0.00    +0.000 A 
ATOM      9  C   UNL     1     113.414 128.541 139.210  0.00  0.00    +0.000 A 
ATOM     10  C   UNL     1     113.182 127.591 140.300  0.00  0.00    +0.000 A 
ATOM     11  C   UNL     1     113.897 129.030 139.726  0.00  0.00    +0.000 A 
ATOM     12  C   UNL     1     113.662 128.066 140.831  0.00  0.00    +0.000 A 
ATOM     13  C   UNL     1     114.022 128.791 140.541  0.00  0.00    +0.000 A 
ENDROOT
BRANCH   6  15
ATOM     14  O   UNL     1     112.376 129.255 134.793  0.00  0.00    +0.000 OA
ATOM     15  C   UNL     1     112.720 128.550 137.140  0.00  0.00    +0.000 A 
ATOM     16  C   UNL     1     112.040 128.965 136.930  0.00  0.00    +0.000 A 
ATOM     17  C   UNL     1     113.286 128.370 136.568  0.00  0.00    +0.000 A 
ATOM     18  C   UNL     1     111.924 129.201 136.148  0.00  0.00    +0.000 A 
ATOM     19  C   UNL     1     113.172 128.604 135.785  0.00  0.00    +0.000 A 
ATOM     20  C   UNL     1     112.490 129.020 135.575  0.00  0.00    +0.000 A 
BRANCH  18  21
ATOM     21  O   UNL     1     111.244 129.616 135.938  0.00  0.00    +0.000 OA
ATOM     22  C   UNL     1     110.925 130.174 136.455  0.00  0.00    +0.000 C 
ENDBRANCH  18  21
ENDBRANCH   6  15
BRANCH   5  23
ATOM     23  O   UNL     1     112.029 127.158 137.695  0.00  0.00    +0.000 OA
BRANCH  23  30
ATOM     24  O   UNL     1     113.012 126.141 137.493  0.00  0.00    +0.000 OA
ATOM     25  O   UNL     1     111.221 124.441 137.335  0.00  0.00    +0.000 OA
ATOM     26  O   UNL     1     112.801 123.991 137.185  0.00  0.00    +0.000 OA
ATOM     27  C   UNL     1     111.625 125.799 137.515  0.00  0.00    +0.000 C 
ATOM     28  C   UNL     1     111.818 125.008 137.387  0.00  0.00    +0.000 C 
ATOM     29  C   UNL     1     112.607 124.783 137.313  0.00  0.00    +0.000 C 
ATOM     30  C   UNL     1     112.222 126.366 137.568  0.00  0.00    +0.000 C 
ATOM     31  C   UNL     1     113.205 125.349 137.366  0.00  0.00    +0.000 C 
ATOM     32  C   UNL     1     113.995 125.124 137.291  0.00  0.00    +0.000 C 
BRANCH  27  33
ATOM     33  O   UNL     1     110.835 126.025 137.589  0.00  0.00    +0.000 OA
BRANCH  33  38
ATOM     34  O   UNL     1     110.683 125.981 136.169  0.00  0.00    +0.000 OA
ATOM     35  O   UNL     1     109.319 126.661 137.732  0.00  0.00    +0.000 OA
ATOM     36  O   UNL     1     108.409 126.936 136.383  0.00  0.00    +0.000 OA
ATOM     37  O   UNL     1     109.016 126.574 134.891  0.00  0.00    +0.000 OA
ATOM     38  C   UNL     1     110.380 126.162 136.915  0.00  0.00    +0.000 C 
ATOM     39  C   UNL     1     109.622 126.480 136.985  0.00  0.00    +0.000 C 
ATOM     40  C   UNL     1     109.167 126.617 136.311  0.00  0.00    +0.000 C 
ATOM     41  C   UNL     1     109.470 126.436 135.566  0.00  0.00    +0.000 C 
ATOM     42  C   UNL     1     110.228 126.118 135.494  0.00  0.00    +0.000 C 
ATOM     43  C   UNL     1     110.531 125.937 134.749  0.00  0.00    +0.000 C 
ENDBRANCH  33  38
ENDBRANCH  27  33
ENDBRANCH  23  30
ENDBRANCH   5  23
TORSDOF 6
ENDMDL
MODEL 4
REMARK VINA RESULT:     -10.0      2.285      4.281
REMARK  Name = 14238620
REMARK  6 active torsions:
REMARK  status: ('A' for Active; 'I' for Inactive)
REMARK    1  A    between atoms: O_1  and  C_16
REMARK    2  A    between atoms: O_1  and  C_19
REMARK    3  A    between atoms: O_4  and  C_21
REMARK    4  A    between atoms: O_4  and  C_28
REMARK    5  A    between atoms: O_14  and  C_40
REMARK    6  A    between atoms: C_29  and  C_32
REMARK                            x       y       z     vdW  Elec       q    Type
REMARK                         _______ _______ _______ _____ _____    ______ ____
ROOT
ATOM      1  O   UNL     1     113.685 126.201 138.605  0.00  0.00    +0.000 OA
ATOM      2  O   UNL     1     111.572 125.208 137.784  0.00  0.00    +0.000 OA
ATOM      3  O   UNL     1     112.293 124.370 136.857  0.00  0.00    +0.000 OA
ATOM      4  O   UNL     1     115.206 124.539 136.760  0.00  0.00    +0.000 OA
ATOM      5  C   UNL     1     112.260 126.114 138.649  0.00  0.00    +0.000 A 
ATOM      6  C   UNL     1     112.963 126.445 138.923  0.00  0.00    +0.000 A 
ATOM      7  C   UNL     1     112.276 125.539 138.058  0.00  0.00    +0.000 A 
ATOM      8  C   UNL     1     112.997 125.295 137.740  0.00  0.00    +0.000 A 
ATOM      9  C   UNL     1     113.702 125.626 138.014  0.00  0.00    +0.000 A 
ATOM     10  C   UNL     1     113.003 124.695 137.125  0.00  0.00    +0.000 A 
ATOM     11  C   UNL     1     114.459 125.380 137.691  0.00  0.00    +0.000 A 
ATOM     12  C   UNL     1     113.750 124.437 136.790  0.00  0.00    +0.000 A 
ATOM     13  C   UNL     1     114.483 124.781 137.075  0.00  0.00    +0.000 A 
ENDROOT
BRANCH   6  15
ATOM     14  O   UNL     1     112.899 128.744 141.290  0.00  0.00    +0.000 OA
ATOM     15  C   UNL     1     112.947 127.020 139.514  0.00  0.00    +0.000 A 
ATOM     16  C   UNL     1     112.972 127.820 139.314  0.00  0.00    +0.000 A 
ATOM     17  C   UNL     1     112.906 126.795 140.307  0.00  0.00    +0.000 A 
ATOM     18  C   UNL     1     112.956 128.395 139.905  0.00  0.00    +0.000 A 
ATOM     19  C   UNL     1     112.890 127.369 140.899  0.00  0.00    +0.000 A 
ATOM     20  C   UNL     1     112.915 128.170 140.698  0.00  0.00    +0.000 A 
BRANCH  18  21
ATOM     21  O   UNL     1     112.981 129.194 139.704  0.00  0.00    +0.000 OA
ATOM     22  C   UNL     1     113.449 129.447 139.074  0.00  0.00    +0.000 C 
ENDBRANCH  18  21
ENDBRANCH   6  15
BRANCH   5  23
ATOM     23  O   UNL     1     111.539 126.358 138.967  0.00  0.00    +0.000 OA
BRANCH  23  30
ATOM     24  O   UNL     1     111.137 127.119 137.826  0.00  0.00    +0.000 OA
ATOM     25  O   UNL     1     108.773 126.534 138.268  0.00  0.00    +0.000 OA
ATOM     26  O   UNL     1     109.159 127.490 136.979  0.00  0.00    +0.000 OA
ATOM     27  C   UNL     1     110.155 126.446 138.617  0.00  0.00    +0.000 C 
ATOM     28  C   UNL     1     109.561 126.729 138.120  0.00  0.00    +0.000 C 
ATOM     29  C   UNL     1     109.754 127.207 137.477  0.00  0.00    +0.000 C 
ATOM     30  C   UNL     1     110.943 126.641 138.469  0.00  0.00    +0.000 C 
ATOM     31  C   UNL     1     110.542 127.402 137.329  0.00  0.00    +0.000 C 
ATOM     32  C   UNL     1     110.735 127.880 136.685  0.00  0.00    +0.000 C 
BRANCH  27  33
ATOM     33  O   UNL     1     109.963 125.968 139.261  0.00  0.00    +0.000 OA
BRANCH  33  38
ATOM     34  O   UNL     1     109.617 127.126 140.026  0.00  0.00    +0.000 OA
ATOM     35  O   UNL     1     109.359 125.000 140.454  0.00  0.00    +0.000 OA
ATOM     36  O   UNL     1     108.712 125.673 141.814  0.00  0.00    +0.000 OA
ATOM     37  O   UNL     1     108.668 127.314 141.982  0.00  0.00    +0.000 OA
ATOM     38  C   UNL     1     109.639 126.305 139.942  0.00  0.00    +0.000 C 
ATOM     39  C   UNL     1     109.337 125.821 140.538  0.00  0.00    +0.000 C 
ATOM     40  C   UNL     1     109.014 126.158 141.218  0.00  0.00    +0.000 C 
ATOM     41  C   UNL     1     108.992 126.977 141.302  0.00  0.00    +0.000 C 
ATOM     42  C   UNL     1     109.293 127.462 140.706  0.00  0.00    +0.000 C 
ATOM     43  C   UNL     1     109.271 128.282 140.790  0.00  0.00    +0.000 C 
ENDBRANCH  33  38
ENDBRANCH  27  33
ENDBRANCH  23  30
ENDBRANCH   5  23
TORSDOF 6
ENDMDL
MODEL 5
REMARK VINA RESULT:     -10.0      1.526      3.983
REMARK  Name = 14238620
REMARK  6 active torsions:
REMARK  status: ('A' for Active; 'I' for Inactive)
REMARK    1  A    between atoms: O_1  and  C_16
REMARK    2  A    between atoms: O_1  and  C_19
REMARK    3  A    between atoms: O_4  and  C_21
REMARK    4  A    between atoms: O_4  and  C_28
REMARK    5  A    between atoms: O_14  and  C_40
REMARK    6  A    between atoms: C_29  and  C_32
REMARK                            x       y       z     vdW  Elec       q    Type
REMARK                         _______ _______ _______ _____ _____    ______ ____
ROOT
ATOM      1  O   UNL     1     112.492 125.316 138.102  0.00  0.00    +0.000 OA
ATOM      2  O   UNL     1     111.424 126.901 136.530  0.00  0.00    +0.000 OA
ATOM      3  O   UNL     1     111.070 125.824 135.639  0.00  0.00    +0.000 OA
ATOM      4  O   UNL     1     111.810 123.091 136.351  0.00  0.00    +0.000 OA
ATOM      5  C   UNL     1     112.128 126.651 137.749  0.00  0.00    +0.000 A 
ATOM      6  C   UNL     1     112.483 126.123 138.272  0.00  0.00    +0.000 A 
ATOM      7  C   UNL     1     111.780 126.373 137.054  0.00  0.00    +0.000 A 
ATOM      8  C   UNL     1     111.789 125.566 136.883  0.00  0.00    +0.000 A 
ATOM      9  C   UNL     1     112.145 125.037 137.407  0.00  0.00    +0.000 A 
ATOM     10  C   UNL     1     111.424 125.288 136.157  0.00  0.00    +0.000 A 
ATOM     11  C   UNL     1     112.160 124.194 137.241  0.00  0.00    +0.000 A 
ATOM     12  C   UNL     1     111.430 124.449 135.973  0.00  0.00    +0.000 A 
ATOM     13  C   UNL     1     111.800 123.899 136.519  0.00  0.00    +0.000 A 
ENDROOT
BRANCH   6  15
ATOM     14  O   UNL     1     113.876 127.234 141.050  0.00  0.00    +0.000 OA
ATOM     15  C   UNL     1     112.831 126.401 138.967  0.00  0.00    +0.000 A 
ATOM     16  C   UNL     1     112.364 126.558 139.629  0.00  0.00    +0.000 A 
ATOM     17  C   UNL     1     113.646 126.522 139.000  0.00  0.00    +0.000 A 
ATOM     18  C   UNL     1     112.712 126.835 140.323  0.00  0.00    +0.000 A 
ATOM     19  C   UNL     1     113.995 126.800 139.694  0.00  0.00    +0.000 A 
ATOM     20  C   UNL     1     113.527 126.956 140.356  0.00  0.00    +0.000 A 
BRANCH  18  21
ATOM     21  O   UNL     1     112.245 126.992 140.985  0.00  0.00    +0.000 OA
ATOM     22  C   UNL     1     111.515 126.618 141.072  0.00  0.00    +0.000 C 
ENDBRANCH  18  21
ENDBRANCH   6  15
BRANCH   5  23
ATOM     23  O   UNL     1     112.119 127.458 137.920  0.00  0.00    +0.000 OA
BRANCH  23  30
ATOM     24  O   UNL     1     113.102 127.812 136.945  0.00  0.00    +0.000 OA
ATOM     25  O   UNL     1     111.981 129.992 136.604  0.00  0.00    +0.000 OA
ATOM     26  O   UNL     1     113.338 129.619 135.743  0.00  0.00    +0.000 OA
ATOM     27  C   UNL     1     112.050 128.726 137.262  0.00  0.00    +0.000 C 
ATOM     28  C   UNL     1     112.355 129.265 136.718  0.00  0.00    +0.000 C 
ATOM     29  C   UNL     1     113.033 129.079 136.287  0.00  0.00    +0.000 C 
ATOM     30  C   UNL     1     112.424 127.999 137.375  0.00  0.00    +0.000 C 
ATOM     31  C   UNL     1     113.406 128.352 136.401  0.00  0.00    +0.000 C 
ATOM     32  C   UNL     1     114.085 128.165 135.970  0.00  0.00    +0.000 C 
BRANCH  27  33
ATOM     33  O   UNL     1     111.371 128.912 137.693  0.00  0.00    +0.000 OA
BRANCH  33  38
ATOM     34  O   UNL     1     112.160 129.689 138.597  0.00  0.00    +0.000 OA
ATOM     35  O   UNL     1     110.010 129.317 138.532  0.00  0.00    +0.000 OA
ATOM     36  O   UNL     1     110.117 130.296 139.855  0.00  0.00    +0.000 OA
ATOM     37  O   UNL     1     111.586 130.870 140.340  0.00  0.00    +0.000 OA
ATOM     38  C   UNL     1     111.425 129.401 138.354  0.00  0.00    +0.000 C 
ATOM     39  C   UNL     1     110.745 129.604 138.774  0.00  0.00    +0.000 C 
ATOM     40  C   UNL     1     110.798 130.094 139.436  0.00  0.00    +0.000 C 
ATOM     41  C   UNL     1     111.533 130.380 139.678  0.00  0.00    +0.000 C 
ATOM     42  C   UNL     1     112.214 130.178 139.259  0.00  0.00    +0.000 C 
ATOM     43  C   UNL     1     112.948 130.465 139.501  0.00  0.00    +0.000 C 
ENDBRANCH  33  38
ENDBRANCH  27  33
ENDBRANCH  23  30
ENDBRANCH   5  23
TORSDOF 6
ENDMDL
MODEL 6
REMARK VINA RESULT:     -10.0      1.794      4.533
REMARK  Name = 14238620
REMARK  6 active torsions:
REMARK  status: ('A' for Active; 'I' for Inactive)
REMARK    1  A    between atoms: O_1  and  C_16
REMARK    2  A    between atoms: O_1  and  C_19
REMARK    3  A    between atoms: O_4  and  C_21
REMARK    4  A    between atoms: O_4  and  C_28
REMARK    5  A    between atoms: O_14  and  C_40
REMARK    6  A    between atoms: C_29  and  C_32
REMARK                            x       y       z     vdW  Elec       q    Type
REMARK                         _______ _______ _______ _____ _____    ______ ____
ROOT
ATOM      1  O   UNL     1     112.120 129.332 136.439  0.00  0.00    +0.000 OA
ATOM      2  O   UNL     1     113.160 127.146 136.952  0.00  0.00    +0.000 OA
ATOM      3  O   UNL     1     114.288 127.452 136.105  0.00  0.00    +0.000 OA
ATOM      4  O   UNL     1     114.364 130.017 134.714  0.00  0.00    +0.000 OA
ATOM      5  C   UNL     1     112.087 128.075 137.117  0.00  0.00    +0.000 A 
ATOM      6  C   UNL     1     111.740 128.803 136.946  0.00  0.00    +0.000 A 
ATOM      7  C   UNL     1     112.813 127.874 136.781  0.00  0.00    +0.000 A 
ATOM      8  C   UNL     1     113.193 128.402 136.273  0.00  0.00    +0.000 A 
ATOM      9  C   UNL     1     112.846 129.132 136.102  0.00  0.00    +0.000 A 
ATOM     10  C   UNL     1     113.948 128.183 135.929  0.00  0.00    +0.000 A 
ATOM     11  C   UNL     1     113.231 129.690 135.575  0.00  0.00    +0.000 A 
ATOM     12  C   UNL     1     114.349 128.728 135.399  0.00  0.00    +0.000 A 
ATOM     13  C   UNL     1     113.987 129.487 135.222  0.00  0.00    +0.000 A 
ENDROOT
BRANCH   6  15
ATOM     14  O   UNL     1     108.837 129.608 138.293  0.00  0.00    +0.000 OA
ATOM     15  C   UNL     1     111.014 129.004 137.282  0.00  0.00    +0.000 A 
ATOM     16  C   UNL     1     110.316 128.882 136.861  0.00  0.00    +0.000 A 
ATOM     17  C   UNL     1     110.987 129.328 138.041  0.00  0.00    +0.000 A 
ATOM     18  C   UNL     1     109.590 129.083 137.197  0.00  0.00    +0.000 A 
ATOM     19  C   UNL     1     110.261 129.530 138.378  0.00  0.00    +0.000 A 
ATOM     20  C   UNL     1     109.562 129.407 137.956  0.00  0.00    +0.000 A 
BRANCH  18  21
ATOM     21  O   UNL     1     108.892 128.961 136.776  0.00  0.00    +0.000 OA
ATOM     22  C   UNL     1     108.868 129.110 135.965  0.00  0.00    +0.000 C 
ENDBRANCH  18  21
ENDBRANCH   6  15
BRANCH   5  23
ATOM     23  O   UNL     1     111.708 127.547 137.624  0.00  0.00    +0.000 OA
BRANCH  23  30
ATOM     24  O   UNL     1     111.290 126.643 136.599  0.00  0.00    +0.000 OA
ATOM     25  O   UNL     1     111.559 124.744 138.164  0.00  0.00    +0.000 OA
ATOM     26  O   UNL     1     111.052 124.473 136.617  0.00  0.00    +0.000 OA
ATOM     27  C   UNL     1     111.633 126.145 137.894  0.00  0.00    +0.000 C 
ATOM     28  C   UNL     1     111.470 125.377 137.642  0.00  0.00    +0.000 C 
ATOM     29  C   UNL     1     111.216 125.241 136.870  0.00  0.00    +0.000 C 
ATOM     30  C   UNL     1     111.544 126.778 137.373  0.00  0.00    +0.000 C 
ATOM     31  C   UNL     1     111.127 125.874 136.348  0.00  0.00    +0.000 C 
ATOM     32  C   UNL     1     110.873 125.739 135.574  0.00  0.00    +0.000 C 
BRANCH  27  33
ATOM     33  O   UNL     1     111.887 126.281 138.668  0.00  0.00    +0.000 OA
BRANCH  33  38
ATOM     34  O   UNL     1     110.534 126.214 139.126  0.00  0.00    +0.000 OA
ATOM     35  O   UNL     1     112.411 126.382 140.229  0.00  0.00    +0.000 OA
ATOM     36  O   UNL     1     111.321 126.367 141.468  0.00  0.00    +0.000 OA
ATOM     37  O   UNL     1     109.707 126.249 141.145  0.00  0.00    +0.000 OA
ATOM     38  C   UNL     1     111.342 126.273 139.287  0.00  0.00    +0.000 C 
ATOM     39  C   UNL     1     111.603 126.324 140.068  0.00  0.00    +0.000 C 
ATOM     40  C   UNL     1     111.059 126.316 140.687  0.00  0.00    +0.000 C 
ATOM     41  C   UNL     1     110.252 126.257 140.526  0.00  0.00    +0.000 C 
ATOM     42  C   UNL     1     109.989 126.206 139.745  0.00  0.00    +0.000 C 
ATOM     43  C   UNL     1     109.183 126.148 139.584  0.00  0.00    +0.000 C 
ENDBRANCH  33  38
ENDBRANCH  27  33
ENDBRANCH  23  30
ENDBRANCH   5  23
TORSDOF 6
ENDMDL
MODEL 7
REMARK VINA RESULT:      -9.9      2.448      4.486
REMARK  Name = 14238620
REMARK  6 active torsions:
REMARK  status: ('A' for Active; 'I' for Inactive)
REMARK    1  A    between atoms: O_1  and  C_16
REMARK    2  A    between atoms: O_1  and  C_19
REMARK    3  A    between atoms: O_4  and  C_21
REMARK    4  A    between atoms: O_4  and  C_28
REMARK    5  A    between atoms: O_14  and  C_40
REMARK    6  A    between atoms: C_29  and  C_32
REMARK                            x       y       z     vdW  Elec       q    Type
REMARK                         _______ _______ _______ _____ _____    ______ ____
ROOT
ATOM      1  O   UNL     1     112.970 127.774 137.184  0.00  0.00    +0.000 OA
ATOM      2  O   UNL     1     110.568 127.608 137.756  0.00  0.00    +0.000 OA
ATOM      3  O   UNL     1     110.668 126.174 137.884  0.00  0.00    +0.000 OA
ATOM      4  O   UNL     1     113.247 124.885 137.425  0.00  0.00    +0.000 OA
ATOM      5  C   UNL     1     111.706 128.400 137.409  0.00  0.00    +0.000 A 
ATOM      6  C   UNL     1     112.506 128.455 137.219  0.00  0.00    +0.000 A 
ATOM      7  C   UNL     1     111.368 127.663 137.565  0.00  0.00    +0.000 A 
ATOM      8  C   UNL     1     111.832 126.982 137.530  0.00  0.00    +0.000 A 
ATOM      9  C   UNL     1     112.633 127.037 137.339  0.00  0.00    +0.000 A 
ATOM     10  C   UNL     1     111.470 126.220 137.694  0.00  0.00    +0.000 A 
ATOM     11  C   UNL     1     113.126 126.335 137.300  0.00  0.00    +0.000 A 
ATOM     12  C   UNL     1     111.947 125.507 137.659  0.00  0.00    +0.000 A 
ATOM     13  C   UNL     1     112.781 125.565 137.461  0.00  0.00    +0.000 A 
ENDROOT
BRANCH   6  15
ATOM     14  O   UNL     1     113.857 131.401 136.593  0.00  0.00    +0.000 OA
ATOM     15  C   UNL     1     112.844 129.192 137.063  0.00  0.00    +0.000 A 
ATOM     16  C   UNL     1     113.094 129.672 137.685  0.00  0.00    +0.000 A 
ATOM     17  C   UNL     1     112.931 129.448 136.284  0.00  0.00    +0.000 A 
ATOM     18  C   UNL     1     113.431 130.408 137.530  0.00  0.00    +0.000 A 
ATOM     19  C   UNL     1     113.269 130.185 136.127  0.00  0.00    +0.000 A 
ATOM     20  C   UNL     1     113.519 130.665 136.750  0.00  0.00    +0.000 A 
BRANCH  18  21
ATOM     21  O   UNL     1     113.681 130.888 138.152  0.00  0.00    +0.000 OA
ATOM     22  C   UNL     1     113.991 130.547 138.836  0.00  0.00    +0.000 C 
ENDBRANCH  18  21
ENDBRANCH   6  15
BRANCH   5  23
ATOM     23  O   UNL     1     111.242 129.081 137.445  0.00  0.00    +0.000 OA
BRANCH  23  30
ATOM     24  O   UNL     1     110.553 128.846 136.215  0.00  0.00    +0.000 OA
ATOM     25  O   UNL     1     108.520 129.901 137.153  0.00  0.00    +0.000 OA
ATOM     26  O   UNL     1     108.508 129.314 135.611  0.00  0.00    +0.000 OA
ATOM     27  C   UNL     1     109.880 129.491 137.298  0.00  0.00    +0.000 C 
ATOM     28  C   UNL     1     109.198 129.549 136.840  0.00  0.00    +0.000 C 
ATOM     29  C   UNL     1     109.192 129.256 136.070  0.00  0.00    +0.000 C 
ATOM     30  C   UNL     1     110.558 129.140 136.986  0.00  0.00    +0.000 C 
ATOM     31  C   UNL     1     109.869 128.904 135.757  0.00  0.00    +0.000 C 
ATOM     32  C   UNL     1     109.864 128.610 134.986  0.00  0.00    +0.000 C 
BRANCH  27  33
ATOM     33  O   UNL     1     109.887 129.785 138.070  0.00  0.00    +0.000 OA
BRANCH  33  38
ATOM     34  O   UNL     1     110.082 131.108 137.563  0.00  0.00    +0.000 OA
ATOM     35  O   UNL     1     109.888 130.375 139.611  0.00  0.00    +0.000 OA
ATOM     36  O   UNL     1     110.084 131.992 139.875  0.00  0.00    +0.000 OA
ATOM     37  O   UNL     1     110.278 133.019 138.598  0.00  0.00    +0.000 OA
ATOM     38  C   UNL     1     109.985 130.593 138.202  0.00  0.00    +0.000 C 
ATOM     39  C   UNL     1     109.985 130.889 138.972  0.00  0.00    +0.000 C 
ATOM     40  C   UNL     1     110.083 131.697 139.104  0.00  0.00    +0.000 C 
ATOM     41  C   UNL     1     110.180 132.210 138.466  0.00  0.00    +0.000 C 
ATOM     42  C   UNL     1     110.179 131.916 137.695  0.00  0.00    +0.000 C 
ATOM     43  C   UNL     1     110.276 132.429 137.057  0.00  0.00    +0.000 C 
ENDBRANCH  33  38
ENDBRANCH  27  33
ENDBRANCH  23  30
ENDBRANCH   5  23
TORSDOF 6
ENDMDL
MODEL 8
REMARK VINA RESULT:      -9.9      1.865      3.714
REMARK  Name = 14238620
REMARK  6 active torsions:
REMARK  status: ('A' for Active; 'I' for Inactive)
REMARK    1  A    between atoms: O_1  and  C_16
REMARK    2  A    between atoms: O_1  and  C_19
REMARK    3  A    between atoms: O_4  and  C_21
REMARK    4  A    between atoms: O_4  and  C_28
REMARK    5  A    between atoms: O_14  and  C_40
REMARK    6  A    between atoms: C_29  and  C_32
REMARK                            x       y       z     vdW  Elec       q    Type
REMARK                         _______ _______ _______ _____ _____    ______ ____
ROOT
ATOM      1  O   UNL     1     113.197 127.383 136.262  0.00  0.00    +0.000 OA
ATOM      2  O   UNL     1     112.474 129.195 137.784  0.00  0.00    +0.000 OA
ATOM      3  O   UNL     1     113.323 130.143 137.105  0.00  0.00    +0.000 OA
ATOM      4  O   UNL     1     114.933 129.241 134.843  0.00  0.00    +0.000 OA
ATOM      5  C   UNL     1     112.411 127.829 137.368  0.00  0.00    +0.000 A 
ATOM      6  C   UNL     1     112.652 127.225 136.861  0.00  0.00    +0.000 A 
ATOM      7  C   UNL     1     112.715 128.591 137.277  0.00  0.00    +0.000 A 
ATOM      8  C   UNL     1     113.260 128.748 136.678  0.00  0.00    +0.000 A 
ATOM      9  C   UNL     1     113.501 128.144 136.170  0.00  0.00    +0.000 A 
ATOM     10  C   UNL     1     113.570 129.545 136.592  0.00  0.00    +0.000 A 
ATOM     11  C   UNL     1     114.068 128.295 135.542  0.00  0.00    +0.000 A 
ATOM     12  C   UNL     1     114.137 129.716 135.971  0.00  0.00    +0.000 A 
ATOM     13  C   UNL     1     114.388 129.086 135.442  0.00  0.00    +0.000 A 
ENDROOT
BRANCH   6  15
ATOM     14  O   UNL     1     111.439 124.178 137.226  0.00  0.00    +0.000 OA
ATOM     15  C   UNL     1     112.348 126.464 136.952  0.00  0.00    +0.000 A 
ATOM     16  C   UNL     1     111.708 126.217 136.495  0.00  0.00    +0.000 A 
ATOM     17  C   UNL     1     112.685 125.948 137.500  0.00  0.00    +0.000 A 
ATOM     18  C   UNL     1     111.404 125.455 136.585  0.00  0.00    +0.000 A 
ATOM     19  C   UNL     1     112.383 125.187 137.592  0.00  0.00    +0.000 A 
ATOM     20  C   UNL     1     111.741 124.940 137.134  0.00  0.00    +0.000 A 
BRANCH  18  21
ATOM     21  O   UNL     1     110.764 125.209 136.128  0.00  0.00    +0.000 OA
ATOM     22  C   UNL     1     110.697 125.457 135.345  0.00  0.00    +0.000 C 
ENDBRANCH  18  21
ENDBRANCH   6  15
BRANCH   5  23
ATOM     23  O   UNL     1     111.866 127.672 137.967  0.00  0.00    +0.000 OA
BRANCH  23  30
ATOM     24  O   UNL     1     110.766 128.319 137.324  0.00  0.00    +0.000 OA
ATOM     25  O   UNL     1     109.872 128.992 139.532  0.00  0.00    +0.000 OA
ATOM     26  O   UNL     1     109.070 129.415 138.153  0.00  0.00    +0.000 OA
ATOM     27  C   UNL     1     110.868 128.332 138.749  0.00  0.00    +0.000 C 
ATOM     28  C   UNL     1     110.170 128.768 138.796  0.00  0.00    +0.000 C 
ATOM     29  C   UNL     1     109.769 128.979 138.107  0.00  0.00    +0.000 C 
ATOM     30  C   UNL     1     111.166 128.108 138.014  0.00  0.00    +0.000 C 
ATOM     31  C   UNL     1     110.067 128.755 137.371  0.00  0.00    +0.000 C 
ATOM     32  C   UNL     1     109.666 128.966 136.681  0.00  0.00    +0.000 C 
BRANCH  27  33
ATOM     33  O   UNL     1     111.270 128.120 139.438  0.00  0.00    +0.000 OA
BRANCH  33  38
ATOM     34  O   UNL     1     110.343 127.052 139.648  0.00  0.00    +0.000 OA
ATOM     35  O   UNL     1     112.074 127.694 140.815  0.00  0.00    +0.000 OA
ATOM     36  O   UNL     1     111.549 126.412 141.713  0.00  0.00    +0.000 OA
ATOM     37  O   UNL     1     110.222 125.558 141.234  0.00  0.00    +0.000 OA
ATOM     38  C   UNL     1     111.008 127.480 139.887  0.00  0.00    +0.000 C 
ATOM     39  C   UNL     1     111.409 127.266 140.576  0.00  0.00    +0.000 C 
ATOM     40  C   UNL     1     111.147 126.625 141.025  0.00  0.00    +0.000 C 
ATOM     41  C   UNL     1     110.484 126.198 140.785  0.00  0.00    +0.000 C 
ATOM     42  C   UNL     1     110.081 126.411 140.097  0.00  0.00    +0.000 C 
ATOM     43  C   UNL     1     109.418 125.984 139.858  0.00  0.00    +0.000 C 
ENDBRANCH  33  38
ENDBRANCH  27  33
ENDBRANCH  23  30
ENDBRANCH   5  23
TORSDOF 6
ENDMDL
MODEL 9
REMARK VINA RESULT:      -9.8      1.560      3.818
REMARK  Name = 14238620
REMARK  6 active torsions:
REMARK  status: ('A' for Active; 'I' for Inactive)
REMARK    1  A    between atoms: O_1  and  C_16
REMARK    2  A    between atoms: O_1  and  C_19
REMARK    3  A    between atoms: O_4  and  C_21
REMARK    4  A    between atoms: O_4  and  C_28
REMARK    5  A    between atoms: O_14  and  C_40
REMARK    6  A    between atoms: C_29  and  C_32
REMARK                            x       y       z     vdW  Elec       q    Type
REMARK                         _______ _______ _______ _____ _____    ______ ____
ROOT
ATOM      1  O   UNL     1     113.515 126.733 137.505  0.00  0.00    +0.000 OA
ATOM      2  O   UNL     1     111.473 125.589 136.703  0.00  0.00    +0.000 OA
ATOM      3  O   UNL     1     112.188 124.343 136.572  0.00  0.00    +0.000 OA
ATOM      4  O   UNL     1     115.022 124.253 137.265  0.00  0.00    +0.000 OA
ATOM      5  C   UNL     1     112.128 126.772 137.164  0.00  0.00    +0.000 A 
ATOM      6  C   UNL     1     112.809 127.153 137.431  0.00  0.00    +0.000 A 
ATOM      7  C   UNL     1     112.153 125.971 136.970  0.00  0.00    +0.000 A 
ATOM      8  C   UNL     1     112.859 125.550 137.043  0.00  0.00    +0.000 A 
ATOM      9  C   UNL     1     113.541 125.932 137.311  0.00  0.00    +0.000 A 
ATOM     10  C   UNL     1     112.874 124.716 136.838  0.00  0.00    +0.000 A 
ATOM     11  C   UNL     1     114.282 125.506 137.391  0.00  0.00    +0.000 A 
ATOM     12  C   UNL     1     113.606 124.273 136.912  0.00  0.00    +0.000 A 
ATOM     13  C   UNL     1     114.315 124.671 137.190  0.00  0.00    +0.000 A 
ENDROOT
BRANCH   6  15
ATOM     14  O   UNL     1     112.710 130.359 138.211  0.00  0.00    +0.000 OA
ATOM     15  C   UNL     1     112.784 127.955 137.626  0.00  0.00    +0.000 A 
ATOM     16  C   UNL     1     112.860 128.526 137.036  0.00  0.00    +0.000 A 
ATOM     17  C   UNL     1     112.683 128.186 138.411  0.00  0.00    +0.000 A 
ATOM     18  C   UNL     1     112.835 129.327 137.230  0.00  0.00    +0.000 A 
ATOM     19  C   UNL     1     112.658 128.986 138.607  0.00  0.00    +0.000 A 
ATOM     20  C   UNL     1     112.735 129.558 138.016  0.00  0.00    +0.000 A 
BRANCH  18  21
ATOM     21  O   UNL     1     112.912 129.898 136.640  0.00  0.00    +0.000 OA
ATOM     22  C   UNL     1     113.191 129.684 135.894  0.00  0.00    +0.000 C 
ENDBRANCH  18  21
ENDBRANCH   6  15
BRANCH   5  23
ATOM     23  O   UNL     1     111.422 127.192 137.091  0.00  0.00    +0.000 OA
BRANCH  23  30
ATOM     24  O   UNL     1     110.806 126.621 138.247  0.00  0.00    +0.000 OA
ATOM     25  O   UNL     1     108.594 126.781 137.148  0.00  0.00    +0.000 OA
ATOM     26  O   UNL     1     108.716 126.157 138.671  0.00  0.00    +0.000 OA
ATOM     27  C   UNL     1     110.008 126.987 137.120  0.00  0.00    +0.000 C 
ATOM     28  C   UNL     1     109.332 126.728 137.515  0.00  0.00    +0.000 C 
ATOM     29  C   UNL     1     109.392 126.416 138.275  0.00  0.00    +0.000 C 
ATOM     30  C   UNL     1     110.745 126.933 137.486  0.00  0.00    +0.000 C 
ATOM     31  C   UNL     1     110.129 126.363 138.642  0.00  0.00    +0.000 C 
ATOM     32  C   UNL     1     110.190 126.050 139.404  0.00  0.00    +0.000 C 
BRANCH  27  33
ATOM     33  O   UNL     1     109.948 127.299 136.358  0.00  0.00    +0.000 OA
BRANCH  33  38
ATOM     34  O   UNL     1     109.529 128.551 136.907  0.00  0.00    +0.000 OA
ATOM     35  O   UNL     1     109.820 127.922 134.836  0.00  0.00    +0.000 OA
ATOM     36  O   UNL     1     109.339 129.486 134.622  0.00  0.00    +0.000 OA
ATOM     37  O   UNL     1     108.984 130.426 135.931  0.00  0.00    +0.000 OA
ATOM     38  C   UNL     1     109.707 128.081 136.252  0.00  0.00    +0.000 C 
ATOM     39  C   UNL     1     109.643 128.393 135.491  0.00  0.00    +0.000 C 
ATOM     40  C   UNL     1     109.402 129.175 135.384  0.00  0.00    +0.000 C 
ATOM     41  C   UNL     1     109.225 129.644 136.038  0.00  0.00    +0.000 C 
ATOM     42  C   UNL     1     109.289 129.333 136.800  0.00  0.00    +0.000 C 
ATOM     43  C   UNL     1     109.112 129.803 137.454  0.00  0.00    +0.000 C 
ENDBRANCH  33  38
ENDBRANCH  27  33
ENDBRANCH  23  30
ENDBRANCH   5  23
TORSDOF 6
ENDMDL
MODEL 10
REMARK VINA RESULT:      -9.8      1.536      3.806
REMARK  Name = 14238620
REMARK  6 active torsions:
REMARK  status: ('A' for Active; 'I' for Inactive)
REMARK    1  A    between atoms: O_1  and  C_16
REMARK    2  A    between atoms: O_1  and  C_19
REMARK    3  A    between atoms: O_4  and  C_21
REMARK    4  A    between atoms: O_4  and  C_28
REMARK    5  A    between atoms: O_14  and  C_40
REMARK    6  A    between atoms: C_29  and  C_32
REMARK                            x       y       z     vdW  Elec       q    Type
REMARK                         _______ _______ _______ _____ _____    ______ ____
ROOT
ATOM      1  O   UNL     1     113.495 129.770 138.286  0.00  0.00    +0.000 OA
ATOM      2  O   UNL     1     113.189 127.879 139.852  0.00  0.00    +0.000 OA
ATOM      3  O   UNL     1     113.873 128.598 140.899  0.00  0.00    +0.000 OA
ATOM      4  O   UNL     1     114.886 131.281 140.351  0.00  0.00    +0.000 OA
ATOM      5  C   UNL     1     113.001 128.458 138.559  0.00  0.00    +0.000 A 
ATOM      6  C   UNL     1     113.104 129.088 138.037  0.00  0.00    +0.000 A 
ATOM      7  C   UNL     1     113.291 128.509 139.330  0.00  0.00    +0.000 A 
ATOM      8  C   UNL     1     113.683 129.191 139.579  0.00  0.00    +0.000 A 
ATOM      9  C   UNL     1     113.785 129.822 139.056  0.00  0.00    +0.000 A 
ATOM     10  C   UNL     1     113.980 129.234 140.384  0.00  0.00    +0.000 A 
ATOM     11  C   UNL     1     114.191 130.538 139.304  0.00  0.00    +0.000 A 
ATOM     12  C   UNL     1     114.389 129.941 140.649  0.00  0.00    +0.000 A 
ATOM     13  C   UNL     1     114.495 130.597 140.105  0.00  0.00    +0.000 A 
ENDROOT
BRANCH   6  15
ATOM     14  O   UNL     1     111.949 128.883 134.952  0.00  0.00    +0.000 OA
ATOM     15  C   UNL     1     112.814 129.037 137.266  0.00  0.00    +0.000 A 
ATOM     16  C   UNL     1     112.085 129.371 137.076  0.00  0.00    +0.000 A 
ATOM     17  C   UNL     1     113.256 128.652 136.685  0.00  0.00    +0.000 A 
ATOM     18  C   UNL     1     111.796 129.320 136.305  0.00  0.00    +0.000 A 
ATOM     19  C   UNL     1     112.968 128.600 135.914  0.00  0.00    +0.000 A 
ATOM     20  C   UNL     1     112.237 128.935 135.724  0.00  0.00    +0.000 A 
BRANCH  18  21
ATOM     21  O   UNL     1     111.066 129.654 136.114  0.00  0.00    +0.000 OA
ATOM     22  C   UNL     1     110.842 130.373 136.450  0.00  0.00    +0.000 C 
ENDBRANCH  18  21
ENDBRANCH   6  15
BRANCH   5  23
ATOM     23  O   UNL     1     112.610 127.776 138.310  0.00  0.00    +0.000 OA
BRANCH  23  30
ATOM     24  O   UNL     1     111.408 128.042 139.036  0.00  0.00    +0.000 OA
ATOM     25  O   UNL     1     111.062 125.612 139.353  0.00  0.00    +0.000 OA
ATOM     26  O   UNL     1     109.975 126.687 139.973  0.00  0.00    +0.000 OA
ATOM     27  C   UNL     1     111.835 126.693 138.832  0.00  0.00    +0.000 C 
ATOM     28  C   UNL     1     111.177 126.422 139.247  0.00  0.00    +0.000 C 
ATOM     29  C   UNL     1     110.634 126.959 139.557  0.00  0.00    +0.000 C 
ATOM     30  C   UNL     1     111.951 127.504 138.726  0.00  0.00    +0.000 C 
ATOM     31  C   UNL     1     110.749 127.769 139.452  0.00  0.00    +0.000 C 
ATOM     32  C   UNL     1     110.206 128.307 139.762  0.00  0.00    +0.000 C 
BRANCH  27  33
ATOM     33  O   UNL     1     112.379 126.156 138.521  0.00  0.00    +0.000 OA
BRANCH  33  38
ATOM     34  O   UNL     1     111.502 125.904 137.421  0.00  0.00    +0.000 OA
ATOM     35  O   UNL     1     113.418 125.005 137.957  0.00  0.00    +0.000 OA
ATOM     36  O   UNL     1     113.061 124.178 136.575  0.00  0.00    +0.000 OA
ATOM     37  O   UNL     1     111.665 124.501 135.757  0.00  0.00    +0.000 OA
ATOM     38  C   UNL     1     112.201 125.742 137.830  0.00  0.00    +0.000 C 
ATOM     39  C   UNL     1     112.720 125.167 137.548  0.00  0.00    +0.000 C 
ATOM     40  C   UNL     1     112.541 124.753 136.857  0.00  0.00    +0.000 C 
ATOM     41  C   UNL     1     111.844 124.915 136.448  0.00  0.00    +0.000 C 
ATOM     42  C   UNL     1     111.323 125.490 136.730  0.00  0.00    +0.000 C 
ATOM     43  C   UNL     1     110.626 125.652 136.321  0.00  0.00    +0.000 C 
ENDBRANCH  33  38
ENDBRANCH  27  33
ENDBRANCH  23  30
ENDBRANCH   5  23
TORSDOF 6
ENDMDL
