MODEL 1
REMARK VINA RESULT:     -11.2      0.000      0.000
REMARK  Name = 11192981
REMARK  6 active torsions:
REMARK  status: ('A' for Active; 'I' for Inactive)
REMARK    1  A    between atoms: O_2  and  C_21
REMARK    2  A    between atoms: O_2  and  C_25
REMARK    3  A    between atoms: O_4  and  C_22
REMARK    4  A    between atoms: O_4  and  C_28
REMARK    5  A    between atoms: C_16  and  C_25
REMARK    6  A    between atoms: C_30  and  C_35
REMARK                            x       y       z     vdW  Elec       q    Type
REMARK                         _______ _______ _______ _____ _____    ______ ____
ROOT
ATOM      1  O   UNL     1     112.962 126.633 136.587  0.00  0.00    +0.000 OA
ATOM      2  O   UNL     1     110.753 125.067 135.630  0.00  0.00    +0.000 OA
ATOM      3  O   UNL     1     112.997 123.746 136.962  0.00  0.00    +0.000 OA
ATOM      4  C   UNL     1     111.858 127.265 135.935  0.00  0.00    +0.000 A 
ATOM      5  C   UNL     1     111.496 126.529 135.837  0.00  0.00    +0.000 A 
ATOM      6  C   UNL     1     112.591 127.317 136.310  0.00  0.00    +0.000 A 
ATOM      7  C   UNL     1     111.867 125.847 136.114  0.00  0.00    +0.000 A 
ATOM      8  C   UNL     1     112.600 125.899 136.489  0.00  0.00    +0.000 A 
ATOM      9  C   UNL     1     110.769 126.479 135.464  0.00  0.00    +0.000 A 
ATOM     10  C   UNL     1     111.479 125.087 136.006  0.00  0.00    +0.000 A 
ATOM     11  C   UNL     1     110.402 125.755 135.363  0.00  0.00    +0.000 A 
ATOM     12  C   UNL     1     112.996 125.195 136.783  0.00  0.00    +0.000 A 
ATOM     13  C   UNL     1     111.861 124.373 136.293  0.00  0.00    +0.000 A 
ATOM     14  C   UNL     1     112.624 124.427 136.684  0.00  0.00    +0.000 A 
ATOM     15  C   UNL     1     109.669 125.720 134.985  0.00  0.00    +0.000 C 
ENDROOT
BRANCH   6  18
ATOM     16  O   UNL     1     113.484 129.428 138.016  0.00  0.00    +0.000 OA
ATOM     17  O   UNL     1     114.039 130.256 136.701  0.00  0.00    +0.000 OA
ATOM     18  C   UNL     1     112.953 128.051 136.407  0.00  0.00    +0.000 A 
ATOM     19  C   UNL     1     113.038 128.372 137.163  0.00  0.00    +0.000 A 
ATOM     20  C   UNL     1     113.231 128.465 135.750  0.00  0.00    +0.000 A 
ATOM     21  C   UNL     1     113.400 129.107 137.261  0.00  0.00    +0.000 A 
ATOM     22  C   UNL     1     113.593 129.200 135.848  0.00  0.00    +0.000 A 
ATOM     23  C   UNL     1     113.677 129.521 136.603  0.00  0.00    +0.000 A 
ENDBRANCH   6  18
BRANCH   4  24
ATOM     24  O   UNL     1     111.487 127.947 135.657  0.00  0.00    +0.000 OA
BRANCH  24  33
ATOM     25  O   UNL     1     110.724 128.067 136.858  0.00  0.00    +0.000 OA
ATOM     26  O   UNL     1     108.919 129.215 137.296  0.00  0.00    +0.000 OA
ATOM     27  O   UNL     1     109.162 129.608 135.712  0.00  0.00    +0.000 OA
ATOM     28  O   UNL     1     110.446 128.974 134.893  0.00  0.00    +0.000 OA
ATOM     29  C   UNL     1     110.082 128.384 137.268  0.00  0.00    +0.000 C 
ATOM     30  C   UNL     1     109.561 128.898 136.886  0.00  0.00    +0.000 C 
ATOM     31  C   UNL     1     109.683 129.094 136.094  0.00  0.00    +0.000 C 
ATOM     32  C   UNL     1     110.325 128.777 135.684  0.00  0.00    +0.000 C 
ATOM     33  C   UNL     1     110.845 128.264 136.067  0.00  0.00    +0.000 C 
BRANCH  29  34
ATOM     34  C   UNL     1     109.960 128.188 138.060  0.00  0.00    +0.000 C 
BRANCH  34  35
ATOM     35  O   UNL     1     109.689 127.435 138.262  0.00  0.00    +0.000 OA
BRANCH  35  41
ATOM     36  O   UNL     1     110.572 127.403 139.386  0.00  0.00    +0.000 OA
ATOM     37  O   UNL     1     108.933 126.078 138.817  0.00  0.00    +0.000 OA
ATOM     38  O   UNL     1     109.437 125.367 140.219  0.00  0.00    +0.000 OA
ATOM     39  O   UNL     1     110.698 126.014 141.065  0.00  0.00    +0.000 OA
ATOM     40  C   UNL     1     109.563 126.401 139.240  0.00  0.00    +0.000 C 
ATOM     41  C   UNL     1     109.941 127.080 138.962  0.00  0.00    +0.000 C 
ATOM     42  C   UNL     1     109.816 126.046 139.941  0.00  0.00    +0.000 C 
ATOM     43  C   UNL     1     110.446 126.370 140.363  0.00  0.00    +0.000 C 
ATOM     44  C   UNL     1     110.824 127.048 140.086  0.00  0.00    +0.000 C 
ATOM     45  C   UNL     1     111.454 127.371 140.509  0.00  0.00    +0.000 C 
ENDBRANCH  35  41
ENDBRANCH  34  35
ENDBRANCH  29  34
ENDBRANCH  24  33
ENDBRANCH   4  24
TORSDOF 6
ENDMDL
MODEL 2
REMARK VINA RESULT:     -11.1      1.139      4.332
REMARK  Name = 11192981
REMARK  6 active torsions:
REMARK  status: ('A' for Active; 'I' for Inactive)
REMARK    1  A    between atoms: O_2  and  C_21
REMARK    2  A    between atoms: O_2  and  C_25
REMARK    3  A    between atoms: O_4  and  C_22
REMARK    4  A    between atoms: O_4  and  C_28
REMARK    5  A    between atoms: C_16  and  C_25
REMARK    6  A    between atoms: C_30  and  C_35
REMARK                            x       y       z     vdW  Elec       q    Type
REMARK                         _______ _______ _______ _____ _____    ______ ____
ROOT
ATOM      1  O   UNL     1     113.278 127.296 136.246  0.00  0.00    +0.000 OA
ATOM      2  O   UNL     1     113.473 129.631 137.906  0.00  0.00    +0.000 OA
ATOM      3  O   UNL     1     113.927 129.859 135.025  0.00  0.00    +0.000 OA
ATOM      4  C   UNL     1     113.058 127.200 137.654  0.00  0.00    +0.000 A 
ATOM      5  C   UNL     1     113.198 128.010 137.731  0.00  0.00    +0.000 A 
ATOM      6  C   UNL     1     113.098 126.843 136.912  0.00  0.00    +0.000 A 
ATOM      7  C   UNL     1     113.377 128.462 137.064  0.00  0.00    +0.000 A 
ATOM      8  C   UNL     1     113.417 128.105 136.322  0.00  0.00    +0.000 A 
ATOM      9  C   UNL     1     113.158 128.364 138.467  0.00  0.00    +0.000 A 
ATOM     10  C   UNL     1     113.520 129.305 137.156  0.00  0.00    +0.000 A 
ATOM     11  C   UNL     1     113.294 129.166 138.553  0.00  0.00    +0.000 A 
ATOM     12  C   UNL     1     113.602 128.566 135.620  0.00  0.00    +0.000 A 
ATOM     13  C   UNL     1     113.707 129.781 136.466  0.00  0.00    +0.000 A 
ATOM     14  C   UNL     1     113.748 129.409 135.693  0.00  0.00    +0.000 A 
ATOM     15  C   UNL     1     113.251 129.508 139.303  0.00  0.00    +0.000 C 
ENDROOT
BRANCH   6  18
ATOM     16  O   UNL     1     111.453 124.689 136.005  0.00  0.00    +0.000 OA
ATOM     17  O   UNL     1     112.541 123.605 136.607  0.00  0.00    +0.000 OA
ATOM     18  C   UNL     1     112.959 126.034 136.836  0.00  0.00    +0.000 A 
ATOM     19  C   UNL     1     112.276 125.767 136.458  0.00  0.00    +0.000 A 
ATOM     20  C   UNL     1     113.503 125.491 137.137  0.00  0.00    +0.000 A 
ATOM     21  C   UNL     1     112.136 124.957 136.382  0.00  0.00    +0.000 A 
ATOM     22  C   UNL     1     113.364 124.682 137.061  0.00  0.00    +0.000 A 
ATOM     23  C   UNL     1     112.680 124.415 136.683  0.00  0.00    +0.000 A 
ENDBRANCH   6  18
BRANCH   4  24
ATOM     24  O   UNL     1     112.879 126.748 138.321  0.00  0.00    +0.000 OA
BRANCH  24  33
ATOM     25  O   UNL     1     111.526 127.205 138.289  0.00  0.00    +0.000 OA
ATOM     26  O   UNL     1     109.921 127.023 139.757  0.00  0.00    +0.000 OA
ATOM     27  O   UNL     1     111.149 126.248 140.540  0.00  0.00    +0.000 OA
ATOM     28  O   UNL     1     112.629 126.110 139.822  0.00  0.00    +0.000 OA
ATOM     29  C   UNL     1     110.787 127.274 138.648  0.00  0.00    +0.000 C 
ATOM     30  C   UNL     1     110.661 126.955 139.398  0.00  0.00    +0.000 C 
ATOM     31  C   UNL     1     111.276 126.567 139.790  0.00  0.00    +0.000 C 
ATOM     32  C   UNL     1     112.015 126.498 139.431  0.00  0.00    +0.000 C 
ATOM     33  C   UNL     1     112.140 126.817 138.680  0.00  0.00    +0.000 C 
BRANCH  29  34
ATOM     34  C   UNL     1     110.172 127.662 138.257  0.00  0.00    +0.000 C 
BRANCH  34  35
ATOM     35  O   UNL     1     109.971 127.444 137.487  0.00  0.00    +0.000 OA
BRANCH  35  41
ATOM     36  O   UNL     1     109.919 128.761 136.935  0.00  0.00    +0.000 OA
ATOM     37  O   UNL     1     108.671 127.008 136.568  0.00  0.00    +0.000 OA
ATOM     38  O   UNL     1     107.969 128.107 135.557  0.00  0.00    +0.000 OA
ATOM     39  O   UNL     1     108.567 129.643 135.465  0.00  0.00    +0.000 OA
ATOM     40  C   UNL     1     108.970 127.775 136.522  0.00  0.00    +0.000 C 
ATOM     41  C   UNL     1     109.620 127.993 136.982  0.00  0.00    +0.000 C 
ATOM     42  C   UNL     1     108.619 128.325 136.017  0.00  0.00    +0.000 C 
ATOM     43  C   UNL     1     108.918 129.093 135.971  0.00  0.00    +0.000 C 
ATOM     44  C   UNL     1     109.568 129.311 136.430  0.00  0.00    +0.000 C 
ATOM     45  C   UNL     1     109.866 130.079 136.383  0.00  0.00    +0.000 C 
ENDBRANCH  35  41
ENDBRANCH  34  35
ENDBRANCH  29  34
ENDBRANCH  24  33
ENDBRANCH   4  24
TORSDOF 6
ENDMDL
MODEL 3
REMARK VINA RESULT:     -11.1      1.486      3.990
REMARK  Name = 11192981
REMARK  6 active torsions:
REMARK  status: ('A' for Active; 'I' for Inactive)
REMARK    1  A    between atoms: O_2  and  C_21
REMARK    2  A    between atoms: O_2  and  C_25
REMARK    3  A    between atoms: O_4  and  C_22
REMARK    4  A    between atoms: O_4  and  C_28
REMARK    5  A    between atoms: C_16  and  C_25
REMARK    6  A    between atoms: C_30  and  C_35
REMARK                            x       y       z     vdW  Elec       q    Type
REMARK                         _______ _______ _______ _____ _____    ______ ____
ROOT
ATOM      1  O   UNL     1     113.587 126.096 138.800  0.00  0.00    +0.000 OA
ATOM      2  O   UNL     1     112.409 125.074 136.388  0.00  0.00    +0.000 OA
ATOM      3  O   UNL     1     115.257 124.649 136.903  0.00  0.00    +0.000 OA
ATOM      4  C   UNL     1     112.197 126.296 138.534  0.00  0.00    +0.000 A 
ATOM      5  C   UNL     1     112.275 125.888 137.821  0.00  0.00    +0.000 A 
ATOM      6  C   UNL     1     112.853 126.400 139.024  0.00  0.00    +0.000 A 
ATOM      7  C   UNL     1     113.009 125.585 137.598  0.00  0.00    +0.000 A 
ATOM      8  C   UNL     1     113.665 125.689 138.088  0.00  0.00    +0.000 A 
ATOM      9  C   UNL     1     111.624 125.785 137.336  0.00  0.00    +0.000 A 
ATOM     10  C   UNL     1     113.078 125.162 136.853  0.00  0.00    +0.000 A 
ATOM     11  C   UNL     1     111.691 125.382 136.627  0.00  0.00    +0.000 A 
ATOM     12  C   UNL     1     114.435 125.377 137.866  0.00  0.00    +0.000 A 
ATOM     13  C   UNL     1     113.839 124.843 136.615  0.00  0.00    +0.000 A 
ATOM     14  C   UNL     1     114.522 124.952 137.124  0.00  0.00    +0.000 A 
ATOM     15  C   UNL     1     111.026 125.287 136.149  0.00  0.00    +0.000 C 
ENDROOT
BRANCH   6  18
ATOM     16  O   UNL     1     113.481 128.651 140.670  0.00  0.00    +0.000 OA
ATOM     17  O   UNL     1     112.540 128.031 141.876  0.00  0.00    +0.000 OA
ATOM     18  C   UNL     1     112.775 126.807 139.736  0.00  0.00    +0.000 A 
ATOM     19  C   UNL     1     113.167 127.525 139.846  0.00  0.00    +0.000 A 
ATOM     20  C   UNL     1     112.305 126.498 140.340  0.00  0.00    +0.000 A 
ATOM     21  C   UNL     1     113.089 127.933 140.560  0.00  0.00    +0.000 A 
ATOM     22  C   UNL     1     112.226 126.906 141.052  0.00  0.00    +0.000 A 
ATOM     23  C   UNL     1     112.619 127.623 141.162  0.00  0.00    +0.000 A 
ENDBRANCH   6  18
BRANCH   4  24
ATOM     24  O   UNL     1     111.463 126.599 138.757  0.00  0.00    +0.000 OA
BRANCH  24  33
ATOM     25  O   UNL     1     111.682 127.803 138.021  0.00  0.00    +0.000 OA
ATOM     26  O   UNL     1     110.278 129.305 137.287  0.00  0.00    +0.000 OA
ATOM     27  O   UNL     1     109.247 128.248 138.024  0.00  0.00    +0.000 OA
ATOM     28  O   UNL     1     109.840 126.895 138.759  0.00  0.00    +0.000 OA
ATOM     29  C   UNL     1     111.385 128.480 137.654  0.00  0.00    +0.000 C 
ATOM     30  C   UNL     1     110.574 128.629 137.654  0.00  0.00    +0.000 C 
ATOM     31  C   UNL     1     110.058 128.100 138.023  0.00  0.00    +0.000 C 
ATOM     32  C   UNL     1     110.355 127.423 138.391  0.00  0.00    +0.000 C 
ATOM     33  C   UNL     1     111.167 127.276 138.390  0.00  0.00    +0.000 C 
BRANCH  29  34
ATOM     34  C   UNL     1     111.901 129.009 137.285  0.00  0.00    +0.000 C 
BRANCH  34  35
ATOM     35  O   UNL     1     112.407 128.744 136.690  0.00  0.00    +0.000 OA
BRANCH  35  41
ATOM     36  O   UNL     1     113.304 129.823 136.963  0.00  0.00    +0.000 OA
ATOM     37  O   UNL     1     113.299 128.339 135.362  0.00  0.00    +0.000 OA
ATOM     38  O   UNL     1     114.642 129.215 134.971  0.00  0.00    +0.000 OA
ATOM     39  O   UNL     1     115.093 130.496 135.908  0.00  0.00    +0.000 OA
ATOM     40  C   UNL     1     113.524 128.980 135.831  0.00  0.00    +0.000 C 
ATOM     41  C   UNL     1     113.078 129.182 136.495  0.00  0.00    +0.000 C 
ATOM     42  C   UNL     1     114.196 129.418 135.635  0.00  0.00    +0.000 C 
ATOM     43  C   UNL     1     114.421 130.058 136.104  0.00  0.00    +0.000 C 
ATOM     44  C   UNL     1     113.975 130.260 136.768  0.00  0.00    +0.000 C 
ATOM     45  C   UNL     1     114.201 130.901 137.236  0.00  0.00    +0.000 C 
ENDBRANCH  35  41
ENDBRANCH  34  35
ENDBRANCH  29  34
ENDBRANCH  24  33
ENDBRANCH   4  24
TORSDOF 6
ENDMDL
MODEL 4
REMARK VINA RESULT:     -11.0      1.540      4.126
REMARK  Name = 11192981
REMARK  6 active torsions:
REMARK  status: ('A' for Active; 'I' for Inactive)
REMARK    1  A    between atoms: O_2  and  C_21
REMARK    2  A    between atoms: O_2  and  C_25
REMARK    3  A    between atoms: O_4  and  C_22
REMARK    4  A    between atoms: O_4  and  C_28
REMARK    5  A    between atoms: C_16  and  C_25
REMARK    6  A    between atoms: C_30  and  C_35
REMARK                            x       y       z     vdW  Elec       q    Type
REMARK                         _______ _______ _______ _____ _____    ______ ____
ROOT
ATOM      1  O   UNL     1     113.489 126.265 138.838  0.00  0.00    +0.000 OA
ATOM      2  O   UNL     1     110.826 126.435 139.899  0.00  0.00    +0.000 OA
ATOM      3  O   UNL     1     113.066 127.533 141.425  0.00  0.00    +0.000 OA
ATOM      4  C   UNL     1     112.384 125.733 138.104  0.00  0.00    +0.000 A 
ATOM      5  C   UNL     1     111.871 125.970 138.705  0.00  0.00    +0.000 A 
ATOM      6  C   UNL     1     113.193 125.881 138.170  0.00  0.00    +0.000 A 
ATOM      7  C   UNL     1     112.167 126.354 139.373  0.00  0.00    +0.000 A 
ATOM      8  C   UNL     1     112.976 126.502 139.439  0.00  0.00    +0.000 A 
ATOM      9  C   UNL     1     111.069 125.823 138.639  0.00  0.00    +0.000 A 
ATOM     10  C   UNL     1     111.623 126.595 139.992  0.00  0.00    +0.000 A 
ATOM     11  C   UNL     1     110.552 126.053 139.230  0.00  0.00    +0.000 A 
ATOM     12  C   UNL     1     113.297 126.901 140.129  0.00  0.00    +0.000 A 
ATOM     13  C   UNL     1     111.925 126.996 140.690  0.00  0.00    +0.000 A 
ATOM     14  C   UNL     1     112.768 127.150 140.758  0.00  0.00    +0.000 A 
ATOM     15  C   UNL     1     109.746 125.898 139.149  0.00  0.00    +0.000 C 
ENDROOT
BRANCH   6  18
ATOM     16  O   UNL     1     114.920 126.538 135.989  0.00  0.00    +0.000 OA
ATOM     17  O   UNL     1     115.245 124.936 135.764  0.00  0.00    +0.000 OA
ATOM     18  C   UNL     1     113.706 125.645 137.569  0.00  0.00    +0.000 A 
ATOM     19  C   UNL     1     114.056 126.210 137.080  0.00  0.00    +0.000 A 
ATOM     20  C   UNL     1     113.869 124.844 137.455  0.00  0.00    +0.000 A 
ATOM     21  C   UNL     1     114.570 125.973 136.478  0.00  0.00    +0.000 A 
ATOM     22  C   UNL     1     114.381 124.608 136.854  0.00  0.00    +0.000 A 
ATOM     23  C   UNL     1     114.732 125.172 136.366  0.00  0.00    +0.000 A 
ENDBRANCH   6  18
BRANCH   4  24
ATOM     24  O   UNL     1     112.088 125.349 137.437  0.00  0.00    +0.000 OA
BRANCH  24  33
ATOM     25  O   UNL     1     111.673 126.598 136.880  0.00  0.00    +0.000 OA
ATOM     26  O   UNL     1     110.388 127.045 135.173  0.00  0.00    +0.000 OA
ATOM     27  O   UNL     1     110.368 125.395 135.155  0.00  0.00    +0.000 OA
ATOM     28  O   UNL     1     111.218 124.547 136.287  0.00  0.00    +0.000 OA
ATOM     29  C   UNL     1     111.248 127.022 136.314  0.00  0.00    +0.000 C 
ATOM     30  C   UNL     1     110.813 126.621 135.739  0.00  0.00    +0.000 C 
ATOM     31  C   UNL     1     110.803 125.796 135.730  0.00  0.00    +0.000 C 
ATOM     32  C   UNL     1     111.228 125.372 136.296  0.00  0.00    +0.000 C 
ATOM     33  C   UNL     1     111.663 125.773 136.871  0.00  0.00    +0.000 C 
BRANCH  29  34
ATOM     34  C   UNL     1     111.259 127.847 136.323  0.00  0.00    +0.000 C 
BRANCH  34  35
ATOM     35  O   UNL     1     111.971 128.252 136.230  0.00  0.00    +0.000 OA
BRANCH  35  41
ATOM     36  O   UNL     1     111.675 129.168 137.286  0.00  0.00    +0.000 OA
ATOM     37  O   UNL     1     112.989 129.361 135.554  0.00  0.00    +0.000 OA
ATOM     38  O   UNL     1     113.201 130.832 136.271  0.00  0.00    +0.000 OA
ATOM     39  O   UNL     1     112.396 131.194 137.665  0.00  0.00    +0.000 OA
ATOM     40  C   UNL     1     112.586 129.541 136.251  0.00  0.00    +0.000 C 
ATOM     41  C   UNL     1     112.077 128.987 136.589  0.00  0.00    +0.000 C 
ATOM     42  C   UNL     1     112.692 130.277 136.609  0.00  0.00    +0.000 C 
ATOM     43  C   UNL     1     112.289 130.458 137.306  0.00  0.00    +0.000 C 
ATOM     44  C   UNL     1     111.781 129.903 137.644  0.00  0.00    +0.000 C 
ATOM     45  C   UNL     1     111.378 130.085 138.342  0.00  0.00    +0.000 C 
ENDBRANCH  35  41
ENDBRANCH  34  35
ENDBRANCH  29  34
ENDBRANCH  24  33
ENDBRANCH   4  24
TORSDOF 6
ENDMDL
MODEL 5
REMARK VINA RESULT:     -10.9      1.269      2.913
REMARK  Name = 11192981
REMARK  6 active torsions:
REMARK  status: ('A' for Active; 'I' for Inactive)
REMARK    1  A    between atoms: O_2  and  C_21
REMARK    2  A    between atoms: O_2  and  C_25
REMARK    3  A    between atoms: O_4  and  C_22
REMARK    4  A    between atoms: O_4  and  C_28
REMARK    5  A    between atoms: C_16  and  C_25
REMARK    6  A    between atoms: C_30  and  C_35
REMARK                            x       y       z     vdW  Elec       q    Type
REMARK                         _______ _______ _______ _____ _____    ______ ____
ROOT
ATOM      1  O   UNL     1     111.014 125.447 136.354  0.00  0.00    +0.000 OA
ATOM      2  O   UNL     1     113.819 124.979 136.755  0.00  0.00    +0.000 OA
ATOM      3  O   UNL     1     111.905 122.824 137.253  0.00  0.00    +0.000 OA
ATOM      4  C   UNL     1     111.961 126.490 136.115  0.00  0.00    +0.000 A 
ATOM      5  C   UNL     1     112.575 125.981 136.329  0.00  0.00    +0.000 A 
ATOM      6  C   UNL     1     111.180 126.222 136.127  0.00  0.00    +0.000 A 
ATOM      7  C   UNL     1     112.407 125.206 136.556  0.00  0.00    +0.000 A 
ATOM      8  C   UNL     1     111.627 124.938 136.568  0.00  0.00    +0.000 A 
ATOM      9  C   UNL     1     113.349 126.246 136.317  0.00  0.00    +0.000 A 
ATOM     10  C   UNL     1     113.055 124.685 136.777  0.00  0.00    +0.000 A 
ATOM     11  C   UNL     1     113.964 125.750 136.527  0.00  0.00    +0.000 A 
ATOM     12  C   UNL     1     111.440 124.133 136.802  0.00  0.00    +0.000 A 
ATOM     13  C   UNL     1     112.887 123.877 137.013  0.00  0.00    +0.000 A 
ATOM     14  C   UNL     1     112.075 123.599 137.026  0.00  0.00    +0.000 A 
ATOM     15  C   UNL     1     114.739 126.032 136.510  0.00  0.00    +0.000 C 
ENDROOT
BRANCH   6  18
ATOM     16  O   UNL     1     108.841 127.709 136.824  0.00  0.00    +0.000 OA
ATOM     17  O   UNL     1     108.727 128.257 135.272  0.00  0.00    +0.000 OA
ATOM     18  C   UNL     1     110.568 126.731 135.914  0.00  0.00    +0.000 A 
ATOM     19  C   UNL     1     110.011 126.965 136.476  0.00  0.00    +0.000 A 
ATOM     20  C   UNL     1     110.510 127.005 135.137  0.00  0.00    +0.000 A 
ATOM     21  C   UNL     1     109.397 127.474 136.262  0.00  0.00    +0.000 A 
ATOM     22  C   UNL     1     109.897 127.513 134.923  0.00  0.00    +0.000 A 
ATOM     23  C   UNL     1     109.341 127.748 135.486  0.00  0.00    +0.000 A 
ENDBRANCH   6  18
BRANCH   4  24
ATOM     24  O   UNL     1     112.129 127.265 135.889  0.00  0.00    +0.000 OA
BRANCH  24  33
ATOM     25  O   UNL     1     112.108 127.724 137.241  0.00  0.00    +0.000 OA
ATOM     26  O   UNL     1     112.976 129.503 138.161  0.00  0.00    +0.000 OA
ATOM     27  O   UNL     1     113.443 129.704 136.591  0.00  0.00    +0.000 OA
ATOM     28  O   UNL     1     113.019 128.585 135.455  0.00  0.00    +0.000 OA
ATOM     29  C   UNL     1     112.319 128.283 137.809  0.00  0.00    +0.000 C 
ATOM     30  C   UNL     1     112.764 128.943 137.593  0.00  0.00    +0.000 C 
ATOM     31  C   UNL     1     112.998 129.044 136.807  0.00  0.00    +0.000 C 
ATOM     32  C   UNL     1     112.786 128.484 136.239  0.00  0.00    +0.000 C 
ATOM     33  C   UNL     1     112.341 127.824 136.457  0.00  0.00    +0.000 C 
BRANCH  29  34
ATOM     34  C   UNL     1     112.086 128.183 138.595  0.00  0.00    +0.000 C 
BRANCH  34  35
ATOM     35  O   UNL     1     112.255 127.478 138.988  0.00  0.00    +0.000 OA
BRANCH  35  41
ATOM     36  O   UNL     1     111.111 127.601 139.835  0.00  0.00    +0.000 OA
ATOM     37  O   UNL     1     112.972 126.492 140.100  0.00  0.00    +0.000 OA
ATOM     38  O   UNL     1     112.186 126.122 141.503  0.00  0.00    +0.000 OA
ATOM     39  O   UNL     1     110.683 126.739 141.795  0.00  0.00    +0.000 OA
ATOM     40  C   UNL     1     112.221 126.800 140.245  0.00  0.00    +0.000 C 
ATOM     41  C   UNL     1     111.862 127.293 139.689  0.00  0.00    +0.000 C 
ATOM     42  C   UNL     1     111.828 126.615 140.947  0.00  0.00    +0.000 C 
ATOM     43  C   UNL     1     111.076 126.924 141.092  0.00  0.00    +0.000 C 
ATOM     44  C   UNL     1     110.718 127.417 140.536  0.00  0.00    +0.000 C 
ATOM     45  C   UNL     1     109.966 127.725 140.683  0.00  0.00    +0.000 C 
ENDBRANCH  35  41
ENDBRANCH  34  35
ENDBRANCH  29  34
ENDBRANCH  24  33
ENDBRANCH   4  24
TORSDOF 6
ENDMDL
MODEL 6
REMARK VINA RESULT:     -10.8      1.620      3.896
REMARK  Name = 11192981
REMARK  6 active torsions:
REMARK  status: ('A' for Active; 'I' for Inactive)
REMARK    1  A    between atoms: O_2  and  C_21
REMARK    2  A    between atoms: O_2  and  C_25
REMARK    3  A    between atoms: O_4  and  C_22
REMARK    4  A    between atoms: O_4  and  C_28
REMARK    5  A    between atoms: C_16  and  C_25
REMARK    6  A    between atoms: C_30  and  C_35
REMARK                            x       y       z     vdW  Elec       q    Type
REMARK                         _______ _______ _______ _____ _____    ______ ____
ROOT
ATOM      1  O   UNL     1     111.838 128.734 135.653  0.00  0.00    +0.000 OA
ATOM      2  O   UNL     1     114.262 127.297 136.209  0.00  0.00    +0.000 OA
ATOM      3  O   UNL     1     114.402 129.998 135.094  0.00  0.00    +0.000 OA
ATOM      4  C   UNL     1     111.786 127.414 136.197  0.00  0.00    +0.000 A 
ATOM      5  C   UNL     1     112.611 127.382 136.198  0.00  0.00    +0.000 A 
ATOM      6  C   UNL     1     111.400 128.090 135.924  0.00  0.00    +0.000 A 
ATOM      7  C   UNL     1     113.048 128.026 135.926  0.00  0.00    +0.000 A 
ATOM      8  C   UNL     1     112.662 128.702 135.654  0.00  0.00    +0.000 A 
ATOM      9  C   UNL     1     112.993 126.711 136.469  0.00  0.00    +0.000 A 
ATOM     10  C   UNL     1     113.907 127.981 135.932  0.00  0.00    +0.000 A 
ATOM     11  C   UNL     1     113.810 126.669 136.474  0.00  0.00    +0.000 A 
ATOM     12  C   UNL     1     113.108 129.379 135.368  0.00  0.00    +0.000 A 
ATOM     13  C   UNL     1     114.368 128.648 135.651  0.00  0.00    +0.000 A 
ATOM     14  C   UNL     1     113.966 129.352 135.367  0.00  0.00    +0.000 A 
ATOM     15  C   UNL     1     114.181 125.986 136.750  0.00  0.00    +0.000 C 
ENDROOT
BRANCH   6  18
ATOM     16  O   UNL     1     108.963 129.159 136.967  0.00  0.00    +0.000 OA
ATOM     17  O   UNL     1     108.102 128.217 135.921  0.00  0.00    +0.000 OA
ATOM     18  C   UNL     1     110.576 128.121 135.924  0.00  0.00    +0.000 A 
ATOM     19  C   UNL     1     110.182 128.624 136.446  0.00  0.00    +0.000 A 
ATOM     20  C   UNL     1     110.145 127.650 135.401  0.00  0.00    +0.000 A 
ATOM     21  C   UNL     1     109.357 128.656 136.445  0.00  0.00    +0.000 A 
ATOM     22  C   UNL     1     109.321 127.682 135.400  0.00  0.00    +0.000 A 
ATOM     23  C   UNL     1     108.927 128.185 135.922  0.00  0.00    +0.000 A 
ENDBRANCH   6  18
BRANCH   4  24
ATOM     24  O   UNL     1     111.349 126.769 136.469  0.00  0.00    +0.000 OA
BRANCH  24  33
ATOM     25  O   UNL     1     111.569 127.158 137.826  0.00  0.00    +0.000 OA
ATOM     26  O   UNL     1     111.273 126.065 139.692  0.00  0.00    +0.000 OA
ATOM     27  O   UNL     1     110.795 124.934 138.589  0.00  0.00    +0.000 OA
ATOM     28  O   UNL     1     110.833 125.287 136.977  0.00  0.00    +0.000 OA
ATOM     29  C   UNL     1     111.550 126.982 138.631  0.00  0.00    +0.000 C 
ATOM     30  C   UNL     1     111.292 126.241 138.886  0.00  0.00    +0.000 C 
ATOM     31  C   UNL     1     111.053 125.675 138.334  0.00  0.00    +0.000 C 
ATOM     32  C   UNL     1     111.072 125.852 137.528  0.00  0.00    +0.000 C 
ATOM     33  C   UNL     1     111.330 126.593 137.275  0.00  0.00    +0.000 C 
BRANCH  29  34
ATOM     34  C   UNL     1     111.789 127.547 139.183  0.00  0.00    +0.000 C 
BRANCH  34  35
ATOM     35  O   UNL     1     111.434 128.292 139.192  0.00  0.00    +0.000 OA
BRANCH  35  41
ATOM     36  O   UNL     1     112.656 129.024 139.305  0.00  0.00    +0.000 OA
ATOM     37  O   UNL     1     110.662 129.441 140.090  0.00  0.00    +0.000 OA
ATOM     38  O   UNL     1     111.499 130.747 140.653  0.00  0.00    +0.000 OA
ATOM     39  O   UNL     1     113.106 130.905 140.317  0.00  0.00    +0.000 OA
ATOM     40  C   UNL     1     111.466 129.519 139.922  0.00  0.00    +0.000 C 
ATOM     41  C   UNL     1     111.852 128.945 139.473  0.00  0.00    +0.000 C 
ATOM     42  C   UNL     1     111.884 130.173 140.204  0.00  0.00    +0.000 C 
ATOM     43  C   UNL     1     112.688 130.251 140.035  0.00  0.00    +0.000 C 
ATOM     44  C   UNL     1     113.074 129.676 139.586  0.00  0.00    +0.000 C 
ATOM     45  C   UNL     1     113.878 129.756 139.419  0.00  0.00    +0.000 C 
ENDBRANCH  35  41
ENDBRANCH  34  35
ENDBRANCH  29  34
ENDBRANCH  24  33
ENDBRANCH   4  24
TORSDOF 6
ENDMDL
MODEL 7
REMARK VINA RESULT:     -10.7      1.688      3.969
REMARK  Name = 11192981
REMARK  6 active torsions:
REMARK  status: ('A' for Active; 'I' for Inactive)
REMARK    1  A    between atoms: O_2  and  C_21
REMARK    2  A    between atoms: O_2  and  C_25
REMARK    3  A    between atoms: O_4  and  C_22
REMARK    4  A    between atoms: O_4  and  C_28
REMARK    5  A    between atoms: C_16  and  C_25
REMARK    6  A    between atoms: C_30  and  C_35
REMARK                            x       y       z     vdW  Elec       q    Type
REMARK                         _______ _______ _______ _____ _____    ______ ____
ROOT
ATOM      1  O   UNL     1     113.940 127.391 136.071  0.00  0.00    +0.000 OA
ATOM      2  O   UNL     1     111.708 129.106 135.501  0.00  0.00    +0.000 OA
ATOM      3  O   UNL     1     114.411 129.957 134.778  0.00  0.00    +0.000 OA
ATOM      4  C   UNL     1     112.614 126.989 136.419  0.00  0.00    +0.000 A 
ATOM      5  C   UNL     1     112.319 127.696 136.111  0.00  0.00    +0.000 A 
ATOM      6  C   UNL     1     113.424 126.836 136.399  0.00  0.00    +0.000 A 
ATOM      7  C   UNL     1     112.835 128.250 135.784  0.00  0.00    +0.000 A 
ATOM      8  C   UNL     1     113.646 128.097 135.764  0.00  0.00    +0.000 A 
ATOM      9  C   UNL     1     111.515 127.846 136.132  0.00  0.00    +0.000 A 
ATOM     10  C   UNL     1     112.516 128.983 135.467  0.00  0.00    +0.000 A 
ATOM     11  C   UNL     1     111.213 128.544 135.830  0.00  0.00    +0.000 A 
ATOM     12  C   UNL     1     114.194 128.667 135.426  0.00  0.00    +0.000 A 
ATOM     13  C   UNL     1     113.049 129.563 135.125  0.00  0.00    +0.000 A 
ATOM     14  C   UNL     1     113.893 129.405 135.104  0.00  0.00    +0.000 A 
ATOM     15  C   UNL     1     110.400 128.682 135.857  0.00  0.00    +0.000 C 
ENDROOT
BRANCH   6  18
ATOM     16  O   UNL     1     114.923 125.437 138.390  0.00  0.00    +0.000 OA
ATOM     17  O   UNL     1     114.602 124.009 137.628  0.00  0.00    +0.000 OA
ATOM     18  C   UNL     1     113.718 126.130 136.706  0.00  0.00    +0.000 A 
ATOM     19  C   UNL     1     114.173 126.137 137.394  0.00  0.00    +0.000 A 
ATOM     20  C   UNL     1     113.558 125.415 136.325  0.00  0.00    +0.000 A 
ATOM     21  C   UNL     1     114.468 125.430 137.702  0.00  0.00    +0.000 A 
ATOM     22  C   UNL     1     113.852 124.709 136.632  0.00  0.00    +0.000 A 
ATOM     23  C   UNL     1     114.307 124.716 137.321  0.00  0.00    +0.000 A 
ENDBRANCH   6  18
BRANCH   4  24
ATOM     24  O   UNL     1     112.097 126.435 136.746  0.00  0.00    +0.000 OA
BRANCH  24  33
ATOM     25  O   UNL     1     112.038 127.182 137.962  0.00  0.00    +0.000 OA
ATOM     26  O   UNL     1     110.713 127.002 139.687  0.00  0.00    +0.000 OA
ATOM     27  O   UNL     1     110.139 125.791 138.725  0.00  0.00    +0.000 OA
ATOM     28  O   UNL     1     110.831 125.507 137.255  0.00  0.00    +0.000 OA
ATOM     29  C   UNL     1     111.692 127.324 138.697  0.00  0.00    +0.000 C 
ATOM     30  C   UNL     1     111.059 126.861 138.952  0.00  0.00    +0.000 C 
ATOM     31  C   UNL     1     110.772 126.254 138.470  0.00  0.00    +0.000 C 
ATOM     32  C   UNL     1     111.118 126.112 137.735  0.00  0.00    +0.000 C 
ATOM     33  C   UNL     1     111.751 126.577 137.481  0.00  0.00    +0.000 C 
BRANCH  29  34
ATOM     34  C   UNL     1     111.979 127.930 139.179  0.00  0.00    +0.000 C 
BRANCH  34  35
ATOM     35  O   UNL     1     112.771 127.935 139.408  0.00  0.00    +0.000 OA
BRANCH  35  41
ATOM     36  O   UNL     1     113.028 129.295 139.053  0.00  0.00    +0.000 OA
ATOM     37  O   UNL     1     113.793 128.078 140.696  0.00  0.00    +0.000 OA
ATOM     38  O   UNL     1     114.560 129.510 140.985  0.00  0.00    +0.000 OA
ATOM     39  O   UNL     1     114.306 130.798 139.985  0.00  0.00    +0.000 OA
ATOM     40  C   UNL     1     113.665 128.722 140.196  0.00  0.00    +0.000 C 
ATOM     41  C   UNL     1     113.155 128.650 139.552  0.00  0.00    +0.000 C 
ATOM     42  C   UNL     1     114.049 129.438 140.341  0.00  0.00    +0.000 C 
ATOM     43  C   UNL     1     113.922 130.082 139.841  0.00  0.00    +0.000 C 
ATOM     44  C   UNL     1     113.411 130.010 139.197  0.00  0.00    +0.000 C 
ATOM     45  C   UNL     1     113.285 130.655 138.697  0.00  0.00    +0.000 C 
ENDBRANCH  35  41
ENDBRANCH  34  35
ENDBRANCH  29  34
ENDBRANCH  24  33
ENDBRANCH   4  24
TORSDOF 6
ENDMDL
MODEL 8
REMARK VINA RESULT:     -10.7      1.246      3.044
REMARK  Name = 11192981
REMARK  6 active torsions:
REMARK  status: ('A' for Active; 'I' for Inactive)
REMARK    1  A    between atoms: O_2  and  C_21
REMARK    2  A    between atoms: O_2  and  C_25
REMARK    3  A    between atoms: O_4  and  C_22
REMARK    4  A    between atoms: O_4  and  C_28
REMARK    5  A    between atoms: C_16  and  C_25
REMARK    6  A    between atoms: C_30  and  C_35
REMARK                            x       y       z     vdW  Elec       q    Type
REMARK                         _______ _______ _______ _____ _____    ______ ____
ROOT
ATOM      1  O   UNL     1     111.308 128.341 136.195  0.00  0.00    +0.000 OA
ATOM      2  O   UNL     1     110.350 125.636 136.069  0.00  0.00    +0.000 OA
ATOM      3  O   UNL     1     108.438 127.847 136.168  0.00  0.00    +0.000 OA
ATOM      4  C   UNL     1     112.230 127.250 136.146  0.00  0.00    +0.000 A 
ATOM      5  C   UNL     1     111.599 126.718 136.121  0.00  0.00    +0.000 A 
ATOM      6  C   UNL     1     112.084 128.061 136.184  0.00  0.00    +0.000 A 
ATOM      7  C   UNL     1     110.823 126.998 136.132  0.00  0.00    +0.000 A 
ATOM      8  C   UNL     1     110.678 127.810 136.170  0.00  0.00    +0.000 A 
ATOM      9  C   UNL     1     111.744 125.914 136.084  0.00  0.00    +0.000 A 
ATOM     10  C   UNL     1     110.175 126.435 136.105  0.00  0.00    +0.000 A 
ATOM     11  C   UNL     1     111.126 125.379 136.058  0.00  0.00    +0.000 A 
ATOM     12  C   UNL     1     109.873 128.113 136.182  0.00  0.00    +0.000 A 
ATOM     13  C   UNL     1     109.364 126.720 136.117  0.00  0.00    +0.000 A 
ATOM     14  C   UNL     1     109.213 127.565 136.156  0.00  0.00    +0.000 A 
ATOM     15  C   UNL     1     111.288 124.571 136.021  0.00  0.00    +0.000 C 
ENDROOT
BRANCH   6  18
ATOM     16  O   UNL     1     113.619 130.015 137.597  0.00  0.00    +0.000 OA
ATOM     17  O   UNL     1     114.607 130.187 136.287  0.00  0.00    +0.000 OA
ATOM     18  C   UNL     1     112.714 128.592 136.209  0.00  0.00    +0.000 A 
ATOM     19  C   UNL     1     112.851 129.038 136.890  0.00  0.00    +0.000 A 
ATOM     20  C   UNL     1     113.209 128.679 135.554  0.00  0.00    +0.000 A 
ATOM     21  C   UNL     1     113.482 129.569 136.916  0.00  0.00    +0.000 A 
ATOM     22  C   UNL     1     113.839 129.210 135.580  0.00  0.00    +0.000 A 
ATOM     23  C   UNL     1     113.976 129.655 136.261  0.00  0.00    +0.000 A 
ENDBRANCH   6  18
BRANCH   4  24
ATOM     24  O   UNL     1     113.005 126.970 136.135  0.00  0.00    +0.000 OA
BRANCH  24  33
ATOM     25  O   UNL     1     113.003 126.769 137.549  0.00  0.00    +0.000 OA
ATOM     26  O   UNL     1     114.288 125.546 138.821  0.00  0.00    +0.000 OA
ATOM     27  O   UNL     1     114.935 125.236 137.335  0.00  0.00    +0.000 OA
ATOM     28  O   UNL     1     114.293 125.948 135.992  0.00  0.00    +0.000 OA
ATOM     29  C   UNL     1     113.324 126.413 138.221  0.00  0.00    +0.000 C 
ATOM     30  C   UNL     1     113.968 125.902 138.150  0.00  0.00    +0.000 C 
ATOM     31  C   UNL     1     114.291 125.747 137.406  0.00  0.00    +0.000 C 
ATOM     32  C   UNL     1     113.970 126.103 136.734  0.00  0.00    +0.000 C 
ATOM     33  C   UNL     1     113.326 126.614 136.806  0.00  0.00    +0.000 C 
BRANCH  29  34
ATOM     34  C   UNL     1     113.001 126.568 138.964  0.00  0.00    +0.000 C 
BRANCH  34  35
ATOM     35  O   UNL     1     112.204 126.410 139.109  0.00  0.00    +0.000 OA
BRANCH  35  41
ATOM     36  O   UNL     1     112.257 127.110 140.354  0.00  0.00    +0.000 OA
ATOM     37  O   UNL     1     110.789 125.697 139.570  0.00  0.00    +0.000 OA
ATOM     38  O   UNL     1     110.135 126.041 141.045  0.00  0.00    +0.000 OA
ATOM     39  O   UNL     1     110.895 127.098 142.059  0.00  0.00    +0.000 OA
ATOM     40  C   UNL     1     111.170 126.226 140.077  0.00  0.00    +0.000 C 
ATOM     41  C   UNL     1     111.877 126.582 139.846  0.00  0.00    +0.000 C 
ATOM     42  C   UNL     1     110.842 126.397 140.815  0.00  0.00    +0.000 C 
ATOM     43  C   UNL     1     111.223 126.926 141.321  0.00  0.00    +0.000 C 
ATOM     44  C   UNL     1     111.930 127.282 141.091  0.00  0.00    +0.000 C 
ATOM     45  C   UNL     1     112.310 127.810 141.598  0.00  0.00    +0.000 C 
ENDBRANCH  35  41
ENDBRANCH  34  35
ENDBRANCH  29  34
ENDBRANCH  24  33
ENDBRANCH   4  24
TORSDOF 6
ENDMDL
MODEL 9
REMARK VINA RESULT:     -10.7      1.812      2.417
REMARK  Name = 11192981
REMARK  6 active torsions:
REMARK  status: ('A' for Active; 'I' for Inactive)
REMARK    1  A    between atoms: O_2  and  C_21
REMARK    2  A    between atoms: O_2  and  C_25
REMARK    3  A    between atoms: O_4  and  C_22
REMARK    4  A    between atoms: O_4  and  C_28
REMARK    5  A    between atoms: C_16  and  C_25
REMARK    6  A    between atoms: C_30  and  C_35
REMARK                            x       y       z     vdW  Elec       q    Type
REMARK                         _______ _______ _______ _____ _____    ______ ____
ROOT
ATOM      1  O   UNL     1     114.068 127.536 136.266  0.00  0.00    +0.000 OA
ATOM      2  O   UNL     1     111.714 125.908 136.502  0.00  0.00    +0.000 OA
ATOM      3  O   UNL     1     114.298 124.854 137.378  0.00  0.00    +0.000 OA
ATOM      4  C   UNL     1     112.799 128.037 135.842  0.00  0.00    +0.000 A 
ATOM      5  C   UNL     1     112.444 127.325 136.064  0.00  0.00    +0.000 A 
ATOM      6  C   UNL     1     113.611 128.142 135.943  0.00  0.00    +0.000 A 
ATOM      7  C   UNL     1     112.902 126.720 136.387  0.00  0.00    +0.000 A 
ATOM      8  C   UNL     1     113.714 126.825 136.488  0.00  0.00    +0.000 A 
ATOM      9  C   UNL     1     111.639 127.221 135.964  0.00  0.00    +0.000 A 
ATOM     10  C   UNL     1     112.522 125.983 136.614  0.00  0.00    +0.000 A 
ATOM     11  C   UNL     1     111.279 126.520 136.181  0.00  0.00    +0.000 A 
ATOM     12  C   UNL     1     114.202 126.201 136.823  0.00  0.00    +0.000 A 
ATOM     13  C   UNL     1     112.993 125.349 136.951  0.00  0.00    +0.000 A 
ATOM     14  C   UNL     1     113.838 125.458 137.056  0.00  0.00    +0.000 A 
ATOM     15  C   UNL     1     110.465 126.430 136.073  0.00  0.00    +0.000 C 
ENDROOT
BRANCH   6  18
ATOM     16  O   UNL     1     114.890 130.597 136.654  0.00  0.00    +0.000 OA
ATOM     17  O   UNL     1     115.028 130.988 135.057  0.00  0.00    +0.000 OA
ATOM     18  C   UNL     1     113.965 128.853 135.722  0.00  0.00    +0.000 A 
ATOM     19  C   UNL     1     114.251 129.369 136.299  0.00  0.00    +0.000 A 
ATOM     20  C   UNL     1     114.034 129.049 134.923  0.00  0.00    +0.000 A 
ATOM     21  C   UNL     1     114.605 130.081 136.077  0.00  0.00    +0.000 A 
ATOM     22  C   UNL     1     114.388 129.759 134.702  0.00  0.00    +0.000 A 
ATOM     23  C   UNL     1     114.674 130.276 135.278  0.00  0.00    +0.000 A 
ENDBRANCH   6  18
BRANCH   4  24
ATOM     24  O   UNL     1     112.341 128.642 135.520  0.00  0.00    +0.000 OA
BRANCH  24  33
ATOM     25  O   UNL     1     111.912 129.044 136.821  0.00  0.00    +0.000 OA
ATOM     26  O   UNL     1     110.298 130.375 137.447  0.00  0.00    +0.000 OA
ATOM     27  O   UNL     1     110.135 130.436 135.806  0.00  0.00    +0.000 OA
ATOM     28  O   UNL     1     111.157 129.570 134.843  0.00  0.00    +0.000 OA
ATOM     29  C   UNL     1     111.401 129.477 137.303  0.00  0.00    +0.000 C 
ATOM     30  C   UNL     1     110.809 129.941 136.965  0.00  0.00    +0.000 C 
ATOM     31  C   UNL     1     110.728 129.972 136.144  0.00  0.00    +0.000 C 
ATOM     32  C   UNL     1     111.238 129.539 135.662  0.00  0.00    +0.000 C 
ATOM     33  C   UNL     1     111.830 129.075 136.002  0.00  0.00    +0.000 C 
BRANCH  29  34
ATOM     34  C   UNL     1     111.483 129.447 138.124  0.00  0.00    +0.000 C 
BRANCH  34  35
ATOM     35  O   UNL     1     112.164 129.744 138.483  0.00  0.00    +0.000 OA
BRANCH  35  41
ATOM     36  O   UNL     1     112.345 128.619 139.346  0.00  0.00    +0.000 OA
ATOM     37  O   UNL     1     112.843 130.727 139.621  0.00  0.00    +0.000 OA
ATOM     38  O   UNL     1     113.365 130.094 141.052  0.00  0.00    +0.000 OA
ATOM     39  O   UNL     1     113.207 128.478 141.347  0.00  0.00    +0.000 OA
ATOM     40  C   UNL     1     112.764 129.919 139.767  0.00  0.00    +0.000 C 
ATOM     41  C   UNL     1     112.424 129.427 139.198  0.00  0.00    +0.000 C 
ATOM     42  C   UNL     1     113.025 129.602 140.484  0.00  0.00    +0.000 C 
ATOM     43  C   UNL     1     112.946 128.795 140.630  0.00  0.00    +0.000 C 
ATOM     44  C   UNL     1     112.606 128.303 140.061  0.00  0.00    +0.000 C 
ATOM     45  C   UNL     1     112.527 127.495 140.209  0.00  0.00    +0.000 C 
ENDBRANCH  35  41
ENDBRANCH  34  35
ENDBRANCH  29  34
ENDBRANCH  24  33
ENDBRANCH   4  24
TORSDOF 6
ENDMDL
MODEL 10
REMARK VINA RESULT:     -10.5      1.117      3.711
REMARK  Name = 11192981
REMARK  6 active torsions:
REMARK  status: ('A' for Active; 'I' for Inactive)
REMARK    1  A    between atoms: O_2  and  C_21
REMARK    2  A    between atoms: O_2  and  C_25
REMARK    3  A    between atoms: O_4  and  C_22
REMARK    4  A    between atoms: O_4  and  C_28
REMARK    5  A    between atoms: C_16  and  C_25
REMARK    6  A    between atoms: C_30  and  C_35
REMARK                            x       y       z     vdW  Elec       q    Type
REMARK                         _______ _______ _______ _____ _____    ______ ____
ROOT
ATOM      1  O   UNL     1     111.384 125.630 138.187  0.00  0.00    +0.000 OA
ATOM      2  O   UNL     1     111.259 125.031 135.381  0.00  0.00    +0.000 OA
ATOM      3  O   UNL     1     113.476 123.998 136.986  0.00  0.00    +0.000 OA
ATOM      4  C   UNL     1     110.307 126.127 137.390  0.00  0.00    +0.000 A 
ATOM      5  C   UNL     1     110.630 125.760 136.725  0.00  0.00    +0.000 A 
ATOM      6  C   UNL     1     110.684 126.063 138.121  0.00  0.00    +0.000 A 
ATOM      7  C   UNL     1     111.330 125.327 136.792  0.00  0.00    +0.000 A 
ATOM      8  C   UNL     1     111.706 125.263 137.523  0.00  0.00    +0.000 A 
ATOM      9  C   UNL     1     110.256 125.824 136.000  0.00  0.00    +0.000 A 
ATOM     10  C   UNL     1     111.656 124.949 136.093  0.00  0.00    +0.000 A 
ATOM     11  C   UNL     1     110.568 125.464 135.336  0.00  0.00    +0.000 A 
ATOM     12  C   UNL     1     112.436 124.815 137.605  0.00  0.00    +0.000 A 
ATOM     13  C   UNL     1     112.384 124.497 136.156  0.00  0.00    +0.000 A 
ATOM     14  C   UNL     1     112.776 124.430 136.917  0.00  0.00    +0.000 A 
ATOM     15  C   UNL     1     110.179 125.538 134.612  0.00  0.00    +0.000 C 
ENDROOT
BRANCH   6  18
ATOM     16  O   UNL     1     110.822 128.071 140.149  0.00  0.00    +0.000 OA
ATOM     17  O   UNL     1     109.394 127.534 140.778  0.00  0.00    +0.000 OA
ATOM     18  C   UNL     1     110.362 126.430 138.785  0.00  0.00    +0.000 A 
ATOM     19  C   UNL     1     110.753 127.066 139.135  0.00  0.00    +0.000 A 
ATOM     20  C   UNL     1     109.648 126.162 139.100  0.00  0.00    +0.000 A 
ATOM     21  C   UNL     1     110.430 127.435 139.799  0.00  0.00    +0.000 A 
ATOM     22  C   UNL     1     109.325 126.529 139.763  0.00  0.00    +0.000 A 
ATOM     23  C   UNL     1     109.717 127.166 140.113  0.00  0.00    +0.000 A 
ENDBRANCH   6  18
BRANCH   4  24
ATOM     24  O   UNL     1     109.608 126.560 137.323  0.00  0.00    +0.000 OA
BRANCH  24  33
ATOM     25  O   UNL     1     110.298 127.748 136.932  0.00  0.00    +0.000 OA
ATOM     26  O   UNL     1     109.618 129.494 135.814  0.00  0.00    +0.000 OA
ATOM     27  O   UNL     1     108.241 128.585 135.840  0.00  0.00    +0.000 OA
ATOM     28  O   UNL     1     108.237 127.117 136.594  0.00  0.00    +0.000 OA
ATOM     29  C   UNL     1     110.301 128.481 136.555  0.00  0.00    +0.000 C 
ATOM     30  C   UNL     1     109.615 128.761 136.191  0.00  0.00    +0.000 C 
ATOM     31  C   UNL     1     108.927 128.305 136.204  0.00  0.00    +0.000 C 
ATOM     32  C   UNL     1     108.924 127.572 136.581  0.00  0.00    +0.000 C 
ATOM     33  C   UNL     1     109.611 127.293 136.945  0.00  0.00    +0.000 C 
BRANCH  29  34
ATOM     34  C   UNL     1     110.989 128.937 136.542  0.00  0.00    +0.000 C 
BRANCH  34  35
ATOM     35  O   UNL     1     111.684 128.624 136.225  0.00  0.00    +0.000 OA
BRANCH  35  41
ATOM     36  O   UNL     1     112.433 129.704 136.788  0.00  0.00    +0.000 OA
ATOM     37  O   UNL     1     113.032 128.108 135.425  0.00  0.00    +0.000 OA
ATOM     38  O   UNL     1     114.454 128.929 135.588  0.00  0.00    +0.000 OA
ATOM     39  O   UNL     1     114.528 130.266 136.550  0.00  0.00    +0.000 OA
ATOM     40  C   UNL     1     113.068 128.776 135.907  0.00  0.00    +0.000 C 
ATOM     41  C   UNL     1     112.395 129.035 136.307  0.00  0.00    +0.000 C 
ATOM     42  C   UNL     1     113.780 129.187 135.988  0.00  0.00    +0.000 C 
ATOM     43  C   UNL     1     113.817 129.856 136.469  0.00  0.00    +0.000 C 
ATOM     44  C   UNL     1     113.143 130.114 136.869  0.00  0.00    +0.000 C 
ATOM     45  C   UNL     1     113.181 130.783 137.351  0.00  0.00    +0.000 C 
ENDBRANCH  35  41
ENDBRANCH  34  35
ENDBRANCH  29  34
ENDBRANCH  24  33
ENDBRANCH   4  24
TORSDOF 6
ENDMDL
