MODEL 1
REMARK VINA RESULT:      -9.4      0.000      0.000
REMARK  Name = 42607796
REMARK  4 active torsions:
REMARK  status: ('A' for Active; 'I' for Inactive)
REMARK    1  A    between atoms: O_2  and  C_13
REMARK    2  A    between atoms: O_2  and  C_15
REMARK    3  A    between atoms: C_12  and  C_14
REMARK    4  A    between atoms: C_16  and  C_24
REMARK                            x       y       z     vdW  Elec       q    Type
REMARK                         _______ _______ _______ _____ _____    ______ ____
ROOT
ATOM      1  O   UNL     1     112.434 126.418 136.300  0.00  0.00    +0.000 OA
ATOM      2  O   UNL     1     110.862 124.590 135.739  0.00  0.00    +0.000 OA
ATOM      3  C   UNL     1     110.756 127.598 135.412  0.00  0.00    +0.000 A 
ATOM      4  C   UNL     1     112.636 125.635 136.465  0.00  0.00    +0.000 C 
ATOM      5  C   UNL     1     112.111 125.026 136.278  0.00  0.00    +0.000 C 
ATOM      6  C   UNL     1     111.709 126.592 135.947  0.00  0.00    +0.000 A 
ATOM      7  C   UNL     1     111.185 125.983 135.760  0.00  0.00    +0.000 A 
ATOM      8  C   UNL     1     111.511 127.411 135.780  0.00  0.00    +0.000 A 
ATOM      9  C   UNL     1     111.386 125.200 135.926  0.00  0.00    +0.000 C 
ATOM     10  C   UNL     1     110.211 126.963 135.218  0.00  0.00    +0.000 A 
ATOM     11  C   UNL     1     110.426 126.150 135.393  0.00  0.00    +0.000 A 
ENDROOT
BRANCH   4  12
ATOM     12  C   UNL     1     113.361 125.461 136.818  0.00  0.00    +0.000 A 
ATOM     13  C   UNL     1     113.460 125.564 137.630  0.00  0.00    +0.000 A 
ATOM     14  C   UNL     1     113.987 125.185 136.357  0.00  0.00    +0.000 A 
ATOM     15  C   UNL     1     114.185 125.390 137.982  0.00  0.00    +0.000 A 
ATOM     16  C   UNL     1     114.713 125.011 136.709  0.00  0.00    +0.000 A 
ATOM     17  C   UNL     1     114.812 125.114 137.522  0.00  0.00    +0.000 A 
ENDBRANCH   4  12
BRANCH   3  18
ATOM     18  O   UNL     1     110.557 128.382 135.248  0.00  0.00    +0.000 OA
BRANCH  18  27
ATOM     19  O   UNL     1     110.155 128.766 136.564  0.00  0.00    +0.000 OA
ATOM     20  O   UNL     1     108.276 130.064 135.610  0.00  0.00    +0.000 OA
ATOM     21  O   UNL     1     108.500 130.016 137.244  0.00  0.00    +0.000 OA
ATOM     22  O   UNL     1     109.305 129.247 134.612  0.00  0.00    +0.000 OA
ATOM     23  C   UNL     1     108.902 129.632 135.928  0.00  0.00    +0.000 C 
ATOM     24  C   UNL     1     109.015 129.607 136.745  0.00  0.00    +0.000 C 
ATOM     25  C   UNL     1     109.417 129.223 135.429  0.00  0.00    +0.000 C 
ATOM     26  C   UNL     1     109.641 129.174 137.063  0.00  0.00    +0.000 C 
ATOM     27  C   UNL     1     110.044 128.790 135.747  0.00  0.00    +0.000 C 
BRANCH  26  29
ATOM     28  O   UNL     1     110.477 129.375 138.204  0.00  0.00    +0.000 OA
ATOM     29  C   UNL     1     109.753 129.150 137.879  0.00  0.00    +0.000 C 
ENDBRANCH  26  29
ENDBRANCH  18  27
ENDBRANCH   3  18
TORSDOF 4
ENDMDL
MODEL 2
REMARK VINA RESULT:      -9.1      1.142      1.840
REMARK  Name = 42607796
REMARK  4 active torsions:
REMARK  status: ('A' for Active; 'I' for Inactive)
REMARK    1  A    between atoms: O_2  and  C_13
REMARK    2  A    between atoms: O_2  and  C_15
REMARK    3  A    between atoms: C_12  and  C_14
REMARK    4  A    between atoms: C_16  and  C_24
REMARK                            x       y       z     vdW  Elec       q    Type
REMARK                         _______ _______ _______ _____ _____    ______ ____
ROOT
ATOM      1  O   UNL     1     112.726 126.954 136.342  0.00  0.00    +0.000 OA
ATOM      2  O   UNL     1     114.147 128.901 135.778  0.00  0.00    +0.000 OA
ATOM      3  C   UNL     1     111.184 128.341 135.508  0.00  0.00    +0.000 A 
ATOM      4  C   UNL     1     113.537 126.929 136.489  0.00  0.00    +0.000 C 
ATOM      5  C   UNL     1     114.011 127.578 136.301  0.00  0.00    +0.000 C 
ATOM      6  C   UNL     1     112.388 127.628 136.006  0.00  0.00    +0.000 A 
ATOM      7  C   UNL     1     112.862 128.277 135.818  0.00  0.00    +0.000 A 
ATOM      8  C   UNL     1     111.542 127.642 135.857  0.00  0.00    +0.000 A 
ATOM      9  C   UNL     1     113.673 128.252 135.966  0.00  0.00    +0.000 C 
ATOM     10  C   UNL     1     111.678 129.016 135.312  0.00  0.00    +0.000 A 
ATOM     11  C   UNL     1     112.522 128.984 135.468  0.00  0.00    +0.000 A 
ENDROOT
BRANCH   4  12
ATOM     12  C   UNL     1     113.875 126.255 136.825  0.00  0.00    +0.000 A 
ATOM     13  C   UNL     1     114.266 125.708 136.347  0.00  0.00    +0.000 A 
ATOM     14  C   UNL     1     113.821 126.129 137.639  0.00  0.00    +0.000 A 
ATOM     15  C   UNL     1     114.603 125.035 136.683  0.00  0.00    +0.000 A 
ATOM     16  C   UNL     1     114.159 125.455 137.974  0.00  0.00    +0.000 A 
ATOM     17  C   UNL     1     114.550 124.908 137.496  0.00  0.00    +0.000 A 
ENDBRANCH   4  12
BRANCH   3  18
ATOM     18  O   UNL     1     110.373 128.363 135.361  0.00  0.00    +0.000 OA
BRANCH  18  27
ATOM     19  O   UNL     1     109.969 128.830 136.650  0.00  0.00    +0.000 OA
ATOM     20  O   UNL     1     108.234 130.245 135.594  0.00  0.00    +0.000 OA
ATOM     21  O   UNL     1     108.409 130.240 137.234  0.00  0.00    +0.000 OA
ATOM     22  O   UNL     1     109.216 129.306 134.657  0.00  0.00    +0.000 OA
ATOM     23  C   UNL     1     108.812 129.773 135.946  0.00  0.00    +0.000 C 
ATOM     24  C   UNL     1     108.900 129.771 136.766  0.00  0.00    +0.000 C 
ATOM     25  C   UNL     1     109.304 129.304 135.477  0.00  0.00    +0.000 C 
ATOM     26  C   UNL     1     109.478 129.299 137.118  0.00  0.00    +0.000 C 
ATOM     27  C   UNL     1     109.882 128.832 135.829  0.00  0.00    +0.000 C 
BRANCH  26  29
ATOM     28  O   UNL     1     109.469 128.595 138.362  0.00  0.00    +0.000 OA
ATOM     29  C   UNL     1     109.565 129.297 137.938  0.00  0.00    +0.000 C 
ENDBRANCH  26  29
ENDBRANCH  18  27
ENDBRANCH   3  18
TORSDOF 4
ENDMDL
MODEL 3
REMARK VINA RESULT:      -9.0      1.397      2.263
REMARK  Name = 42607796
REMARK  4 active torsions:
REMARK  status: ('A' for Active; 'I' for Inactive)
REMARK    1  A    between atoms: O_2  and  C_13
REMARK    2  A    between atoms: O_2  and  C_15
REMARK    3  A    between atoms: C_12  and  C_14
REMARK    4  A    between atoms: C_16  and  C_24
REMARK                            x       y       z     vdW  Elec       q    Type
REMARK                         _______ _______ _______ _____ _____    ______ ____
ROOT
ATOM      1  O   UNL     1     112.681 126.980 137.127  0.00  0.00    +0.000 OA
ATOM      2  O   UNL     1     113.962 128.482 135.632  0.00  0.00    +0.000 OA
ATOM      3  C   UNL     1     111.408 128.815 137.225  0.00  0.00    +0.000 A 
ATOM      4  C   UNL     1     113.375 126.713 136.769  0.00  0.00    +0.000 C 
ATOM      5  C   UNL     1     113.801 127.213 136.271  0.00  0.00    +0.000 C 
ATOM      6  C   UNL     1     112.415 127.749 136.987  0.00  0.00    +0.000 A 
ATOM      7  C   UNL     1     112.841 128.249 136.489  0.00  0.00    +0.000 A 
ATOM      8  C   UNL     1     111.691 128.016 137.366  0.00  0.00    +0.000 A 
ATOM      9  C   UNL     1     113.534 127.982 136.131  0.00  0.00    +0.000 C 
ATOM     10  C   UNL     1     111.853 129.336 136.706  0.00  0.00    +0.000 A 
ATOM     11  C   UNL     1     112.574 129.051 136.336  0.00  0.00    +0.000 A 
ENDROOT
BRANCH   4  12
ATOM     12  C   UNL     1     113.641 125.945 136.908  0.00  0.00    +0.000 A 
ATOM     13  C   UNL     1     113.315 125.312 136.491  0.00  0.00    +0.000 A 
ATOM     14  C   UNL     1     114.235 125.810 137.466  0.00  0.00    +0.000 A 
ATOM     15  C   UNL     1     113.582 124.545 136.631  0.00  0.00    +0.000 A 
ATOM     16  C   UNL     1     114.501 125.041 137.606  0.00  0.00    +0.000 A 
ATOM     17  C   UNL     1     114.175 124.409 137.188  0.00  0.00    +0.000 A 
ENDBRANCH   4  12
BRANCH   3  18
ATOM     18  O   UNL     1     110.715 129.080 137.584  0.00  0.00    +0.000 OA
BRANCH  18  27
ATOM     19  O   UNL     1     109.765 128.512 136.681  0.00  0.00    +0.000 OA
ATOM     20  O   UNL     1     108.449 130.608 136.747  0.00  0.00    +0.000 OA
ATOM     21  O   UNL     1     107.938 129.342 135.822  0.00  0.00    +0.000 OA
ATOM     22  O   UNL     1     109.838 130.477 137.629  0.00  0.00    +0.000 OA
ATOM     23  C   UNL     1     108.888 129.909 136.725  0.00  0.00    +0.000 C 
ATOM     24  C   UNL     1     108.632 129.276 136.262  0.00  0.00    +0.000 C 
ATOM     25  C   UNL     1     109.583 129.844 137.166  0.00  0.00    +0.000 C 
ATOM     26  C   UNL     1     109.071 128.577 136.240  0.00  0.00    +0.000 C 
ATOM     27  C   UNL     1     110.021 129.145 137.144  0.00  0.00    +0.000 C 
BRANCH  26  29
ATOM     28  O   UNL     1     108.586 127.237 136.135  0.00  0.00    +0.000 OA
ATOM     29  C   UNL     1     108.815 127.945 135.777  0.00  0.00    +0.000 C 
ENDBRANCH  26  29
ENDBRANCH  18  27
ENDBRANCH   3  18
TORSDOF 4
ENDMDL
MODEL 4
REMARK VINA RESULT:      -8.9      7.187      8.408
REMARK  Name = 42607796
REMARK  4 active torsions:
REMARK  status: ('A' for Active; 'I' for Inactive)
REMARK    1  A    between atoms: O_2  and  C_13
REMARK    2  A    between atoms: O_2  and  C_15
REMARK    3  A    between atoms: C_12  and  C_14
REMARK    4  A    between atoms: C_16  and  C_24
REMARK                            x       y       z     vdW  Elec       q    Type
REMARK                         _______ _______ _______ _____ _____    ______ ____
ROOT
ATOM      1  O   UNL     1     104.868 124.365 139.490  0.00  0.00    +0.000 OA
ATOM      2  O   UNL     1     104.596 122.739 141.337  0.00  0.00    +0.000 OA
ATOM      3  C   UNL     1     106.390 125.144 140.930  0.00  0.00    +0.000 A 
ATOM      4  C   UNL     1     104.315 123.757 139.426  0.00  0.00    +0.000 C 
ATOM      5  C   UNL     1     104.224 123.215 140.042  0.00  0.00    +0.000 C 
ATOM      6  C   UNL     1     105.332 124.432 140.170  0.00  0.00    +0.000 A 
ATOM      7  C   UNL     1     105.241 123.890 140.785  0.00  0.00    +0.000 A 
ATOM      8  C   UNL     1     105.904 125.070 140.225  0.00  0.00    +0.000 A 
ATOM      9  C   UNL     1     104.688 123.282 140.721  0.00  0.00    +0.000 C 
ATOM     10  C   UNL     1     106.295 124.580 141.571  0.00  0.00    +0.000 A 
ATOM     11  C   UNL     1     105.717 123.948 141.498  0.00  0.00    +0.000 A 
ENDROOT
BRANCH   4  12
ATOM     12  C   UNL     1     103.852 123.690 138.747  0.00  0.00    +0.000 A 
ATOM     13  C   UNL     1     103.046 123.866 138.777  0.00  0.00    +0.000 A 
ATOM     14  C   UNL     1     104.195 123.448 138.036  0.00  0.00    +0.000 A 
ATOM     15  C   UNL     1     102.584 123.799 138.098  0.00  0.00    +0.000 A 
ATOM     16  C   UNL     1     103.732 123.381 137.356  0.00  0.00    +0.000 A 
ATOM     17  C   UNL     1     102.927 123.557 137.387  0.00  0.00    +0.000 A 
ENDBRANCH   4  12
BRANCH   3  18
ATOM     18  O   UNL     1     106.943 125.754 140.992  0.00  0.00    +0.000 OA
BRANCH  18  27
ATOM     19  O   UNL     1     106.081 126.775 141.499  0.00  0.00    +0.000 OA
ATOM     20  O   UNL     1     107.853 127.487 143.073  0.00  0.00    +0.000 OA
ATOM     21  O   UNL     1     106.402 128.270 143.056  0.00  0.00    +0.000 OA
ATOM     22  O   UNL     1     108.124 126.229 142.041  0.00  0.00    +0.000 OA
ATOM     23  C   UNL     1     107.263 127.250 142.549  0.00  0.00    +0.000 C 
ATOM     24  C   UNL     1     106.537 127.641 142.539  0.00  0.00    +0.000 C 
ATOM     25  C   UNL     1     107.398 126.620 142.032  0.00  0.00    +0.000 C 
ATOM     26  C   UNL     1     105.946 127.403 142.015  0.00  0.00    +0.000 C 
ATOM     27  C   UNL     1     106.807 126.382 141.507  0.00  0.00    +0.000 C 
BRANCH  26  29
ATOM     28  O   UNL     1     104.921 128.095 141.298  0.00  0.00    +0.000 OA
ATOM     29  C   UNL     1     105.221 127.795 142.006  0.00  0.00    +0.000 C 
ENDBRANCH  26  29
ENDBRANCH  18  27
ENDBRANCH   3  18
TORSDOF 4
ENDMDL
MODEL 5
REMARK VINA RESULT:      -8.8     12.302     14.138
REMARK  Name = 42607796
REMARK  4 active torsions:
REMARK  status: ('A' for Active; 'I' for Inactive)
REMARK    1  A    between atoms: O_2  and  C_13
REMARK    2  A    between atoms: O_2  and  C_15
REMARK    3  A    between atoms: C_12  and  C_14
REMARK    4  A    between atoms: C_16  and  C_24
REMARK                            x       y       z     vdW  Elec       q    Type
REMARK                         _______ _______ _______ _____ _____    ______ ____
ROOT
ATOM      1  O   UNL     1     103.066 124.465 147.204  0.00  0.00    +0.000 OA
ATOM      2  O   UNL     1     102.532 123.669 149.486  0.00  0.00    +0.000 OA
ATOM      3  C   UNL     1     104.499 125.696 148.397  0.00  0.00    +0.000 A 
ATOM      4  C   UNL     1     102.484 123.891 147.315  0.00  0.00    +0.000 C 
ATOM      5  C   UNL     1     102.306 123.626 148.076  0.00  0.00    +0.000 C 
ATOM      6  C   UNL     1     103.470 124.773 147.853  0.00  0.00    +0.000 A 
ATOM      7  C   UNL     1     103.292 124.509 148.614  0.00  0.00    +0.000 A 
ATOM      8  C   UNL     1     104.074 125.370 147.724  0.00  0.00    +0.000 A 
ATOM      9  C   UNL     1     102.710 123.935 148.725  0.00  0.00    +0.000 C 
ATOM     10  C   UNL     1     104.313 125.420 149.189  0.00  0.00    +0.000 A 
ATOM     11  C   UNL     1     103.706 124.822 149.298  0.00  0.00    +0.000 A 
ENDROOT
BRANCH   4  12
ATOM     12  C   UNL     1     102.079 123.582 146.666  0.00  0.00    +0.000 A 
ATOM     13  C   UNL     1     101.298 123.804 146.522  0.00  0.00    +0.000 A 
ATOM     14  C   UNL     1     102.457 123.050 146.160  0.00  0.00    +0.000 A 
ATOM     15  C   UNL     1     100.894 123.495 145.873  0.00  0.00    +0.000 A 
ATOM     16  C   UNL     1     102.053 122.741 145.510  0.00  0.00    +0.000 A 
ATOM     17  C   UNL     1     101.271 122.964 145.367  0.00  0.00    +0.000 A 
ENDBRANCH   4  12
BRANCH   3  18
ATOM     18  O   UNL     1     105.081 126.270 148.283  0.00  0.00    +0.000 OA
BRANCH  18  27
ATOM     19  O   UNL     1     106.214 125.415 148.451  0.00  0.00    +0.000 OA
ATOM     20  O   UNL     1     107.398 126.632 146.649  0.00  0.00    +0.000 OA
ATOM     21  O   UNL     1     108.136 125.372 147.418  0.00  0.00    +0.000 OA
ATOM     22  O   UNL     1     105.870 127.081 147.082  0.00  0.00    +0.000 OA
ATOM     23  C   UNL     1     107.003 126.226 147.250  0.00  0.00    +0.000 C 
ATOM     24  C   UNL     1     107.372 125.596 147.634  0.00  0.00    +0.000 C 
ATOM     25  C   UNL     1     106.239 126.451 147.466  0.00  0.00    +0.000 C 
ATOM     26  C   UNL     1     106.977 125.191 148.235  0.00  0.00    +0.000 C 
ATOM     27  C   UNL     1     105.844 126.045 148.067  0.00  0.00    +0.000 C 
BRANCH  26  29
ATOM     28  O   UNL     1     107.615 124.650 149.394  0.00  0.00    +0.000 OA
ATOM     29  C   UNL     1     107.346 124.562 148.619  0.00  0.00    +0.000 C 
ENDBRANCH  26  29
ENDBRANCH  18  27
ENDBRANCH   3  18
TORSDOF 4
ENDMDL
MODEL 6
REMARK VINA RESULT:      -8.8      7.250     10.343
REMARK  Name = 42607796
REMARK  4 active torsions:
REMARK  status: ('A' for Active; 'I' for Inactive)
REMARK    1  A    between atoms: O_2  and  C_13
REMARK    2  A    between atoms: O_2  and  C_15
REMARK    3  A    between atoms: C_12  and  C_14
REMARK    4  A    between atoms: C_16  and  C_24
REMARK                            x       y       z     vdW  Elec       q    Type
REMARK                         _______ _______ _______ _____ _____    ______ ____
ROOT
ATOM      1  O   UNL     1     103.175 130.239 141.989  0.00  0.00    +0.000 OA
ATOM      2  O   UNL     1     102.766 128.984 139.895  0.00  0.00    +0.000 OA
ATOM      3  C   UNL     1     104.542 128.497 142.298  0.00  0.00    +0.000 A 
ATOM      4  C   UNL     1     102.642 130.530 141.431  0.00  0.00    +0.000 C 
ATOM      5  C   UNL     1     102.505 130.112 140.733  0.00  0.00    +0.000 C 
ATOM      6  C   UNL     1     103.572 129.529 141.850  0.00  0.00    +0.000 A 
ATOM      7  C   UNL     1     103.436 129.111 141.152  0.00  0.00    +0.000 A 
ATOM      8  C   UNL     1     104.125 129.236 142.438  0.00  0.00    +0.000 A 
ATOM      9  C   UNL     1     102.903 129.402 140.594  0.00  0.00    +0.000 C 
ATOM     10  C   UNL     1     104.399 128.062 141.571  0.00  0.00    +0.000 A 
ATOM     11  C   UNL     1     103.843 128.371 140.994  0.00  0.00    +0.000 A 
ENDROOT
BRANCH   4  12
ATOM     12  C   UNL     1     102.244 131.239 141.571  0.00  0.00    +0.000 A 
ATOM     13  C   UNL     1     102.607 131.958 141.390  0.00  0.00    +0.000 A 
ATOM     14  C   UNL     1     101.484 131.230 141.893  0.00  0.00    +0.000 A 
ATOM     15  C   UNL     1     102.209 132.667 141.530  0.00  0.00    +0.000 A 
ATOM     16  C   UNL     1     101.087 131.939 142.033  0.00  0.00    +0.000 A 
ATOM     17  C   UNL     1     101.450 132.658 141.851  0.00  0.00    +0.000 A 
ENDBRANCH   4  12
BRANCH   3  18
ATOM     18  O   UNL     1     105.074 128.208 142.858  0.00  0.00    +0.000 OA
BRANCH  18  27
ATOM     19  O   UNL     1     106.241 128.823 142.308  0.00  0.00    +0.000 OA
ATOM     20  O   UNL     1     107.580 126.835 142.927  0.00  0.00    +0.000 OA
ATOM     21  O   UNL     1     108.300 128.112 142.171  0.00  0.00    +0.000 OA
ATOM     22  O   UNL     1     105.967 126.883 143.271  0.00  0.00    +0.000 OA
ATOM     23  C   UNL     1     107.134 127.498 142.721  0.00  0.00    +0.000 C 
ATOM     24  C   UNL     1     107.493 128.137 142.342  0.00  0.00    +0.000 C 
ATOM     25  C   UNL     1     106.326 127.522 142.893  0.00  0.00    +0.000 C 
ATOM     26  C   UNL     1     107.047 128.799 142.136  0.00  0.00    +0.000 C 
ATOM     27  C   UNL     1     105.880 128.184 142.686  0.00  0.00    +0.000 C 
BRANCH  26  29
ATOM     28  O   UNL     1     107.183 129.643 140.991  0.00  0.00    +0.000 OA
ATOM     29  C   UNL     1     107.407 129.437 141.758  0.00  0.00    +0.000 C 
ENDBRANCH  26  29
ENDBRANCH  18  27
ENDBRANCH   3  18
TORSDOF 4
ENDMDL
MODEL 7
REMARK VINA RESULT:      -8.8      3.516      4.796
REMARK  Name = 42607796
REMARK  4 active torsions:
REMARK  status: ('A' for Active; 'I' for Inactive)
REMARK    1  A    between atoms: O_2  and  C_13
REMARK    2  A    between atoms: O_2  and  C_15
REMARK    3  A    between atoms: C_12  and  C_14
REMARK    4  A    between atoms: C_16  and  C_24
REMARK                            x       y       z     vdW  Elec       q    Type
REMARK                         _______ _______ _______ _____ _____    ______ ____
ROOT
ATOM      1  O   UNL     1     113.522 126.284 138.826  0.00  0.00    +0.000 OA
ATOM      2  O   UNL     1     111.117 125.805 138.486  0.00  0.00    +0.000 OA
ATOM      3  C   UNL     1     112.674 127.178 140.691  0.00  0.00    +0.000 A 
ATOM      4  C   UNL     1     113.272 125.889 138.146  0.00  0.00    +0.000 C 
ATOM      5  C   UNL     1     112.470 125.730 138.033  0.00  0.00    +0.000 C 
ATOM      6  C   UNL     1     112.971 126.519 139.392  0.00  0.00    +0.000 A 
ATOM      7  C   UNL     1     112.169 126.360 139.280  0.00  0.00    +0.000 A 
ATOM      8  C   UNL     1     113.244 126.930 140.096  0.00  0.00    +0.000 A 
ATOM      9  C   UNL     1     111.919 125.965 138.600  0.00  0.00    +0.000 C 
ATOM     10  C   UNL     1     111.839 127.011 140.572  0.00  0.00    +0.000 A 
ATOM     11  C   UNL     1     111.585 126.600 139.862  0.00  0.00    +0.000 A 
ENDROOT
BRANCH   4  12
ATOM     12  C   UNL     1     113.823 125.653 137.579  0.00  0.00    +0.000 A 
ATOM     13  C   UNL     1     114.250 124.955 137.684  0.00  0.00    +0.000 A 
ATOM     14  C   UNL     1     113.947 126.117 136.907  0.00  0.00    +0.000 A 
ATOM     15  C   UNL     1     114.801 124.721 137.117  0.00  0.00    +0.000 A 
ATOM     16  C   UNL     1     114.498 125.881 136.340  0.00  0.00    +0.000 A 
ATOM     17  C   UNL     1     114.925 125.183 136.445  0.00  0.00    +0.000 A 
ENDBRANCH   4  12
BRANCH   3  18
ATOM     18  O   UNL     1     112.927 127.572 141.369  0.00  0.00    +0.000 OA
BRANCH  18  27
ATOM     19  O   UNL     1     113.267 128.846 140.819  0.00  0.00    +0.000 OA
ATOM     20  O   UNL     1     112.067 129.967 142.671  0.00  0.00    +0.000 OA
ATOM     21  O   UNL     1     112.807 130.867 141.503  0.00  0.00    +0.000 OA
ATOM     22  O   UNL     1     112.127 128.319 142.604  0.00  0.00    +0.000 OA
ATOM     23  C   UNL     1     112.467 129.593 142.054  0.00  0.00    +0.000 C 
ATOM     24  C   UNL     1     112.837 130.043 141.469  0.00  0.00    +0.000 C 
ATOM     25  C   UNL     1     112.497 128.769 142.020  0.00  0.00    +0.000 C 
ATOM     26  C   UNL     1     113.237 129.669 140.852  0.00  0.00    +0.000 C 
ATOM     27  C   UNL     1     112.897 128.395 141.403  0.00  0.00    +0.000 C 
BRANCH  26  29
ATOM     28  O   UNL     1     114.411 130.017 140.115  0.00  0.00    +0.000 OA
ATOM     29  C   UNL     1     113.607 130.119 140.269  0.00  0.00    +0.000 C 
ENDBRANCH  26  29
ENDBRANCH  18  27
ENDBRANCH   3  18
TORSDOF 4
ENDMDL
MODEL 8
REMARK VINA RESULT:      -8.7      2.342      4.050
REMARK  Name = 42607796
REMARK  4 active torsions:
REMARK  status: ('A' for Active; 'I' for Inactive)
REMARK    1  A    between atoms: O_2  and  C_13
REMARK    2  A    between atoms: O_2  and  C_15
REMARK    3  A    between atoms: C_12  and  C_14
REMARK    4  A    between atoms: C_16  and  C_24
REMARK                            x       y       z     vdW  Elec       q    Type
REMARK                         _______ _______ _______ _____ _____    ______ ____
ROOT
ATOM      1  O   UNL     1     112.605 128.265 135.506  0.00  0.00    +0.000 OA
ATOM      2  O   UNL     1     110.715 129.592 134.613  0.00  0.00    +0.000 OA
ATOM      3  C   UNL     1     110.973 126.740 135.595  0.00  0.00    +0.000 A 
ATOM      4  C   UNL     1     112.722 129.050 135.281  0.00  0.00    +0.000 C 
ATOM      5  C   UNL     1     112.092 129.493 134.984  0.00  0.00    +0.000 C 
ATOM      6  C   UNL     1     111.858 127.922 135.432  0.00  0.00    +0.000 A 
ATOM      7  C   UNL     1     111.228 128.364 135.135  0.00  0.00    +0.000 A 
ATOM      8  C   UNL     1     111.749 127.103 135.669  0.00  0.00    +0.000 A 
ATOM      9  C   UNL     1     111.345 129.149 134.911  0.00  0.00    +0.000 C 
ATOM     10  C   UNL     1     110.318 127.201 135.285  0.00  0.00    +0.000 A 
ATOM     11  C   UNL     1     110.446 128.018 135.054  0.00  0.00    +0.000 A 
ENDROOT
BRANCH   4  12
ATOM     12  C   UNL     1     113.468 129.394 135.355  0.00  0.00    +0.000 A 
ATOM     13  C   UNL     1     113.671 129.798 136.045  0.00  0.00    +0.000 A 
ATOM     14  C   UNL     1     114.012 129.333 134.737  0.00  0.00    +0.000 A 
ATOM     15  C   UNL     1     114.417 130.141 136.117  0.00  0.00    +0.000 A 
ATOM     16  C   UNL     1     114.759 129.676 134.810  0.00  0.00    +0.000 A 
ATOM     17  C   UNL     1     114.961 130.080 135.500  0.00  0.00    +0.000 A 
ENDBRANCH   4  12
BRANCH   3  18
ATOM     18  O   UNL     1     110.859 125.954 135.820  0.00  0.00    +0.000 OA
BRANCH  18  27
ATOM     19  O   UNL     1     110.401 126.206 137.150  0.00  0.00    +0.000 OA
ATOM     20  O   UNL     1     111.672 124.242 137.959  0.00  0.00    +0.000 OA
ATOM     21  O   UNL     1     110.791 125.148 139.019  0.00  0.00    +0.000 OA
ATOM     22  O   UNL     1     111.706 124.645 136.359  0.00  0.00    +0.000 OA
ATOM     23  C   UNL     1     111.248 124.896 137.689  0.00  0.00    +0.000 C 
ATOM     24  C   UNL     1     110.808 125.350 138.219  0.00  0.00    +0.000 C 
ATOM     25  C   UNL     1     111.265 125.098 136.889  0.00  0.00    +0.000 C 
ATOM     26  C   UNL     1     110.384 126.004 137.949  0.00  0.00    +0.000 C 
ATOM     27  C   UNL     1     110.842 125.753 136.619  0.00  0.00    +0.000 C 
BRANCH  26  29
ATOM     28  O   UNL     1     109.131 126.546 138.371  0.00  0.00    +0.000 OA
ATOM     29  C   UNL     1     109.944 126.457 138.479  0.00  0.00    +0.000 C 
ENDBRANCH  26  29
ENDBRANCH  18  27
ENDBRANCH   3  18
TORSDOF 4
ENDMDL
MODEL 9
REMARK VINA RESULT:      -8.7      2.597      4.936
REMARK  Name = 42607796
REMARK  4 active torsions:
REMARK  status: ('A' for Active; 'I' for Inactive)
REMARK    1  A    between atoms: O_2  and  C_13
REMARK    2  A    between atoms: O_2  and  C_15
REMARK    3  A    between atoms: C_12  and  C_14
REMARK    4  A    between atoms: C_16  and  C_24
REMARK                            x       y       z     vdW  Elec       q    Type
REMARK                         _______ _______ _______ _____ _____    ______ ____
ROOT
ATOM      1  O   UNL     1     113.588 128.784 136.054  0.00  0.00    +0.000 OA
ATOM      2  O   UNL     1     111.593 129.062 134.615  0.00  0.00    +0.000 OA
ATOM      3  C   UNL     1     112.253 127.214 136.921  0.00  0.00    +0.000 A 
ATOM      4  C   UNL     1     113.585 129.355 135.458  0.00  0.00    +0.000 C 
ATOM      5  C   UNL     1     112.920 129.447 134.978  0.00  0.00    +0.000 C 
ATOM      6  C   UNL     1     112.925 128.306 136.171  0.00  0.00    +0.000 A 
ATOM      7  C   UNL     1     112.260 128.398 135.691  0.00  0.00    +0.000 A 
ATOM      8  C   UNL     1     112.940 127.716 136.794  0.00  0.00    +0.000 A 
ATOM      9  C   UNL     1     112.258 128.969 135.095  0.00  0.00    +0.000 C 
ATOM     10  C   UNL     1     111.561 127.311 136.421  0.00  0.00    +0.000 A 
ATOM     11  C   UNL     1     111.565 127.907 135.802  0.00  0.00    +0.000 A 
ENDROOT
BRANCH   4  12
ATOM     12  C   UNL     1     114.247 129.833 135.341  0.00  0.00    +0.000 A 
ATOM     13  C   UNL     1     114.774 129.665 134.729  0.00  0.00    +0.000 A 
ATOM     14  C   UNL     1     114.382 130.478 135.838  0.00  0.00    +0.000 A 
ATOM     15  C   UNL     1     115.436 130.144 134.613  0.00  0.00    +0.000 A 
ATOM     16  C   UNL     1     115.044 130.956 135.721  0.00  0.00    +0.000 A 
ATOM     17  C   UNL     1     115.571 130.789 135.109  0.00  0.00    +0.000 A 
ENDBRANCH   4  12
BRANCH   3  18
ATOM     18  O   UNL     1     112.259 126.645 137.518  0.00  0.00    +0.000 OA
BRANCH  18  27
ATOM     19  O   UNL     1     113.100 125.659 136.915  0.00  0.00    +0.000 OA
ATOM     20  O   UNL     1     111.525 123.884 137.619  0.00  0.00    +0.000 OA
ATOM     21  O   UNL     1     112.891 123.491 136.782  0.00  0.00    +0.000 OA
ATOM     22  O   UNL     1     111.209 125.462 137.987  0.00  0.00    +0.000 OA
ATOM     23  C   UNL     1     112.050 124.476 137.384  0.00  0.00    +0.000 C 
ATOM     24  C   UNL     1     112.733 124.280 136.966  0.00  0.00    +0.000 C 
ATOM     25  C   UNL     1     111.892 125.265 137.568  0.00  0.00    +0.000 C 
ATOM     26  C   UNL     1     113.258 124.871 136.731  0.00  0.00    +0.000 C 
ATOM     27  C   UNL     1     112.417 125.857 137.334  0.00  0.00    +0.000 C 
BRANCH  26  29
ATOM     28  O   UNL     1     114.676 124.950 136.568  0.00  0.00    +0.000 OA
ATOM     29  C   UNL     1     113.941 124.674 136.313  0.00  0.00    +0.000 C 
ENDBRANCH  26  29
ENDBRANCH  18  27
ENDBRANCH   3  18
TORSDOF 4
ENDMDL
MODEL 10
REMARK VINA RESULT:      -8.6      2.918      4.113
REMARK  Name = 42607796
REMARK  4 active torsions:
REMARK  status: ('A' for Active; 'I' for Inactive)
REMARK    1  A    between atoms: O_2  and  C_13
REMARK    2  A    between atoms: O_2  and  C_15
REMARK    3  A    between atoms: C_12  and  C_14
REMARK    4  A    between atoms: C_16  and  C_24
REMARK                            x       y       z     vdW  Elec       q    Type
REMARK                         _______ _______ _______ _____ _____    ______ ____
ROOT
ATOM      1  O   UNL     1     113.155 127.140 137.452  0.00  0.00    +0.000 OA
ATOM      2  O   UNL     1     114.156 128.383 135.560  0.00  0.00    +0.000 OA
ATOM      3  C   UNL     1     112.566 129.227 137.994  0.00  0.00    +0.000 A 
ATOM      4  C   UNL     1     113.565 126.734 136.863  0.00  0.00    +0.000 C 
ATOM      5  C   UNL     1     113.898 127.148 136.232  0.00  0.00    +0.000 C 
ATOM      6  C   UNL     1     113.078 127.960 137.411  0.00  0.00    +0.000 A 
ATOM      7  C   UNL     1     113.412 128.375 136.781  0.00  0.00    +0.000 A 
ATOM      8  C   UNL     1     112.649 128.372 138.031  0.00  0.00    +0.000 A 
ATOM      9  C   UNL     1     113.822 127.969 136.191  0.00  0.00    +0.000 C 
ATOM     10  C   UNL     1     112.914 129.658 137.337  0.00  0.00    +0.000 A 
ATOM     11  C   UNL     1     113.339 129.229 136.727  0.00  0.00    +0.000 A 
ENDROOT
BRANCH   4  12
ATOM     12  C   UNL     1     113.641 125.913 136.904  0.00  0.00    +0.000 A 
ATOM     13  C   UNL     1     113.057 125.428 136.581  0.00  0.00    +0.000 A 
ATOM     14  C   UNL     1     114.302 125.579 137.267  0.00  0.00    +0.000 A 
ATOM     15  C   UNL     1     113.135 124.608 136.622  0.00  0.00    +0.000 A 
ATOM     16  C   UNL     1     114.379 124.758 137.308  0.00  0.00    +0.000 A 
ATOM     17  C   UNL     1     113.795 124.273 136.986  0.00  0.00    +0.000 A 
ENDBRANCH   4  12
BRANCH   3  18
ATOM     18  O   UNL     1     112.155 129.630 138.585  0.00  0.00    +0.000 OA
BRANCH  18  27
ATOM     19  O   UNL     1     113.285 130.019 139.370  0.00  0.00    +0.000 OA
ATOM     20  O   UNL     1     112.000 129.578 141.438  0.00  0.00    +0.000 OA
ATOM     21  O   UNL     1     113.557 130.112 141.533  0.00  0.00    +0.000 OA
ATOM     22  O   UNL     1     111.298 129.336 139.964  0.00  0.00    +0.000 OA
ATOM     23  C   UNL     1     112.428 129.725 140.749  0.00  0.00    +0.000 C 
ATOM     24  C   UNL     1     113.207 129.992 140.796  0.00  0.00    +0.000 C 
ATOM     25  C   UNL     1     112.077 129.604 140.011  0.00  0.00    +0.000 C 
ATOM     26  C   UNL     1     113.635 130.139 140.106  0.00  0.00    +0.000 C 
ATOM     27  C   UNL     1     112.506 129.751 139.322  0.00  0.00    +0.000 C 
BRANCH  26  29
ATOM     28  O   UNL     1     114.634 131.107 139.777  0.00  0.00    +0.000 OA
ATOM     29  C   UNL     1     114.414 130.406 140.154  0.00  0.00    +0.000 C 
ENDBRANCH  26  29
ENDBRANCH  18  27
ENDBRANCH   3  18
TORSDOF 4
ENDMDL
