MODEL 1
REMARK VINA RESULT:     -10.6      0.000      0.000
REMARK  Name = 131835684
REMARK  7 active torsions:
REMARK  status: ('A' for Active; 'I' for Inactive)
REMARK    1  A    between atoms: O_3  and  C_24
REMARK    2  A    between atoms: O_3  and  C_32
REMARK    3  A    between atoms: O_7  and  C_28
REMARK    4  A    between atoms: O_7  and  C_33
REMARK    5  A    between atoms: C_23  and  C_30
REMARK    6  A    between atoms: C_29  and  C_31
REMARK    7  A    between atoms: C_38  and  C_41
REMARK                            x       y       z     vdW  Elec       q    Type
REMARK                         _______ _______ _______ _____ _____    ______ ____
ROOT
ATOM      1  O   UNL     1     113.036 128.333 138.247  0.00  0.00    +0.000 OA
ATOM      2  O   UNL     1     113.292 127.022 141.327  0.00  0.00    +0.000 OA
ATOM      3  O   UNL     1     112.594 126.136 140.070  0.00  0.00    +0.000 OA
ATOM      4  O   UNL     1     112.197 126.047 138.686  0.00  0.00    +0.000 OA
ATOM      5  C   UNL     1     113.524 128.143 140.420  0.00  0.00    +0.000 A 
ATOM      6  C   UNL     1     112.414 127.133 137.783  0.00  0.00    +0.000 A 
ATOM      7  C   UNL     1     112.818 127.247 139.149  0.00  0.00    +0.000 A 
ATOM      8  C   UNL     1     113.098 128.009 139.003  0.00  0.00    +0.000 A 
ATOM      9  C   UNL     1     113.456 128.475 139.629  0.00  0.00    +0.000 A 
ATOM     10  C   UNL     1     112.476 126.809 138.540  0.00  0.00    +0.000 A 
ATOM     11  C   UNL     1     112.694 127.895 137.637  0.00  0.00    +0.000 A 
ATOM     12  C   UNL     1     113.232 127.349 140.571  0.00  0.00    +0.000 A 
ATOM     13  C   UNL     1     112.877 126.898 139.932  0.00  0.00    +0.000 A 
ENDROOT
BRANCH  11  16
ATOM     14  O   UNL     1     113.920 128.723 135.191  0.00  0.00    +0.000 OA
ATOM     15  O   UNL     1     112.447 129.190 134.612  0.00  0.00    +0.000 OA
ATOM     16  C   UNL     1     112.632 128.219 136.881  0.00  0.00    +0.000 A 
ATOM     17  C   UNL     1     113.307 128.309 136.414  0.00  0.00    +0.000 A 
ATOM     18  C   UNL     1     111.897 128.452 136.591  0.00  0.00    +0.000 A 
ATOM     19  C   UNL     1     113.245 128.633 135.658  0.00  0.00    +0.000 A 
ATOM     20  C   UNL     1     111.835 128.776 135.835  0.00  0.00    +0.000 A 
ATOM     21  C   UNL     1     112.509 128.866 135.368  0.00  0.00    +0.000 A 
ENDBRANCH  11  16
BRANCH   5  22
ATOM     22  O   UNL     1     113.866 128.583 141.028  0.00  0.00    +0.000 OA
BRANCH  22  31
ATOM     23  O   UNL     1     112.752 129.356 141.480  0.00  0.00    +0.000 OA
ATOM     24  O   UNL     1     114.145 131.401 141.420  0.00  0.00    +0.000 OA
ATOM     25  O   UNL     1     112.567 131.491 141.891  0.00  0.00    +0.000 OA
ATOM     26  O   UNL     1     114.794 129.947 140.987  0.00  0.00    +0.000 OA
ATOM     27  C   UNL     1     113.680 130.719 141.440  0.00  0.00    +0.000 C 
ATOM     28  C   UNL     1     112.891 130.764 141.676  0.00  0.00    +0.000 C 
ATOM     29  C   UNL     1     114.005 129.991 141.223  0.00  0.00    +0.000 C 
ATOM     30  C   UNL     1     112.427 130.082 141.696  0.00  0.00    +0.000 C 
ATOM     31  C   UNL     1     113.541 129.310 141.243  0.00  0.00    +0.000 C 
BRANCH  30  33
ATOM     32  O   UNL     1     111.328 129.563 142.447  0.00  0.00    +0.000 OA
ATOM     33  C   UNL     1     111.638 130.127 141.932  0.00  0.00    +0.000 C 
ENDBRANCH  30  33
ENDBRANCH  22  31
ENDBRANCH   5  22
BRANCH   6  34
ATOM     34  O   UNL     1     112.073 126.695 137.174  0.00  0.00    +0.000 OA
BRANCH  34  42
ATOM     35  O   UNL     1     113.209 125.852 136.980  0.00  0.00    +0.000 OA
ATOM     36  O   UNL     1     111.721 124.004 136.277  0.00  0.00    +0.000 OA
ATOM     37  O   UNL     1     111.079 125.463 136.705  0.00  0.00    +0.000 OA
ATOM     38  O   UNL     1     113.354 123.777 136.318  0.00  0.00    +0.000 OA
ATOM     39  C   UNL     1     112.216 124.620 136.512  0.00  0.00    +0.000 C 
ATOM     40  C   UNL     1     111.896 125.350 136.726  0.00  0.00    +0.000 C 
ATOM     41  C   UNL     1     113.033 124.506 136.532  0.00  0.00    +0.000 C 
ATOM     42  C   UNL     1     112.392 125.966 136.960  0.00  0.00    +0.000 C 
ATOM     43  C   UNL     1     113.530 125.122 136.766  0.00  0.00    +0.000 C 
BRANCH  43  46
ATOM     44  O   UNL     1     114.815 125.266 136.159  0.00  0.00    +0.000 OA
ATOM     45  O   UNL     1     114.696 124.638 137.436  0.00  0.00    +0.000 OA
ATOM     46  C   UNL     1     114.347 125.009 136.787  0.00  0.00    +0.000 C 
ENDBRANCH  43  46
ENDBRANCH  34  42
ENDBRANCH   6  34
TORSDOF 7
ENDMDL
MODEL 2
REMARK VINA RESULT:     -10.6      2.087      4.699
REMARK  Name = 131835684
REMARK  7 active torsions:
REMARK  status: ('A' for Active; 'I' for Inactive)
REMARK    1  A    between atoms: O_3  and  C_24
REMARK    2  A    between atoms: O_3  and  C_32
REMARK    3  A    between atoms: O_7  and  C_28
REMARK    4  A    between atoms: O_7  and  C_33
REMARK    5  A    between atoms: C_23  and  C_30
REMARK    6  A    between atoms: C_29  and  C_31
REMARK    7  A    between atoms: C_38  and  C_41
REMARK                            x       y       z     vdW  Elec       q    Type
REMARK                         _______ _______ _______ _____ _____    ______ ____
ROOT
ATOM      1  O   UNL     1     111.823 128.170 138.268  0.00  0.00    +0.000 OA
ATOM      2  O   UNL     1     112.341 129.451 135.208  0.00  0.00    +0.000 OA
ATOM      3  O   UNL     1     113.284 128.169 135.775  0.00  0.00    +0.000 OA
ATOM      4  O   UNL     1     113.602 127.232 136.824  0.00  0.00    +0.000 OA
ATOM      5  C   UNL     1     111.592 129.466 136.461  0.00  0.00    +0.000 A 
ATOM      6  C   UNL     1     112.880 127.232 138.058  0.00  0.00    +0.000 A 
ATOM      7  C   UNL     1     112.545 128.171 137.034  0.00  0.00    +0.000 A 
ATOM      8  C   UNL     1     111.952 128.483 137.515  0.00  0.00    +0.000 A 
ATOM      9  C   UNL     1     111.463 129.135 137.244  0.00  0.00    +0.000 A 
ATOM     10  C   UNL     1     113.009 127.545 137.305  0.00  0.00    +0.000 A 
ATOM     11  C   UNL     1     112.287 127.544 138.539  0.00  0.00    +0.000 A 
ATOM     12  C   UNL     1     112.209 129.140 135.961  0.00  0.00    +0.000 A 
ATOM     13  C   UNL     1     112.689 128.488 136.249  0.00  0.00    +0.000 A 
ENDROOT
BRANCH  11  16
ATOM     14  O   UNL     1     110.694 125.992 140.334  0.00  0.00    +0.000 OA
ATOM     15  O   UNL     1     111.771 126.291 141.548  0.00  0.00    +0.000 OA
ATOM     16  C   UNL     1     112.159 127.231 139.291  0.00  0.00    +0.000 A 
ATOM     17  C   UNL     1     111.490 126.768 139.436  0.00  0.00    +0.000 A 
ATOM     18  C   UNL     1     112.697 127.380 139.897  0.00  0.00    +0.000 A 
ATOM     19  C   UNL     1     111.362 126.455 140.188  0.00  0.00    +0.000 A 
ATOM     20  C   UNL     1     112.568 127.067 140.650  0.00  0.00    +0.000 A 
ATOM     21  C   UNL     1     111.900 126.604 140.795  0.00  0.00    +0.000 A 
ENDBRANCH  11  16
BRANCH   5  22
ATOM     22  O   UNL     1     111.127 130.092 136.192  0.00  0.00    +0.000 OA
BRANCH  22  31
ATOM     23  O   UNL     1     109.952 129.315 135.950  0.00  0.00    +0.000 OA
ATOM     24  O   UNL     1     108.544 131.227 136.649  0.00  0.00    +0.000 OA
ATOM     25  O   UNL     1     107.839 129.813 136.173  0.00  0.00    +0.000 OA
ATOM     26  O   UNL     1     110.188 131.366 136.658  0.00  0.00    +0.000 OA
ATOM     27  C   UNL     1     109.013 130.590 136.416  0.00  0.00    +0.000 C 
ATOM     28  C   UNL     1     108.661 129.883 136.178  0.00  0.00    +0.000 C 
ATOM     29  C   UNL     1     109.836 130.659 136.420  0.00  0.00    +0.000 C 
ATOM     30  C   UNL     1     109.130 129.245 135.945  0.00  0.00    +0.000 C 
ATOM     31  C   UNL     1     110.305 130.022 136.187  0.00  0.00    +0.000 C 
BRANCH  30  33
ATOM     32  O   UNL     1     109.087 128.117 135.069  0.00  0.00    +0.000 OA
ATOM     33  C   UNL     1     108.778 128.539 135.707  0.00  0.00    +0.000 C 
ENDBRANCH  30  33
ENDBRANCH  22  31
ENDBRANCH   5  22
BRANCH   6  34
ATOM     34  O   UNL     1     113.344 126.606 138.329  0.00  0.00    +0.000 OA
BRANCH  34  42
ATOM     35  O   UNL     1     112.665 125.604 137.571  0.00  0.00    +0.000 OA
ATOM     36  O   UNL     1     114.773 124.325 137.370  0.00  0.00    +0.000 OA
ATOM     37  O   UNL     1     114.750 125.753 138.195  0.00  0.00    +0.000 OA
ATOM     38  O   UNL     1     113.390 123.749 136.679  0.00  0.00    +0.000 OA
ATOM     39  C   UNL     1     114.071 124.751 137.437  0.00  0.00    +0.000 C 
ATOM     40  C   UNL     1     114.059 125.465 137.850  0.00  0.00    +0.000 C 
ATOM     41  C   UNL     1     113.379 124.463 137.092  0.00  0.00    +0.000 C 
ATOM     42  C   UNL     1     113.356 125.892 137.917  0.00  0.00    +0.000 C 
ATOM     43  C   UNL     1     112.676 124.889 137.159  0.00  0.00    +0.000 C 
BRANCH  43  46
ATOM     44  O   UNL     1     111.475 124.120 137.249  0.00  0.00    +0.000 OA
ATOM     45  O   UNL     1     111.800 124.795 136.033  0.00  0.00    +0.000 OA
ATOM     46  C   UNL     1     111.984 124.602 136.813  0.00  0.00    +0.000 C 
ENDBRANCH  43  46
ENDBRANCH  34  42
ENDBRANCH   6  34
TORSDOF 7
ENDMDL
MODEL 3
REMARK VINA RESULT:     -10.4      2.627      4.523
REMARK  Name = 131835684
REMARK  7 active torsions:
REMARK  status: ('A' for Active; 'I' for Inactive)
REMARK    1  A    between atoms: O_3  and  C_24
REMARK    2  A    between atoms: O_3  and  C_32
REMARK    3  A    between atoms: O_7  and  C_28
REMARK    4  A    between atoms: O_7  and  C_33
REMARK    5  A    between atoms: C_23  and  C_30
REMARK    6  A    between atoms: C_29  and  C_31
REMARK    7  A    between atoms: C_38  and  C_41
REMARK                            x       y       z     vdW  Elec       q    Type
REMARK                         _______ _______ _______ _____ _____    ______ ____
ROOT
ATOM      1  O   UNL     1     111.701 129.180 135.883  0.00  0.00    +0.000 OA
ATOM      2  O   UNL     1     108.710 127.745 136.393  0.00  0.00    +0.000 OA
ATOM      3  O   UNL     1     110.134 126.862 136.602  0.00  0.00    +0.000 OA
ATOM      4  O   UNL     1     111.575 126.806 136.572  0.00  0.00    +0.000 OA
ATOM      5  C   UNL     1     109.485 128.927 136.027  0.00  0.00    +0.000 A 
ATOM      6  C   UNL     1     112.352 127.952 136.216  0.00  0.00    +0.000 A 
ATOM      7  C   UNL     1     110.925 128.034 136.238  0.00  0.00    +0.000 A 
ATOM      8  C   UNL     1     110.967 128.826 136.009  0.00  0.00    +0.000 A 
ATOM      9  C   UNL     1     110.254 129.291 135.897  0.00  0.00    +0.000 A 
ATOM     10  C   UNL     1     111.617 127.598 136.342  0.00  0.00    +0.000 A 
ATOM     11  C   UNL     1     112.394 128.743 135.986  0.00  0.00    +0.000 A 
ATOM     12  C   UNL     1     109.443 128.103 136.267  0.00  0.00    +0.000 A 
ATOM     13  C   UNL     1     110.167 127.654 136.373  0.00  0.00    +0.000 A 
ENDROOT
BRANCH  11  16
ATOM     14  O   UNL     1     114.455 130.533 136.831  0.00  0.00    +0.000 OA
ATOM     15  O   UNL     1     115.330 130.162 135.483  0.00  0.00    +0.000 OA
ATOM     16  C   UNL     1     113.128 129.098 135.860  0.00  0.00    +0.000 A 
ATOM     17  C   UNL     1     113.424 129.639 136.409  0.00  0.00    +0.000 A 
ATOM     18  C   UNL     1     113.565 128.913 135.187  0.00  0.00    +0.000 A 
ATOM     19  C   UNL     1     114.159 129.993 136.283  0.00  0.00    +0.000 A 
ATOM     20  C   UNL     1     114.299 129.267 135.060  0.00  0.00    +0.000 A 
ATOM     21  C   UNL     1     114.596 129.807 135.609  0.00  0.00    +0.000 A 
ENDBRANCH  11  16
BRANCH   5  22
ATOM     22  O   UNL     1     108.795 129.366 135.923  0.00  0.00    +0.000 OA
BRANCH  22  31
ATOM     23  O   UNL     1     108.853 130.136 137.125  0.00  0.00    +0.000 OA
ATOM     24  O   UNL     1     108.109 132.140 135.877  0.00  0.00    +0.000 OA
ATOM     25  O   UNL     1     108.415 132.242 137.494  0.00  0.00    +0.000 OA
ATOM     26  O   UNL     1     108.299 130.702 135.091  0.00  0.00    +0.000 OA
ATOM     27  C   UNL     1     108.357 131.472 136.293  0.00  0.00    +0.000 C 
ATOM     28  C   UNL     1     108.510 131.523 137.102  0.00  0.00    +0.000 C 
ATOM     29  C   UNL     1     108.452 130.752 135.900  0.00  0.00    +0.000 C 
ATOM     30  C   UNL     1     108.758 130.855 137.518  0.00  0.00    +0.000 C 
ATOM     31  C   UNL     1     108.700 130.084 136.316  0.00  0.00    +0.000 C 
BRANCH  30  33
ATOM     32  O   UNL     1     108.589 130.350 138.844  0.00  0.00    +0.000 OA
ATOM     33  C   UNL     1     108.911 130.906 138.326  0.00  0.00    +0.000 C 
ENDBRANCH  30  33
ENDBRANCH  22  31
ENDBRANCH   5  22
BRANCH   6  34
ATOM     34  O   UNL     1     113.044 127.516 136.319  0.00  0.00    +0.000 OA
BRANCH  34  42
ATOM     35  O   UNL     1     113.010 127.571 137.746  0.00  0.00    +0.000 OA
ATOM     36  O   UNL     1     114.117 125.361 137.859  0.00  0.00    +0.000 OA
ATOM     37  O   UNL     1     113.783 126.042 136.394  0.00  0.00    +0.000 OA
ATOM     38  O   UNL     1     113.714 126.153 139.249  0.00  0.00    +0.000 OA
ATOM     39  C   UNL     1     113.748 126.097 137.822  0.00  0.00    +0.000 C 
ATOM     40  C   UNL     1     113.581 126.438 137.089  0.00  0.00    +0.000 C 
ATOM     41  C   UNL     1     113.546 126.494 138.516  0.00  0.00    +0.000 C 
ATOM     42  C   UNL     1     113.211 127.175 137.051  0.00  0.00    +0.000 C 
ATOM     43  C   UNL     1     113.177 127.230 138.479  0.00  0.00    +0.000 C 
BRANCH  43  46
ATOM     44  O   UNL     1     113.480 128.201 139.482  0.00  0.00    +0.000 OA
ATOM     45  O   UNL     1     112.268 127.449 139.560  0.00  0.00    +0.000 OA
ATOM     46  C   UNL     1     112.975 127.627 139.173  0.00  0.00    +0.000 C 
ENDBRANCH  43  46
ENDBRANCH  34  42
ENDBRANCH   6  34
TORSDOF 7
ENDMDL
MODEL 4
REMARK VINA RESULT:     -10.3      0.744      1.819
REMARK  Name = 131835684
REMARK  7 active torsions:
REMARK  status: ('A' for Active; 'I' for Inactive)
REMARK    1  A    between atoms: O_3  and  C_24
REMARK    2  A    between atoms: O_3  and  C_32
REMARK    3  A    between atoms: O_7  and  C_28
REMARK    4  A    between atoms: O_7  and  C_33
REMARK    5  A    between atoms: C_23  and  C_30
REMARK    6  A    between atoms: C_29  and  C_31
REMARK    7  A    between atoms: C_38  and  C_41
REMARK                            x       y       z     vdW  Elec       q    Type
REMARK                         _______ _______ _______ _____ _____    ______ ____
ROOT
ATOM      1  O   UNL     1     112.881 128.363 138.325  0.00  0.00    +0.000 OA
ATOM      2  O   UNL     1     113.655 127.113 141.343  0.00  0.00    +0.000 OA
ATOM      3  O   UNL     1     113.920 126.207 139.943  0.00  0.00    +0.000 OA
ATOM      4  O   UNL     1     113.849 126.092 138.507  0.00  0.00    +0.000 OA
ATOM      5  C   UNL     1     113.127 128.214 140.541  0.00  0.00    +0.000 A 
ATOM      6  C   UNL     1     113.336 127.158 137.705  0.00  0.00    +0.000 A 
ATOM      7  C   UNL     1     113.395 127.297 139.126  0.00  0.00    +0.000 A 
ATOM      8  C   UNL     1     113.072 128.054 139.066  0.00  0.00    +0.000 A 
ATOM      9  C   UNL     1     112.930 128.530 139.766  0.00  0.00    +0.000 A 
ATOM     10  C   UNL     1     113.527 126.849 138.446  0.00  0.00    +0.000 A 
ATOM     11  C   UNL     1     113.013 127.915 137.644  0.00  0.00    +0.000 A 
ATOM     12  C   UNL     1     113.463 127.425 140.604  0.00  0.00    +0.000 A 
ATOM     13  C   UNL     1     113.598 126.964 139.892  0.00  0.00    +0.000 A 
ENDROOT
BRANCH  11  16
ATOM     14  O   UNL     1     111.052 128.650 135.700  0.00  0.00    +0.000 OA
ATOM     15  O   UNL     1     112.250 129.150 134.681  0.00  0.00    +0.000 OA
ATOM     16  C   UNL     1     112.823 128.224 136.904  0.00  0.00    +0.000 A 
ATOM     17  C   UNL     1     112.032 128.283 136.673  0.00  0.00    +0.000 A 
ATOM     18  C   UNL     1     113.421 128.473 136.395  0.00  0.00    +0.000 A 
ATOM     19  C   UNL     1     111.842 128.591 135.932  0.00  0.00    +0.000 A 
ATOM     20  C   UNL     1     113.230 128.782 135.654  0.00  0.00    +0.000 A 
ATOM     21  C   UNL     1     112.440 128.841 135.422  0.00  0.00    +0.000 A 
ENDBRANCH  11  16
BRANCH   5  22
ATOM     22  O   UNL     1     112.994 128.664 141.220  0.00  0.00    +0.000 OA
BRANCH  22  31
ATOM     23  O   UNL     1     114.036 129.598 140.932  0.00  0.00    +0.000 OA
ATOM     24  O   UNL     1     112.792 131.360 142.145  0.00  0.00    +0.000 OA
ATOM     25  O   UNL     1     114.248 131.706 141.453  0.00  0.00    +0.000 OA
ATOM     26  O   UNL     1     112.164 129.839 142.028  0.00  0.00    +0.000 OA
ATOM     27  C   UNL     1     113.207 130.773 141.741  0.00  0.00    +0.000 C 
ATOM     28  C   UNL     1     113.935 130.945 141.395  0.00  0.00    +0.000 C 
ATOM     29  C   UNL     1     112.893 130.011 141.682  0.00  0.00    +0.000 C 
ATOM     30  C   UNL     1     114.350 130.358 140.990  0.00  0.00    +0.000 C 
ATOM     31  C   UNL     1     113.308 129.424 141.278  0.00  0.00    +0.000 C 
BRANCH  30  33
ATOM     32  O   UNL     1     115.709 130.005 140.724  0.00  0.00    +0.000 OA
ATOM     33  C   UNL     1     115.078 130.531 140.645  0.00  0.00    +0.000 C 
ENDBRANCH  30  33
ENDBRANCH  22  31
ENDBRANCH   5  22
BRANCH   6  34
ATOM     34  O   UNL     1     113.468 126.710 137.025  0.00  0.00    +0.000 OA
BRANCH  34  42
ATOM     35  O   UNL     1     112.344 125.853 137.230  0.00  0.00    +0.000 OA
ATOM     36  O   UNL     1     113.543 124.008 136.099  0.00  0.00    +0.000 OA
ATOM     37  O   UNL     1     114.268 125.480 136.271  0.00  0.00    +0.000 OA
ATOM     38  O   UNL     1     112.019 123.766 136.681  0.00  0.00    +0.000 OA
ATOM     39  C   UNL     1     113.144 124.623 136.475  0.00  0.00    +0.000 C 
ATOM     40  C   UNL     1     113.506 125.360 136.562  0.00  0.00    +0.000 C 
ATOM     41  C   UNL     1     112.382 124.502 136.767  0.00  0.00    +0.000 C 
ATOM     42  C   UNL     1     113.106 125.975 136.939  0.00  0.00    +0.000 C 
ATOM     43  C   UNL     1     111.982 125.117 137.144  0.00  0.00    +0.000 C 
BRANCH  43  46
ATOM     44  O   UNL     1     110.566 125.249 136.999  0.00  0.00    +0.000 OA
ATOM     45  O   UNL     1     111.109 124.623 138.163  0.00  0.00    +0.000 OA
ATOM     46  C   UNL     1     111.219 124.996 137.435  0.00  0.00    +0.000 C 
ENDBRANCH  43  46
ENDBRANCH  34  42
ENDBRANCH   6  34
TORSDOF 7
ENDMDL
MODEL 5
REMARK VINA RESULT:     -10.2      2.401      5.467
REMARK  Name = 131835684
REMARK  7 active torsions:
REMARK  status: ('A' for Active; 'I' for Inactive)
REMARK    1  A    between atoms: O_3  and  C_24
REMARK    2  A    between atoms: O_3  and  C_32
REMARK    3  A    between atoms: O_7  and  C_28
REMARK    4  A    between atoms: O_7  and  C_33
REMARK    5  A    between atoms: C_23  and  C_30
REMARK    6  A    between atoms: C_29  and  C_31
REMARK    7  A    between atoms: C_38  and  C_41
REMARK                            x       y       z     vdW  Elec       q    Type
REMARK                         _______ _______ _______ _____ _____    ______ ____
ROOT
ATOM      1  O   UNL     1     110.305 127.562 137.033  0.00  0.00    +0.000 OA
ATOM      2  O   UNL     1     110.723 125.453 139.611  0.00  0.00    +0.000 OA
ATOM      3  O   UNL     1     109.993 126.959 139.841  0.00  0.00    +0.000 OA
ATOM      4  O   UNL     1     109.539 128.214 139.294  0.00  0.00    +0.000 OA
ATOM      5  C   UNL     1     110.889 125.740 138.189  0.00  0.00    +0.000 A 
ATOM      6  C   UNL     1     109.693 128.514 137.905  0.00  0.00    +0.000 A 
ATOM      7  C   UNL     1     110.152 127.262 138.421  0.00  0.00    +0.000 A 
ATOM      8  C   UNL     1     110.407 127.045 137.668  0.00  0.00    +0.000 A 
ATOM      9  C   UNL     1     110.780 126.283 137.531  0.00  0.00    +0.000 A 
ATOM     10  C   UNL     1     109.795 127.997 138.540  0.00  0.00    +0.000 A 
ATOM     11  C   UNL     1     109.948 128.296 137.151  0.00  0.00    +0.000 A 
ATOM     12  C   UNL     1     110.623 125.967 138.973  0.00  0.00    +0.000 A 
ATOM     13  C   UNL     1     110.252 126.733 139.091  0.00  0.00    +0.000 A 
ENDROOT
BRANCH  11  16
ATOM     14  O   UNL     1     111.050 130.105 135.232  0.00  0.00    +0.000 OA
ATOM     15  O   UNL     1     109.543 130.364 134.612  0.00  0.00    +0.000 OA
ATOM     16  C   UNL     1     109.847 128.813 136.517  0.00  0.00    +0.000 A 
ATOM     17  C   UNL     1     110.500 129.201 136.192  0.00  0.00    +0.000 A 
ATOM     18  C   UNL     1     109.094 128.943 136.207  0.00  0.00    +0.000 A 
ATOM     19  C   UNL     1     110.398 129.718 135.557  0.00  0.00    +0.000 A 
ATOM     20  C   UNL     1     108.993 129.460 135.572  0.00  0.00    +0.000 A 
ATOM     21  C   UNL     1     109.645 129.847 135.247  0.00  0.00    +0.000 A 
ENDBRANCH  11  16
BRANCH   5  22
ATOM     22  O   UNL     1     111.246 125.007 138.067  0.00  0.00    +0.000 OA
BRANCH  22  31
ATOM     23  O   UNL     1     112.608 125.440 138.067  0.00  0.00    +0.000 OA
ATOM     24  O   UNL     1     113.099 123.897 136.196  0.00  0.00    +0.000 OA
ATOM     25  O   UNL     1     114.296 124.844 136.820  0.00  0.00    +0.000 OA
ATOM     26  O   UNL     1     111.574 123.978 136.820  0.00  0.00    +0.000 OA
ATOM     27  C   UNL     1     112.935 124.411 136.820  0.00  0.00    +0.000 C 
ATOM     28  C   UNL     1     113.534 124.885 137.132  0.00  0.00    +0.000 C 
ATOM     29  C   UNL     1     112.172 124.452 137.132  0.00  0.00    +0.000 C 
ATOM     30  C   UNL     1     113.370 125.400 137.756  0.00  0.00    +0.000 C 
ATOM     31  C   UNL     1     112.008 124.966 137.756  0.00  0.00    +0.000 C 
BRANCH  30  33
ATOM     32  O   UNL     1     114.002 126.017 138.879  0.00  0.00    +0.000 OA
ATOM     33  C   UNL     1     113.969 125.873 138.067  0.00  0.00    +0.000 C 
ENDBRANCH  30  33
ENDBRANCH  22  31
ENDBRANCH   5  22
BRANCH   6  34
ATOM     34  O   UNL     1     109.336 129.248 138.024  0.00  0.00    +0.000 OA
BRANCH  34  42
ATOM     35  O   UNL     1     110.491 129.852 138.608  0.00  0.00    +0.000 OA
ATOM     36  O   UNL     1     109.037 131.292 139.998  0.00  0.00    +0.000 OA
ATOM     37  O   UNL     1     108.366 130.208 138.951  0.00  0.00    +0.000 OA
ATOM     38  O   UNL     1     110.678 131.416 140.118  0.00  0.00    +0.000 OA
ATOM     39  C   UNL     1     109.521 130.812 139.535  0.00  0.00    +0.000 C 
ATOM     40  C   UNL     1     109.186 130.270 139.011  0.00  0.00    +0.000 C 
ATOM     41  C   UNL     1     110.342 130.874 139.595  0.00  0.00    +0.000 C 
ATOM     42  C   UNL     1     109.671 129.789 138.547  0.00  0.00    +0.000 C 
ATOM     43  C   UNL     1     110.827 130.394 139.131  0.00  0.00    +0.000 C 
BRANCH  43  46
ATOM     44  O   UNL     1     112.054 130.017 139.759  0.00  0.00    +0.000 OA
ATOM     45  O   UNL     1     112.062 130.956 138.683  0.00  0.00    +0.000 OA
ATOM     46  C   UNL     1     111.647 130.456 139.191  0.00  0.00    +0.000 C 
ENDBRANCH  43  46
ENDBRANCH  34  42
ENDBRANCH   6  34
TORSDOF 7
ENDMDL
MODEL 6
REMARK VINA RESULT:     -10.1      2.757      5.093
REMARK  Name = 131835684
REMARK  7 active torsions:
REMARK  status: ('A' for Active; 'I' for Inactive)
REMARK    1  A    between atoms: O_3  and  C_24
REMARK    2  A    between atoms: O_3  and  C_32
REMARK    3  A    between atoms: O_7  and  C_28
REMARK    4  A    between atoms: O_7  and  C_33
REMARK    5  A    between atoms: C_23  and  C_30
REMARK    6  A    between atoms: C_29  and  C_31
REMARK    7  A    between atoms: C_38  and  C_41
REMARK                            x       y       z     vdW  Elec       q    Type
REMARK                         _______ _______ _______ _____ _____    ______ ____
ROOT
ATOM      1  O   UNL     1     111.375 128.910 137.078  0.00  0.00    +0.000 OA
ATOM      2  O   UNL     1     108.733 129.643 139.015  0.00  0.00    +0.000 OA
ATOM      3  O   UNL     1     110.114 128.933 139.677  0.00  0.00    +0.000 OA
ATOM      4  O   UNL     1     111.446 128.408 139.500  0.00  0.00    +0.000 OA
ATOM      5  C   UNL     1     109.354 129.640 137.693  0.00  0.00    +0.000 A 
ATOM      6  C   UNL     1     112.071 128.396 138.215  0.00  0.00    +0.000 A 
ATOM      7  C   UNL     1     110.750 128.922 138.363  0.00  0.00    +0.000 A 
ATOM      8  C   UNL     1     110.726 129.090 137.555  0.00  0.00    +0.000 A 
ATOM      9  C   UNL     1     110.032 129.451 137.200  0.00  0.00    +0.000 A 
ATOM     10  C   UNL     1     111.422 128.575 138.692  0.00  0.00    +0.000 A 
ATOM     11  C   UNL     1     112.047 128.563 137.407  0.00  0.00    +0.000 A 
ATOM     12  C   UNL     1     109.379 129.465 138.534  0.00  0.00    +0.000 A 
ATOM     13  C   UNL     1     110.082 129.104 138.871  0.00  0.00    +0.000 A 
ENDROOT
BRANCH  11  16
ATOM     14  O   UNL     1     114.300 129.418 135.870  0.00  0.00    +0.000 OA
ATOM     15  O   UNL     1     114.640 127.847 135.496  0.00  0.00    +0.000 OA
ATOM     16  C   UNL     1     112.695 128.384 136.929  0.00  0.00    +0.000 A 
ATOM     17  C   UNL     1     113.173 128.991 136.639  0.00  0.00    +0.000 A 
ATOM     18  C   UNL     1     112.865 127.600 136.743  0.00  0.00    +0.000 A 
ATOM     19  C   UNL     1     113.822 128.812 136.161  0.00  0.00    +0.000 A 
ATOM     20  C   UNL     1     113.513 127.420 136.265  0.00  0.00    +0.000 A 
ATOM     21  C   UNL     1     113.991 128.026 135.974  0.00  0.00    +0.000 A 
ENDBRANCH  11  16
BRANCH   5  22
ATOM     22  O   UNL     1     108.683 129.987 137.361  0.00  0.00    +0.000 OA
BRANCH  22  31
ATOM     23  O   UNL     1     109.200 131.294 137.103  0.00  0.00    +0.000 OA
ATOM     24  O   UNL     1     108.113 131.286 134.880  0.00  0.00    +0.000 OA
ATOM     25  O   UNL     1     108.992 132.595 135.364  0.00  0.00    +0.000 OA
ATOM     26  O   UNL     1     107.958 129.982 135.878  0.00  0.00    +0.000 OA
ATOM     27  C   UNL     1     108.475 131.289 135.621  0.00  0.00    +0.000 C 
ATOM     28  C   UNL     1     108.915 131.943 135.863  0.00  0.00    +0.000 C 
ATOM     29  C   UNL     1     108.398 130.636 136.121  0.00  0.00    +0.000 C 
ATOM     30  C   UNL     1     109.277 131.946 136.605  0.00  0.00    +0.000 C 
ATOM     31  C   UNL     1     108.760 130.639 136.862  0.00  0.00    +0.000 C 
BRANCH  30  33
ATOM     32  O   UNL     1     109.711 132.832 137.638  0.00  0.00    +0.000 OA
ATOM     33  C   UNL     1     109.716 132.600 136.846  0.00  0.00    +0.000 C 
ENDBRANCH  30  33
ENDBRANCH  22  31
ENDBRANCH   5  22
BRANCH   6  34
ATOM     34  O   UNL     1     112.743 128.049 138.544  0.00  0.00    +0.000 OA
BRANCH  34  42
ATOM     35  O   UNL     1     113.219 129.256 139.140  0.00  0.00    +0.000 OA
ATOM     36  O   UNL     1     114.249 127.948 140.970  0.00  0.00    +0.000 OA
ATOM     37  O   UNL     1     113.429 127.176 139.765  0.00  0.00    +0.000 OA
ATOM     38  O   UNL     1     114.383 129.593 140.955  0.00  0.00    +0.000 OA
ATOM     39  C   UNL     1     113.906 128.384 140.360  0.00  0.00    +0.000 C 
ATOM     40  C   UNL     1     113.496 127.998 139.757  0.00  0.00    +0.000 C 
ATOM     41  C   UNL     1     113.973 129.206 140.353  0.00  0.00    +0.000 C 
ATOM     42  C   UNL     1     113.152 128.434 139.147  0.00  0.00    +0.000 C 
ATOM     43  C   UNL     1     113.630 129.643 139.742  0.00  0.00    +0.000 C 
BRANCH  43  46
ATOM     44  O   UNL     1     114.276 130.827 139.273  0.00  0.00    +0.000 OA
ATOM     45  O   UNL     1     113.184 130.925 140.188  0.00  0.00    +0.000 OA
ATOM     46  C   UNL     1     113.696 130.465 139.735  0.00  0.00    +0.000 C 
ENDBRANCH  43  46
ENDBRANCH  34  42
ENDBRANCH   6  34
TORSDOF 7
ENDMDL
MODEL 7
REMARK VINA RESULT:     -10.1      2.769      5.838
REMARK  Name = 131835684
REMARK  7 active torsions:
REMARK  status: ('A' for Active; 'I' for Inactive)
REMARK    1  A    between atoms: O_3  and  C_24
REMARK    2  A    between atoms: O_3  and  C_32
REMARK    3  A    between atoms: O_7  and  C_28
REMARK    4  A    between atoms: O_7  and  C_33
REMARK    5  A    between atoms: C_23  and  C_30
REMARK    6  A    between atoms: C_29  and  C_31
REMARK    7  A    between atoms: C_38  and  C_41
REMARK                            x       y       z     vdW  Elec       q    Type
REMARK                         _______ _______ _______ _____ _____    ______ ____
ROOT
ATOM      1  O   UNL     1     112.048 128.513 137.379  0.00  0.00    +0.000 OA
ATOM      2  O   UNL     1     109.311 127.037 138.646  0.00  0.00    +0.000 OA
ATOM      3  O   UNL     1     109.401 128.719 138.519  0.00  0.00    +0.000 OA
ATOM      4  O   UNL     1     110.140 129.897 138.136  0.00  0.00    +0.000 OA
ATOM      5  C   UNL     1     110.648 126.914 138.071  0.00  0.00    +0.000 A 
ATOM      6  C   UNL     1     111.450 129.796 137.572  0.00  0.00    +0.000 A 
ATOM      7  C   UNL     1     110.738 128.614 137.943  0.00  0.00    +0.000 A 
ATOM      8  C   UNL     1     111.374 128.152 137.691  0.00  0.00    +0.000 A 
ATOM      9  C   UNL     1     111.347 127.295 137.747  0.00  0.00    +0.000 A 
ATOM     10  C   UNL     1     110.776 129.436 137.884  0.00  0.00    +0.000 A 
ATOM     11  C   UNL     1     112.085 129.335 137.320  0.00  0.00    +0.000 A 
ATOM     12  C   UNL     1     109.986 127.395 138.334  0.00  0.00    +0.000 A 
ATOM     13  C   UNL     1     110.032 128.250 138.269  0.00  0.00    +0.000 A 
ENDROOT
BRANCH  11  16
ATOM     14  O   UNL     1     113.745 129.961 135.079  0.00  0.00    +0.000 OA
ATOM     15  O   UNL     1     114.779 130.777 136.073  0.00  0.00    +0.000 OA
ATOM     16  C   UNL     1     112.759 129.696 137.008  0.00  0.00    +0.000 A 
ATOM     17  C   UNL     1     112.915 129.648 136.199  0.00  0.00    +0.000 A 
ATOM     18  C   UNL     1     113.275 130.104 137.505  0.00  0.00    +0.000 A 
ATOM     19  C   UNL     1     113.589 130.008 135.888  0.00  0.00    +0.000 A 
ATOM     20  C   UNL     1     113.948 130.464 137.193  0.00  0.00    +0.000 A 
ATOM     21  C   UNL     1     114.105 130.417 136.385  0.00  0.00    +0.000 A 
ENDBRANCH  11  16
BRANCH   5  22
ATOM     22  O   UNL     1     110.613 126.091 138.129  0.00  0.00    +0.000 OA
BRANCH  22  31
ATOM     23  O   UNL     1     110.575 125.774 136.736  0.00  0.00    +0.000 OA
ATOM     24  O   UNL     1     112.159 123.912 137.117  0.00  0.00    +0.000 OA
ATOM     25  O   UNL     1     111.593 124.216 135.598  0.00  0.00    +0.000 OA
ATOM     26  O   UNL     1     111.669 124.849 138.383  0.00  0.00    +0.000 OA
ATOM     27  C   UNL     1     111.631 124.533 136.990  0.00  0.00    +0.000 C 
ATOM     28  C   UNL     1     111.347 124.685 136.231  0.00  0.00    +0.000 C 
ATOM     29  C   UNL     1     111.386 125.002 137.623  0.00  0.00    +0.000 C 
ATOM     30  C   UNL     1     110.819 125.306 136.104  0.00  0.00    +0.000 C 
ATOM     31  C   UNL     1     110.857 125.623 137.497  0.00  0.00    +0.000 C 
BRANCH  30  33
ATOM     32  O   UNL     1     109.741 125.644 135.229  0.00  0.00    +0.000 OA
ATOM     33  C   UNL     1     110.536 125.458 135.344  0.00  0.00    +0.000 C 
ENDBRANCH  30  33
ENDBRANCH  22  31
ENDBRANCH   5  22
BRANCH   6  34
ATOM     34  O   UNL     1     111.487 130.618 137.513  0.00  0.00    +0.000 OA
BRANCH  34  42
ATOM     35  O   UNL     1     110.579 130.671 136.413  0.00  0.00    +0.000 OA
ATOM     36  O   UNL     1     109.918 132.964 137.066  0.00  0.00    +0.000 OA
ATOM     37  O   UNL     1     111.047 132.147 137.949  0.00  0.00    +0.000 OA
ATOM     38  O   UNL     1     109.229 132.251 135.747  0.00  0.00    +0.000 OA
ATOM     39  C   UNL     1     110.138 132.200 136.848  0.00  0.00    +0.000 C 
ATOM     40  C   UNL     1     110.703 131.791 137.290  0.00  0.00    +0.000 C 
ATOM     41  C   UNL     1     109.794 131.843 136.188  0.00  0.00    +0.000 C 
ATOM     42  C   UNL     1     110.923 131.026 137.072  0.00  0.00    +0.000 C 
ATOM     43  C   UNL     1     110.014 131.079 135.971  0.00  0.00    +0.000 C 
BRANCH  43  46
ATOM     44  O   UNL     1     108.892 130.449 135.348  0.00  0.00    +0.000 OA
ATOM     45  O   UNL     1     110.102 130.638 134.614  0.00  0.00    +0.000 OA
ATOM     46  C   UNL     1     109.670 130.722 135.311  0.00  0.00    +0.000 C 
ENDBRANCH  43  46
ENDBRANCH  34  42
ENDBRANCH   6  34
TORSDOF 7
ENDMDL
MODEL 8
REMARK VINA RESULT:     -10.0      0.924      1.712
REMARK  Name = 131835684
REMARK  7 active torsions:
REMARK  status: ('A' for Active; 'I' for Inactive)
REMARK    1  A    between atoms: O_3  and  C_24
REMARK    2  A    between atoms: O_3  and  C_32
REMARK    3  A    between atoms: O_7  and  C_28
REMARK    4  A    between atoms: O_7  and  C_33
REMARK    5  A    between atoms: C_23  and  C_30
REMARK    6  A    between atoms: C_29  and  C_31
REMARK    7  A    between atoms: C_38  and  C_41
REMARK                            x       y       z     vdW  Elec       q    Type
REMARK                         _______ _______ _______ _____ _____    ______ ____
ROOT
ATOM      1  O   UNL     1     112.973 128.629 138.437  0.00  0.00    +0.000 OA
ATOM      2  O   UNL     1     114.152 127.492 141.368  0.00  0.00    +0.000 OA
ATOM      3  O   UNL     1     114.099 126.485 140.013  0.00  0.00    +0.000 OA
ATOM      4  O   UNL     1     113.773 126.294 138.621  0.00  0.00    +0.000 OA
ATOM      5  C   UNL     1     113.584 128.587 140.587  0.00  0.00    +0.000 A 
ATOM      6  C   UNL     1     113.216 127.353 137.840  0.00  0.00    +0.000 A 
ATOM      7  C   UNL     1     113.530 127.569 139.218  0.00  0.00    +0.000 A 
ATOM      8  C   UNL     1     113.263 128.347 139.156  0.00  0.00    +0.000 A 
ATOM      9  C   UNL     1     113.282 128.874 139.834  0.00  0.00    +0.000 A 
ATOM     10  C   UNL     1     113.506 127.072 138.559  0.00  0.00    +0.000 A 
ATOM     11  C   UNL     1     112.949 128.132 137.779  0.00  0.00    +0.000 A 
ATOM     12  C   UNL     1     113.861 127.777 140.650  0.00  0.00    +0.000 A 
ATOM     13  C   UNL     1     113.834 127.264 139.961  0.00  0.00    +0.000 A 
ENDROOT
BRANCH  11  16
ATOM     14  O   UNL     1     110.747 128.929 136.141  0.00  0.00    +0.000 OA
ATOM     15  O   UNL     1     111.787 129.257 134.903  0.00  0.00    +0.000 OA
ATOM     16  C   UNL     1     112.659 128.413 137.060  0.00  0.00    +0.000 A 
ATOM     17  C   UNL     1     111.848 128.530 136.960  0.00  0.00    +0.000 A 
ATOM     18  C   UNL     1     113.178 128.577 136.441  0.00  0.00    +0.000 A 
ATOM     19  C   UNL     1     111.557 128.811 136.241  0.00  0.00    +0.000 A 
ATOM     20  C   UNL     1     112.888 128.858 135.722  0.00  0.00    +0.000 A 
ATOM     21  C   UNL     1     112.077 128.975 135.622  0.00  0.00    +0.000 A 
ENDBRANCH  11  16
BRANCH   5  22
ATOM     22  O   UNL     1     113.606 129.086 141.243  0.00  0.00    +0.000 OA
BRANCH  22  31
ATOM     23  O   UNL     1     112.261 128.951 141.707  0.00  0.00    +0.000 OA
ATOM     24  O   UNL     1     112.120 131.404 142.010  0.00  0.00    +0.000 OA
ATOM     25  O   UNL     1     110.823 130.451 142.373  0.00  0.00    +0.000 OA
ATOM     26  O   UNL     1     113.512 130.721 141.445  0.00  0.00    +0.000 OA
ATOM     27  C   UNL     1     112.167 130.586 141.909  0.00  0.00    +0.000 C 
ATOM     28  C   UNL     1     111.519 130.109 142.091  0.00  0.00    +0.000 C 
ATOM     29  C   UNL     1     112.863 130.244 141.627  0.00  0.00    +0.000 C 
ATOM     30  C   UNL     1     111.566 129.292 141.990  0.00  0.00    +0.000 C 
ATOM     31  C   UNL     1     112.911 129.427 141.526  0.00  0.00    +0.000 C 
BRANCH  30  33
ATOM     32  O   UNL     1     111.019 128.135 142.626  0.00  0.00    +0.000 OA
ATOM     33  C   UNL     1     110.917 128.816 142.171  0.00  0.00    +0.000 C 
ENDBRANCH  30  33
ENDBRANCH  22  31
ENDBRANCH   5  22
BRANCH   6  34
ATOM     34  O   UNL     1     113.193 126.856 137.182  0.00  0.00    +0.000 OA
BRANCH  34  42
ATOM     35  O   UNL     1     112.053 126.120 137.627  0.00  0.00    +0.000 OA
ATOM     36  O   UNL     1     112.903 124.104 136.471  0.00  0.00    +0.000 OA
ATOM     37  O   UNL     1     113.760 125.513 136.411  0.00  0.00    +0.000 OA
ATOM     38  O   UNL     1     111.480 124.039 137.301  0.00  0.00    +0.000 OA
ATOM     39  C   UNL     1     112.620 124.775 136.856  0.00  0.00    +0.000 C 
ATOM     40  C   UNL     1     113.048 125.481 136.826  0.00  0.00    +0.000 C 
ATOM     41  C   UNL     1     111.908 124.743 137.271  0.00  0.00    +0.000 C 
ATOM     42  C   UNL     1     112.765 126.153 137.212  0.00  0.00    +0.000 C 
ATOM     43  C   UNL     1     111.625 125.415 137.657  0.00  0.00    +0.000 C 
BRANCH  43  46
ATOM     44  O   UNL     1     110.219 125.666 137.726  0.00  0.00    +0.000 OA
ATOM     45  O   UNL     1     110.892 125.068 138.834  0.00  0.00    +0.000 OA
ATOM     46  C   UNL     1     110.912 125.383 138.072  0.00  0.00    +0.000 C 
ENDBRANCH  43  46
ENDBRANCH  34  42
ENDBRANCH   6  34
TORSDOF 7
ENDMDL
MODEL 9
REMARK VINA RESULT:      -9.9      2.608      6.104
REMARK  Name = 131835684
REMARK  7 active torsions:
REMARK  status: ('A' for Active; 'I' for Inactive)
REMARK    1  A    between atoms: O_3  and  C_24
REMARK    2  A    between atoms: O_3  and  C_32
REMARK    3  A    between atoms: O_7  and  C_28
REMARK    4  A    between atoms: O_7  and  C_33
REMARK    5  A    between atoms: C_23  and  C_30
REMARK    6  A    between atoms: C_29  and  C_31
REMARK    7  A    between atoms: C_38  and  C_41
REMARK                            x       y       z     vdW  Elec       q    Type
REMARK                         _______ _______ _______ _____ _____    ______ ____
ROOT
ATOM      1  O   UNL     1     112.554 128.979 137.346  0.00  0.00    +0.000 OA
ATOM      2  O   UNL     1     110.445 127.758 135.036  0.00  0.00    +0.000 OA
ATOM      3  O   UNL     1     110.507 129.416 135.355  0.00  0.00    +0.000 OA
ATOM      4  O   UNL     1     111.073 130.517 136.095  0.00  0.00    +0.000 OA
ATOM      5  C   UNL     1     111.480 127.518 136.039  0.00  0.00    +0.000 A 
ATOM      6  C   UNL     1     112.085 130.302 137.080  0.00  0.00    +0.000 A 
ATOM      7  C   UNL     1     111.541 129.194 136.361  0.00  0.00    +0.000 A 
ATOM      8  C   UNL     1     112.035 128.681 136.778  0.00  0.00    +0.000 A 
ATOM      9  C   UNL     1     112.018 127.835 136.629  0.00  0.00    +0.000 A 
ATOM     10  C   UNL     1     111.566 130.004 136.512  0.00  0.00    +0.000 A 
ATOM     11  C   UNL     1     112.579 129.789 137.497  0.00  0.00    +0.000 A 
ATOM     12  C   UNL     1     110.966 128.053 135.605  0.00  0.00    +0.000 A 
ATOM     13  C   UNL     1     110.997 128.896 135.767  0.00  0.00    +0.000 A 
ENDROOT
BRANCH  11  16
ATOM     14  O   UNL     1     113.299 130.164 140.237  0.00  0.00    +0.000 OA
ATOM     15  O   UNL     1     114.654 130.980 139.770  0.00  0.00    +0.000 OA
ATOM     16  C   UNL     1     113.098 130.087 138.065  0.00  0.00    +0.000 A 
ATOM     17  C   UNL     1     112.939 129.976 138.867  0.00  0.00    +0.000 A 
ATOM     18  C   UNL     1     113.775 130.495 137.831  0.00  0.00    +0.000 A 
ATOM     19  C   UNL     1     113.458 130.274 139.435  0.00  0.00    +0.000 A 
ATOM     20  C   UNL     1     114.294 130.793 138.399  0.00  0.00    +0.000 A 
ATOM     21  C   UNL     1     114.135 130.683 139.202  0.00  0.00    +0.000 A 
ENDBRANCH  11  16
BRANCH   5  22
ATOM     22  O   UNL     1     111.457 126.707 135.890  0.00  0.00    +0.000 OA
BRANCH  22  31
ATOM     23  O   UNL     1     110.788 126.297 137.084  0.00  0.00    +0.000 OA
ATOM     24  O   UNL     1     112.288 124.336 137.250  0.00  0.00    +0.000 OA
ATOM     25  O   UNL     1     111.120 124.579 138.388  0.00  0.00    +0.000 OA
ATOM     26  O   UNL     1     112.457 125.400 136.001  0.00  0.00    +0.000 OA
ATOM     27  C   UNL     1     111.788 124.989 137.195  0.00  0.00    +0.000 C 
ATOM     28  C   UNL     1     111.204 125.112 137.764  0.00  0.00    +0.000 C 
ATOM     29  C   UNL     1     111.872 125.522 136.570  0.00  0.00    +0.000 C 
ATOM     30  C   UNL     1     110.703 125.765 137.708  0.00  0.00    +0.000 C 
ATOM     31  C   UNL     1     111.372 126.176 136.514  0.00  0.00    +0.000 C 
BRANCH  30  33
ATOM     32  O   UNL     1     109.387 126.197 138.058  0.00  0.00    +0.000 OA
ATOM     33  C   UNL     1     110.119 125.887 138.277  0.00  0.00    +0.000 C 
ENDBRANCH  30  33
ENDBRANCH  22  31
ENDBRANCH   5  22
BRANCH   6  34
ATOM     34  O   UNL     1     112.111 131.113 137.231  0.00  0.00    +0.000 OA
BRANCH  34  42
ATOM     35  O   UNL     1     110.915 131.147 138.011  0.00  0.00    +0.000 OA
ATOM     36  O   UNL     1     110.420 133.415 137.156  0.00  0.00    +0.000 OA
ATOM     37  O   UNL     1     111.781 132.626 136.661  0.00  0.00    +0.000 OA
ATOM     38  O   UNL     1     109.388 132.692 138.221  0.00  0.00    +0.000 OA
ATOM     39  C   UNL     1     110.585 132.659 137.441  0.00  0.00    +0.000 C 
ATOM     40  C   UNL     1     111.266 132.264 137.193  0.00  0.00    +0.000 C 
ATOM     41  C   UNL     1     110.069 132.298 137.973  0.00  0.00    +0.000 C 
ATOM     42  C   UNL     1     111.431 131.507 137.478  0.00  0.00    +0.000 C 
ATOM     43  C   UNL     1     110.234 131.541 138.259  0.00  0.00    +0.000 C 
BRANCH  43  46
ATOM     44  O   UNL     1     109.060 130.767 138.513  0.00  0.00    +0.000 OA
ATOM     45  O   UNL     1     109.859 131.230 139.603  0.00  0.00    +0.000 OA
ATOM     46  C   UNL     1     109.718 131.180 138.791  0.00  0.00    +0.000 C 
ENDBRANCH  43  46
ENDBRANCH  34  42
ENDBRANCH   6  34
TORSDOF 7
ENDMDL
