MODEL 1
REMARK VINA RESULT:     -11.0      0.000      0.000
REMARK  Name = 44258890
REMARK  15 active torsions:
REMARK  status: ('A' for Active; 'I' for Inactive)
REMARK    1  A    between atoms: O_1  and  C_25
REMARK    2  A    between atoms: O_1  and  C_28
REMARK    3  A    between atoms: O_4  and  C_30
REMARK    4  A    between atoms: O_4  and  C_42
REMARK    5  A    between atoms: O_13  and  C_41
REMARK    6  A    between atoms: O_13  and  C_47
REMARK    7  A    between atoms: O_14  and  C_39
REMARK    8  A    between atoms: O_14  and  C_53
REMARK    9  A    between atoms: O_23  and  C_64
REMARK   10  A    between atoms: C_31  and  C_35
REMARK   11  A    between atoms: C_34  and  C_36
REMARK   12  A    between atoms: C_40  and  C_43
REMARK   13  A    between atoms: C_44  and  C_51
REMARK   14  A    between atoms: C_53  and  C_56
REMARK   15  A    between atoms: C_60  and  C_61
REMARK                            x       y       z     vdW  Elec       q    Type
REMARK                         _______ _______ _______ _____ _____    ______ ____
ROOT
ATOM      1  O   UNL     1     108.897 126.511 138.597  0.00  0.00    +0.000 OA
ATOM      2  O   UNL     1     111.013 126.146 139.829  0.00  0.00    +0.000 OA
ATOM      3  O   UNL     1     110.317 125.423 140.866  0.00  0.00    +0.000 OA
ATOM      4  C   UNL     1     110.312 126.684 138.706  0.00  0.00    +0.000 A 
ATOM      5  C   UNL     1     109.606 126.806 138.295  0.00  0.00    +0.000 A 
ATOM      6  C   UNL     1     110.307 126.267 139.418  0.00  0.00    +0.000 A 
ATOM      7  C   UNL     1     109.598 125.972 139.719  0.00  0.00    +0.000 A 
ATOM      8  C   UNL     1     108.137 125.357 140.353  0.00  0.00    +0.000 A 
ATOM      9  C   UNL     1     108.894 126.094 139.309  0.00  0.00    +0.000 A 
ATOM     10  C   UNL     1     108.148 125.792 139.611  0.00  0.00    +0.000 A 
ATOM     11  C   UNL     1     109.607 125.540 140.462  0.00  0.00    +0.000 A 
ATOM     12  C   UNL     1     108.872 125.230 140.780  0.00  0.00    +0.000 A 
ENDROOT
BRANCH   5  14
ATOM     13  O   UNL     1     109.625 128.476 135.449  0.00  0.00    +0.000 OA
ATOM     14  C   UNL     1     109.611 127.223 137.584  0.00  0.00    +0.000 A 
ATOM     15  C   UNL     1     109.602 126.815 136.866  0.00  0.00    +0.000 A 
ATOM     16  C   UNL     1     109.625 128.048 137.590  0.00  0.00    +0.000 A 
ATOM     17  C   UNL     1     109.607 127.233 136.155  0.00  0.00    +0.000 A 
ATOM     18  C   UNL     1     109.630 128.465 136.878  0.00  0.00    +0.000 A 
ATOM     19  C   UNL     1     109.621 128.058 136.160  0.00  0.00    +0.000 A 
ENDBRANCH   5  14
BRANCH   4  20
ATOM     20  O   UNL     1     111.021 126.979 138.405  0.00  0.00    +0.000 OA
BRANCH  20  27
ATOM     21  O   UNL     1     111.508 125.725 137.924  0.00  0.00    +0.000 OA
ATOM     22  O   UNL     1     113.822 126.415 138.466  0.00  0.00    +0.000 OA
ATOM     23  O   UNL     1     113.537 124.931 137.804  0.00  0.00    +0.000 OA
ATOM     24  C   UNL     1     112.421 126.697 138.436  0.00  0.00    +0.000 C 
ATOM     25  C   UNL     1     113.051 126.185 138.285  0.00  0.00    +0.000 C 
ATOM     26  C   UNL     1     112.908 125.443 137.954  0.00  0.00    +0.000 C 
ATOM     27  C   UNL     1     111.650 126.467 138.255  0.00  0.00    +0.000 C 
ATOM     28  C   UNL     1     112.136 125.213 137.774  0.00  0.00    +0.000 C 
BRANCH  28  30
ATOM     29  O   UNL     1     111.673 124.411 136.685  0.00  0.00    +0.000 OA
ATOM     30  C   UNL     1     111.994 124.471 137.443  0.00  0.00    +0.000 C 
ENDBRANCH  28  30
BRANCH  24  31
ATOM     31  O   UNL     1     112.564 127.439 138.767  0.00  0.00    +0.000 OA
BRANCH  31  36
ATOM     32  O   UNL     1     112.913 127.949 137.479  0.00  0.00    +0.000 OA
ATOM     33  O   UNL     1     112.942 128.895 139.446  0.00  0.00    +0.000 OA
ATOM     34  O   UNL     1     113.480 130.133 138.497  0.00  0.00    +0.000 OA
ATOM     35  O   UNL     1     113.641 129.915 136.869  0.00  0.00    +0.000 OA
ATOM     36  C   UNL     1     112.833 128.058 138.292  0.00  0.00    +0.000 C 
ATOM     37  C   UNL     1     113.022 128.786 138.633  0.00  0.00    +0.000 C 
ATOM     38  C   UNL     1     113.291 129.405 138.158  0.00  0.00    +0.000 C 
ATOM     39  C   UNL     1     113.372 129.296 137.344  0.00  0.00    +0.000 C 
ATOM     40  C   UNL     1     113.182 128.568 137.005  0.00  0.00    +0.000 C 
BRANCH  40  42
ATOM     41  O   UNL     1     113.926 128.072 135.890  0.00  0.00    +0.000 OA
ATOM     42  C   UNL     1     113.263 128.460 136.190  0.00  0.00    +0.000 C 
ENDBRANCH  40  42
ENDBRANCH  31  36
ENDBRANCH  24  31
ENDBRANCH  20  27
ENDBRANCH   4  20
BRANCH   8  43
ATOM     43  O   UNL     1     107.427 125.063 140.652  0.00  0.00    +0.000 OA
BRANCH  43  51
ATOM     44  O   UNL     1     107.202 125.965 141.737  0.00  0.00    +0.000 OA
ATOM     45  O   UNL     1     104.846 126.230 141.029  0.00  0.00    +0.000 OA
ATOM     46  O   UNL     1     105.406 127.044 142.351  0.00  0.00    +0.000 OA
ATOM     47  C   UNL     1     105.631 126.142 141.265  0.00  0.00    +0.000 C 
ATOM     48  C   UNL     1     105.912 126.548 141.926  0.00  0.00    +0.000 C 
ATOM     49  C   UNL     1     106.136 125.647 140.841  0.00  0.00    +0.000 C 
ATOM     50  C   UNL     1     106.697 126.460 142.162  0.00  0.00    +0.000 C 
ATOM     51  C   UNL     1     106.922 125.558 141.077  0.00  0.00    +0.000 C 
BRANCH  50  53
ATOM     52  O   UNL     1     107.272 126.448 143.470  0.00  0.00    +0.000 OA
ATOM     53  C   UNL     1     106.977 126.866 142.823  0.00  0.00    +0.000 C 
ENDBRANCH  50  53
BRANCH  49  54
ATOM     54  O   UNL     1     105.855 125.240 140.180  0.00  0.00    +0.000 OA
BRANCH  54  56
ATOM     55  O   UNL     1     105.454 124.066 140.887  0.00  0.00    +0.000 OA
ATOM     56  C   UNL     1     105.337 124.606 140.274  0.00  0.00    +0.000 C 
BRANCH  56  57
ATOM     57  C   UNL     1     104.703 124.510 139.756  0.00  0.00    +0.000 C 
ATOM     58  C   UNL     1     104.630 123.814 139.318  0.00  0.00    +0.000 C 
BRANCH  58  60
ATOM     59  O   UNL     1     102.093 123.433 137.243  0.00  0.00    +0.000 OA
ATOM     60  C   UNL     1     103.995 123.719 138.799  0.00  0.00    +0.000 A 
ATOM     61  C   UNL     1     104.129 123.459 138.028  0.00  0.00    +0.000 A 
ATOM     62  C   UNL     1     103.227 123.883 139.052  0.00  0.00    +0.000 A 
ATOM     63  C   UNL     1     103.495 123.363 137.509  0.00  0.00    +0.000 A 
ATOM     64  C   UNL     1     102.593 123.788 138.532  0.00  0.00    +0.000 A 
ATOM     65  C   UNL     1     102.727 123.528 137.761  0.00  0.00    +0.000 A 
BRANCH  63  66
ATOM     66  O   UNL     1     103.629 123.104 136.737  0.00  0.00    +0.000 OA
ATOM     67  C   UNL     1     104.400 123.048 136.449  0.00  0.00    +0.000 C 
ENDBRANCH  63  66
ENDBRANCH  58  60
ENDBRANCH  56  57
ENDBRANCH  54  56
ENDBRANCH  49  54
ENDBRANCH  43  51
ENDBRANCH   8  43
TORSDOF 15
ENDMDL
MODEL 2
REMARK VINA RESULT:     -10.6      3.031      5.637
REMARK  Name = 44258890
REMARK  15 active torsions:
REMARK  status: ('A' for Active; 'I' for Inactive)
REMARK    1  A    between atoms: O_1  and  C_25
REMARK    2  A    between atoms: O_1  and  C_28
REMARK    3  A    between atoms: O_4  and  C_30
REMARK    4  A    between atoms: O_4  and  C_42
REMARK    5  A    between atoms: O_13  and  C_41
REMARK    6  A    between atoms: O_13  and  C_47
REMARK    7  A    between atoms: O_14  and  C_39
REMARK    8  A    between atoms: O_14  and  C_53
REMARK    9  A    between atoms: O_23  and  C_64
REMARK   10  A    between atoms: C_31  and  C_35
REMARK   11  A    between atoms: C_34  and  C_36
REMARK   12  A    between atoms: C_40  and  C_43
REMARK   13  A    between atoms: C_44  and  C_51
REMARK   14  A    between atoms: C_53  and  C_56
REMARK   15  A    between atoms: C_60  and  C_61
REMARK                            x       y       z     vdW  Elec       q    Type
REMARK                         _______ _______ _______ _____ _____    ______ ____
ROOT
ATOM      1  O   UNL     1     109.362 127.322 141.805  0.00  0.00    +0.000 OA
ATOM      2  O   UNL     1     108.627 129.342 140.578  0.00  0.00    +0.000 OA
ATOM      3  O   UNL     1     107.301 129.231 141.133  0.00  0.00    +0.000 OA
ATOM      4  C   UNL     1     109.648 128.399 140.909  0.00  0.00    +0.000 A 
ATOM      5  C   UNL     1     109.893 127.725 141.319  0.00  0.00    +0.000 A 
ATOM      6  C   UNL     1     108.872 128.669 140.987  0.00  0.00    +0.000 A 
ATOM      7  C   UNL     1     108.341 128.266 141.474  0.00  0.00    +0.000 A 
ATOM      8  C   UNL     1     107.234 127.440 142.477  0.00  0.00    +0.000 A 
ATOM      9  C   UNL     1     108.586 127.593 141.882  0.00  0.00    +0.000 A 
ATOM     10  C   UNL     1     108.044 127.164 142.392  0.00  0.00    +0.000 A 
ATOM     11  C   UNL     1     107.536 128.557 141.546  0.00  0.00    +0.000 A 
ATOM     12  C   UNL     1     106.979 128.142 142.051  0.00  0.00    +0.000 A 
ENDROOT
BRANCH   5  14
ATOM     13  O   UNL     1     112.995 126.645 141.006  0.00  0.00    +0.000 OA
ATOM     14  C   UNL     1     110.668 127.455 141.241  0.00  0.00    +0.000 A 
ATOM     15  C   UNL     1     111.234 127.654 141.808  0.00  0.00    +0.000 A 
ATOM     16  C   UNL     1     110.879 126.986 140.595  0.00  0.00    +0.000 A 
ATOM     17  C   UNL     1     112.009 127.384 141.729  0.00  0.00    +0.000 A 
ATOM     18  C   UNL     1     111.654 126.716 140.518  0.00  0.00    +0.000 A 
ATOM     19  C   UNL     1     112.220 126.915 141.085  0.00  0.00    +0.000 A 
ENDBRANCH   5  14
BRANCH   4  20
ATOM     20  O   UNL     1     110.178 128.802 140.423  0.00  0.00    +0.000 OA
BRANCH  20  27
ATOM     21  O   UNL     1     110.374 129.905 141.310  0.00  0.00    +0.000 OA
ATOM     22  O   UNL     1     110.633 131.419 139.369  0.00  0.00    +0.000 OA
ATOM     23  O   UNL     1     110.741 132.017 140.902  0.00  0.00    +0.000 OA
ATOM     24  C   UNL     1     110.405 130.110 139.896  0.00  0.00    +0.000 C 
ATOM     25  C   UNL     1     110.546 130.914 140.016  0.00  0.00    +0.000 C 
ATOM     26  C   UNL     1     110.601 131.213 140.783  0.00  0.00    +0.000 C 
ATOM     27  C   UNL     1     110.319 129.605 140.543  0.00  0.00    +0.000 C 
ATOM     28  C   UNL     1     110.514 130.708 141.430  0.00  0.00    +0.000 C 
BRANCH  28  30
ATOM     29  O   UNL     1     111.164 130.742 142.702  0.00  0.00    +0.000 OA
ATOM     30  C   UNL     1     110.569 131.008 142.196  0.00  0.00    +0.000 C 
ENDBRANCH  28  30
BRANCH  24  31
ATOM     31  O   UNL     1     110.351 129.811 139.129  0.00  0.00    +0.000 OA
BRANCH  31  36
ATOM     32  O   UNL     1     111.773 129.870 139.004  0.00  0.00    +0.000 OA
ATOM     33  O   UNL     1     110.245 129.149 137.622  0.00  0.00    +0.000 OA
ATOM     34  O   UNL     1     111.615 128.877 136.742  0.00  0.00    +0.000 OA
ATOM     35  O   UNL     1     113.090 129.267 137.371  0.00  0.00    +0.000 OA
ATOM     36  C   UNL     1     111.036 129.675 138.690  0.00  0.00    +0.000 C 
ATOM     37  C   UNL     1     110.982 129.344 137.936  0.00  0.00    +0.000 C 
ATOM     38  C   UNL     1     111.667 129.208 137.496  0.00  0.00    +0.000 C 
ATOM     39  C   UNL     1     112.405 129.403 137.810  0.00  0.00    +0.000 C 
ATOM     40  C   UNL     1     112.457 129.734 138.564  0.00  0.00    +0.000 C 
BRANCH  40  42
ATOM     41  O   UNL     1     113.520 129.471 139.483  0.00  0.00    +0.000 OA
ATOM     42  C   UNL     1     113.196 129.929 138.878  0.00  0.00    +0.000 C 
ENDBRANCH  40  42
ENDBRANCH  31  36
ENDBRANCH  24  31
ENDBRANCH  20  27
ENDBRANCH   4  20
BRANCH   8  43
ATOM     43  O   UNL     1     106.706 127.036 142.964  0.00  0.00    +0.000 OA
BRANCH  43  51
ATOM     44  O   UNL     1     106.135 126.206 141.950  0.00  0.00    +0.000 OA
ATOM     45  O   UNL     1     106.006 124.330 143.558  0.00  0.00    +0.000 OA
ATOM     46  O   UNL     1     105.478 124.125 142.008  0.00  0.00    +0.000 OA
ATOM     47  C   UNL     1     106.049 124.955 143.022  0.00  0.00    +0.000 C 
ATOM     48  C   UNL     1     105.785 124.853 142.247  0.00  0.00    +0.000 C 
ATOM     49  C   UNL     1     106.356 125.682 143.261  0.00  0.00    +0.000 C 
ATOM     50  C   UNL     1     105.828 125.479 141.711  0.00  0.00    +0.000 C 
ATOM     51  C   UNL     1     106.399 126.308 142.725  0.00  0.00    +0.000 C 
BRANCH  50  53
ATOM     52  O   UNL     1     105.122 125.969 140.570  0.00  0.00    +0.000 OA
ATOM     53  C   UNL     1     105.564 125.376 140.936  0.00  0.00    +0.000 C 
ENDBRANCH  50  53
BRANCH  49  54
ATOM     54  O   UNL     1     106.619 125.784 144.036  0.00  0.00    +0.000 OA
BRANCH  54  56
ATOM     55  O   UNL     1     105.348 126.168 144.564  0.00  0.00    +0.000 OA
ATOM     56  C   UNL     1     106.078 125.795 144.659  0.00  0.00    +0.000 C 
BRANCH  56  57
ATOM     57  C   UNL     1     106.267 125.433 145.375  0.00  0.00    +0.000 C 
ATOM     58  C   UNL     1     106.177 125.849 146.083  0.00  0.00    +0.000 C 
BRANCH  58  60
ATOM     59  O   UNL     1     106.931 124.402 148.951  0.00  0.00    +0.000 OA
ATOM     60  C   UNL     1     106.366 125.487 146.800  0.00  0.00    +0.000 A 
ATOM     61  C   UNL     1     105.767 125.177 147.275  0.00  0.00    +0.000 A 
ATOM     62  C   UNL     1     107.153 125.436 147.042  0.00  0.00    +0.000 A 
ATOM     63  C   UNL     1     105.955 124.815 147.992  0.00  0.00    +0.000 A 
ATOM     64  C   UNL     1     107.341 125.074 147.760  0.00  0.00    +0.000 A 
ATOM     65  C   UNL     1     106.742 124.763 148.234  0.00  0.00    +0.000 A 
BRANCH  63  66
ATOM     66  O   UNL     1     105.356 124.504 148.467  0.00  0.00    +0.000 OA
ATOM     67  C   UNL     1     104.636 124.901 148.535  0.00  0.00    +0.000 C 
ENDBRANCH  63  66
ENDBRANCH  58  60
ENDBRANCH  56  57
ENDBRANCH  54  56
ENDBRANCH  49  54
ENDBRANCH  43  51
ENDBRANCH   8  43
TORSDOF 15
ENDMDL
MODEL 3
REMARK VINA RESULT:     -10.2      2.723      4.576
REMARK  Name = 44258890
REMARK  15 active torsions:
REMARK  status: ('A' for Active; 'I' for Inactive)
REMARK    1  A    between atoms: O_1  and  C_25
REMARK    2  A    between atoms: O_1  and  C_28
REMARK    3  A    between atoms: O_4  and  C_30
REMARK    4  A    between atoms: O_4  and  C_42
REMARK    5  A    between atoms: O_13  and  C_41
REMARK    6  A    between atoms: O_13  and  C_47
REMARK    7  A    between atoms: O_14  and  C_39
REMARK    8  A    between atoms: O_14  and  C_53
REMARK    9  A    between atoms: O_23  and  C_64
REMARK   10  A    between atoms: C_31  and  C_35
REMARK   11  A    between atoms: C_34  and  C_36
REMARK   12  A    between atoms: C_40  and  C_43
REMARK   13  A    between atoms: C_44  and  C_51
REMARK   14  A    between atoms: C_53  and  C_56
REMARK   15  A    between atoms: C_60  and  C_61
REMARK                            x       y       z     vdW  Elec       q    Type
REMARK                         _______ _______ _______ _____ _____    ______ ____
ROOT
ATOM      1  O   UNL     1     110.282 126.932 140.913  0.00  0.00    +0.000 OA
ATOM      2  O   UNL     1     109.244 125.749 139.002  0.00  0.00    +0.000 OA
ATOM      3  O   UNL     1     108.014 125.582 139.737  0.00  0.00    +0.000 OA
ATOM      4  C   UNL     1     110.366 126.417 139.582  0.00  0.00    +0.000 A 
ATOM      5  C   UNL     1     110.712 126.811 140.220  0.00  0.00    +0.000 A 
ATOM      6  C   UNL     1     109.590 126.144 139.639  0.00  0.00    +0.000 A 
ATOM      7  C   UNL     1     109.159 126.265 140.333  0.00  0.00    +0.000 A 
ATOM      8  C   UNL     1     108.258 126.509 141.762  0.00  0.00    +0.000 A 
ATOM      9  C   UNL     1     109.505 126.659 140.969  0.00  0.00    +0.000 A 
ATOM     10  C   UNL     1     109.068 126.791 141.696  0.00  0.00    +0.000 A 
ATOM     11  C   UNL     1     108.351 125.975 140.379  0.00  0.00    +0.000 A 
ATOM     12  C   UNL     1     107.898 126.099 141.098  0.00  0.00    +0.000 A 
ENDROOT
BRANCH   5  14
ATOM     13  O   UNL     1     113.819 127.901 139.992  0.00  0.00    +0.000 OA
ATOM     14  C   UNL     1     111.488 127.084 140.163  0.00  0.00    +0.000 A 
ATOM     15  C   UNL     1     111.636 127.874 139.976  0.00  0.00    +0.000 A 
ATOM     16  C   UNL     1     112.118 126.566 140.292  0.00  0.00    +0.000 A 
ATOM     17  C   UNL     1     112.413 128.146 139.920  0.00  0.00    +0.000 A 
ATOM     18  C   UNL     1     112.894 126.839 140.235  0.00  0.00    +0.000 A 
ATOM     19  C   UNL     1     113.042 127.629 140.048  0.00  0.00    +0.000 A 
ENDBRANCH   5  14
BRANCH   4  20
ATOM     20  O   UNL     1     110.796 126.296 138.889  0.00  0.00    +0.000 OA
BRANCH  20  27
ATOM     21  O   UNL     1     110.120 127.273 138.096  0.00  0.00    +0.000 OA
ATOM     22  O   UNL     1     110.290 125.790 136.122  0.00  0.00    +0.000 OA
ATOM     23  O   UNL     1     109.557 127.262 135.988  0.00  0.00    +0.000 OA
ATOM     24  C   UNL     1     110.544 126.043 137.506  0.00  0.00    +0.000 C 
ATOM     25  C   UNL     1     110.234 126.285 136.780  0.00  0.00    +0.000 C 
ATOM     26  C   UNL     1     109.867 127.021 136.713  0.00  0.00    +0.000 C 
ATOM     27  C   UNL     1     110.487 126.537 138.164  0.00  0.00    +0.000 C 
ATOM     28  C   UNL     1     109.810 127.515 137.371  0.00  0.00    +0.000 C 
BRANCH  28  30
ATOM     29  O   UNL     1     109.863 128.939 137.479  0.00  0.00    +0.000 OA
ATOM     30  C   UNL     1     109.444 128.250 137.304  0.00  0.00    +0.000 C 
ENDBRANCH  28  30
BRANCH  24  31
ATOM     31  O   UNL     1     110.910 125.307 137.573  0.00  0.00    +0.000 OA
BRANCH  31  36
ATOM     32  O   UNL     1     112.102 125.841 136.994  0.00  0.00    +0.000 OA
ATOM     33  O   UNL     1     111.568 123.794 137.533  0.00  0.00    +0.000 OA
ATOM     34  O   UNL     1     113.089 123.572 136.934  0.00  0.00    +0.000 OA
ATOM     35  O   UNL     1     113.953 124.862 136.374  0.00  0.00    +0.000 OA
ATOM     36  C   UNL     1     111.671 125.196 137.273  0.00  0.00    +0.000 C 
ATOM     37  C   UNL     1     111.999 124.439 137.254  0.00  0.00    +0.000 C 
ATOM     38  C   UNL     1     112.760 124.328 136.954  0.00  0.00    +0.000 C 
ATOM     39  C   UNL     1     113.192 124.973 136.674  0.00  0.00    +0.000 C 
ATOM     40  C   UNL     1     112.863 125.729 136.694  0.00  0.00    +0.000 C 
BRANCH  40  42
ATOM     41  O   UNL     1     113.632 126.907 136.947  0.00  0.00    +0.000 OA
ATOM     42  C   UNL     1     113.295 126.375 136.414  0.00  0.00    +0.000 C 
ENDBRANCH  40  42
ENDBRANCH  31  36
ENDBRANCH  24  31
ENDBRANCH  20  27
ENDBRANCH   4  20
BRANCH   8  43
ATOM     43  O   UNL     1     107.830 126.632 142.456  0.00  0.00    +0.000 OA
BRANCH  43  51
ATOM     44  O   UNL     1     107.402 127.961 142.153  0.00  0.00    +0.000 OA
ATOM     45  O   UNL     1     105.229 127.510 143.248  0.00  0.00    +0.000 OA
ATOM     46  O   UNL     1     105.524 128.990 142.580  0.00  0.00    +0.000 OA
ATOM     47  C   UNL     1     105.953 127.661 142.883  0.00  0.00    +0.000 C 
ATOM     48  C   UNL     1     106.101 128.400 142.549  0.00  0.00    +0.000 C 
ATOM     49  C   UNL     1     106.529 127.071 142.852  0.00  0.00    +0.000 C 
ATOM     50  C   UNL     1     106.826 128.551 142.184  0.00  0.00    +0.000 C 
ATOM     51  C   UNL     1     107.254 127.221 142.487  0.00  0.00    +0.000 C 
BRANCH  50  53
ATOM     52  O   UNL     1     107.040 129.367 141.031  0.00  0.00    +0.000 OA
ATOM     53  C   UNL     1     106.974 129.290 141.850  0.00  0.00    +0.000 C 
ENDBRANCH  50  53
BRANCH  49  54
ATOM     54  O   UNL     1     106.381 126.331 143.186  0.00  0.00    +0.000 OA
BRANCH  54  56
ATOM     55  O   UNL     1     106.949 126.616 144.465  0.00  0.00    +0.000 OA
ATOM     56  C   UNL     1     106.375 126.242 144.006  0.00  0.00    +0.000 C 
BRANCH  56  57
ATOM     57  C   UNL     1     105.796 125.779 144.366  0.00  0.00    +0.000 C 
ATOM     58  C   UNL     1     106.006 125.241 144.957  0.00  0.00    +0.000 C 
BRANCH  58  60
ATOM     59  O   UNL     1     103.688 123.387 146.399  0.00  0.00    +0.000 OA
ATOM     60  C   UNL     1     105.427 124.777 145.317  0.00  0.00    +0.000 A 
ATOM     61  C   UNL     1     105.245 124.891 146.113  0.00  0.00    +0.000 A 
ATOM     62  C   UNL     1     105.029 124.201 144.881  0.00  0.00    +0.000 A 
ATOM     63  C   UNL     1     104.665 124.428 146.474  0.00  0.00    +0.000 A 
ATOM     64  C   UNL     1     104.449 123.737 145.242  0.00  0.00    +0.000 A 
ATOM     65  C   UNL     1     104.268 123.851 146.039  0.00  0.00    +0.000 A 
BRANCH  63  66
ATOM     66  O   UNL     1     104.483 124.541 147.271  0.00  0.00    +0.000 OA
ATOM     67  C   UNL     1     105.066 124.802 147.794  0.00  0.00    +0.000 C 
ENDBRANCH  63  66
ENDBRANCH  58  60
ENDBRANCH  56  57
ENDBRANCH  54  56
ENDBRANCH  49  54
ENDBRANCH  43  51
ENDBRANCH   8  43
TORSDOF 15
ENDMDL
MODEL 4
REMARK VINA RESULT:     -10.2      1.959      3.289
REMARK  Name = 44258890
REMARK  15 active torsions:
REMARK  status: ('A' for Active; 'I' for Inactive)
REMARK    1  A    between atoms: O_1  and  C_25
REMARK    2  A    between atoms: O_1  and  C_28
REMARK    3  A    between atoms: O_4  and  C_30
REMARK    4  A    between atoms: O_4  and  C_42
REMARK    5  A    between atoms: O_13  and  C_41
REMARK    6  A    between atoms: O_13  and  C_47
REMARK    7  A    between atoms: O_14  and  C_39
REMARK    8  A    between atoms: O_14  and  C_53
REMARK    9  A    between atoms: O_23  and  C_64
REMARK   10  A    between atoms: C_31  and  C_35
REMARK   11  A    between atoms: C_34  and  C_36
REMARK   12  A    between atoms: C_40  and  C_43
REMARK   13  A    between atoms: C_44  and  C_51
REMARK   14  A    between atoms: C_53  and  C_56
REMARK   15  A    between atoms: C_60  and  C_61
REMARK                            x       y       z     vdW  Elec       q    Type
REMARK                         _______ _______ _______ _____ _____    ______ ____
ROOT
ATOM      1  O   UNL     1     109.262 127.550 139.133  0.00  0.00    +0.000 OA
ATOM      2  O   UNL     1     111.515 126.909 139.934  0.00  0.00    +0.000 OA
ATOM      3  O   UNL     1     110.958 126.364 141.148  0.00  0.00    +0.000 OA
ATOM      4  C   UNL     1     110.677 127.496 138.936  0.00  0.00    +0.000 A 
ATOM      5  C   UNL     1     109.925 127.710 138.669  0.00  0.00    +0.000 A 
ATOM      6  C   UNL     1     110.763 127.123 139.667  0.00  0.00    +0.000 A 
ATOM      7  C   UNL     1     110.100 126.964 140.131  0.00  0.00    +0.000 A 
ATOM      8  C   UNL     1     108.734 126.629 141.099  0.00  0.00    +0.000 A 
ATOM      9  C   UNL     1     109.350 127.177 139.864  0.00  0.00    +0.000 A 
ATOM     10  C   UNL     1     108.651 127.017 140.337  0.00  0.00    +0.000 A 
ATOM     11  C   UNL     1     110.204 126.574 140.890  0.00  0.00    +0.000 A 
ATOM     12  C   UNL     1     109.516 126.406 141.377  0.00  0.00    +0.000 A 
ENDROOT
BRANCH   5  14
ATOM     13  O   UNL     1     109.579 129.199 135.745  0.00  0.00    +0.000 OA
ATOM     14  C   UNL     1     109.839 128.083 137.939  0.00  0.00    +0.000 A 
ATOM     15  C   UNL     1     109.942 128.899 137.877  0.00  0.00    +0.000 A 
ATOM     16  C   UNL     1     109.649 127.638 137.269  0.00  0.00    +0.000 A 
ATOM     17  C   UNL     1     109.855 129.271 137.145  0.00  0.00    +0.000 A 
ATOM     18  C   UNL     1     109.562 128.011 136.538  0.00  0.00    +0.000 A 
ATOM     19  C   UNL     1     109.665 128.827 136.476  0.00  0.00    +0.000 A 
ENDBRANCH   5  14
BRANCH   4  20
ATOM     20  O   UNL     1     111.340 127.655 138.472  0.00  0.00    +0.000 OA
BRANCH  20  27
ATOM     21  O   UNL     1     111.560 126.304 138.060  0.00  0.00    +0.000 OA
ATOM     22  O   UNL     1     114.003 126.696 138.077  0.00  0.00    +0.000 OA
ATOM     23  O   UNL     1     113.408 125.216 137.660  0.00  0.00    +0.000 OA
ATOM     24  C   UNL     1     112.671 127.176 138.275  0.00  0.00    +0.000 C 
ATOM     25  C   UNL     1     113.189 126.565 138.072  0.00  0.00    +0.000 C 
ATOM     26  C   UNL     1     112.891 125.825 137.863  0.00  0.00    +0.000 C 
ATOM     27  C   UNL     1     111.857 127.045 138.269  0.00  0.00    +0.000 C 
ATOM     28  C   UNL     1     112.076 125.695 137.857  0.00  0.00    +0.000 C 
BRANCH  28  30
ATOM     29  O   UNL     1     111.283 124.878 136.993  0.00  0.00    +0.000 OA
ATOM     30  C   UNL     1     111.779 124.955 137.648  0.00  0.00    +0.000 C 
ENDBRANCH  28  30
BRANCH  24  31
ATOM     31  O   UNL     1     112.969 127.916 138.484  0.00  0.00    +0.000 OA
BRANCH  31  36
ATOM     32  O   UNL     1     113.202 128.217 137.107  0.00  0.00    +0.000 OA
ATOM     33  O   UNL     1     113.409 129.453 138.894  0.00  0.00    +0.000 OA
ATOM     34  O   UNL     1     113.863 130.521 137.721  0.00  0.00    +0.000 OA
ATOM     35  O   UNL     1     113.876 130.054 136.139  0.00  0.00    +0.000 OA
ATOM     36  C   UNL     1     113.196 128.450 137.898  0.00  0.00    +0.000 C 
ATOM     37  C   UNL     1     113.416 129.219 138.103  0.00  0.00    +0.000 C 
ATOM     38  C   UNL     1     113.642 129.753 137.517  0.00  0.00    +0.000 C 
ATOM     39  C   UNL     1     113.649 129.519 136.725  0.00  0.00    +0.000 C 
ATOM     40  C   UNL     1     113.429 128.751 136.521  0.00  0.00    +0.000 C 
BRANCH  40  42
ATOM     41  O   UNL     1     112.726 128.452 135.313  0.00  0.00    +0.000 OA
ATOM     42  C   UNL     1     113.436 128.517 135.729  0.00  0.00    +0.000 C 
ENDBRANCH  40  42
ENDBRANCH  31  36
ENDBRANCH  24  31
ENDBRANCH  20  27
ENDBRANCH   4  20
BRANCH   8  43
ATOM     43  O   UNL     1     108.069 126.471 141.561  0.00  0.00    +0.000 OA
BRANCH  43  51
ATOM     44  O   UNL     1     107.934 125.072 141.303  0.00  0.00    +0.000 OA
ATOM     45  O   UNL     1     105.488 125.356 141.051  0.00  0.00    +0.000 OA
ATOM     46  O   UNL     1     106.168 123.862 140.877  0.00  0.00    +0.000 OA
ATOM     47  C   UNL     1     106.304 125.261 141.135  0.00  0.00    +0.000 C 
ATOM     48  C   UNL     1     106.644 124.514 141.048  0.00  0.00    +0.000 C 
ATOM     49  C   UNL     1     106.779 125.913 141.305  0.00  0.00    +0.000 C 
ATOM     50  C   UNL     1     107.459 124.420 141.132  0.00  0.00    +0.000 C 
ATOM     51  C   UNL     1     107.594 125.819 141.390  0.00  0.00    +0.000 C 
BRANCH  50  53
ATOM     52  O   UNL     1     108.512 123.499 141.420  0.00  0.00    +0.000 OA
ATOM     53  C   UNL     1     107.798 123.673 141.046  0.00  0.00    +0.000 C 
ENDBRANCH  50  53
BRANCH  49  54
ATOM     54  O   UNL     1     106.439 126.660 141.392  0.00  0.00    +0.000 OA
BRANCH  54  56
ATOM     55  O   UNL     1     106.104 126.459 142.766  0.00  0.00    +0.000 OA
ATOM     56  C   UNL     1     105.954 126.821 142.040  0.00  0.00    +0.000 C 
BRANCH  56  57
ATOM     57  C   UNL     1     105.321 127.343 141.962  0.00  0.00    +0.000 C 
ATOM     58  C   UNL     1     105.316 128.051 142.388  0.00  0.00    +0.000 C 
BRANCH  58  60
ATOM     59  O   UNL     1     102.782 130.142 142.078  0.00  0.00    +0.000 OA
ATOM     60  C   UNL     1     104.682 128.573 142.310  0.00  0.00    +0.000 A 
ATOM     61  C   UNL     1     104.479 129.070 142.937  0.00  0.00    +0.000 A 
ATOM     62  C   UNL     1     104.253 128.600 141.606  0.00  0.00    +0.000 A 
ATOM     63  C   UNL     1     103.845 129.593 142.860  0.00  0.00    +0.000 A 
ATOM     64  C   UNL     1     103.619 129.123 141.529  0.00  0.00    +0.000 A 
ATOM     65  C   UNL     1     103.416 129.619 142.156  0.00  0.00    +0.000 A 
BRANCH  63  66
ATOM     66  O   UNL     1     103.641 130.089 143.486  0.00  0.00    +0.000 OA
ATOM     67  C   UNL     1     104.129 130.137 144.150  0.00  0.00    +0.000 C 
ENDBRANCH  63  66
ENDBRANCH  58  60
ENDBRANCH  56  57
ENDBRANCH  54  56
ENDBRANCH  49  54
ENDBRANCH  43  51
ENDBRANCH   8  43
TORSDOF 15
ENDMDL
MODEL 5
REMARK VINA RESULT:     -10.2      5.229      8.406
REMARK  Name = 44258890
REMARK  15 active torsions:
REMARK  status: ('A' for Active; 'I' for Inactive)
REMARK    1  A    between atoms: O_1  and  C_25
REMARK    2  A    between atoms: O_1  and  C_28
REMARK    3  A    between atoms: O_4  and  C_30
REMARK    4  A    between atoms: O_4  and  C_42
REMARK    5  A    between atoms: O_13  and  C_41
REMARK    6  A    between atoms: O_13  and  C_47
REMARK    7  A    between atoms: O_14  and  C_39
REMARK    8  A    between atoms: O_14  and  C_53
REMARK    9  A    between atoms: O_23  and  C_64
REMARK   10  A    between atoms: C_31  and  C_35
REMARK   11  A    between atoms: C_34  and  C_36
REMARK   12  A    between atoms: C_40  and  C_43
REMARK   13  A    between atoms: C_44  and  C_51
REMARK   14  A    between atoms: C_53  and  C_56
REMARK   15  A    between atoms: C_60  and  C_61
REMARK                            x       y       z     vdW  Elec       q    Type
REMARK                         _______ _______ _______ _____ _____    ______ ____
ROOT
ATOM      1  O   UNL     1     104.228 129.995 142.143  0.00  0.00    +0.000 OA
ATOM      2  O   UNL     1     105.949 131.762 141.931  0.00  0.00    +0.000 OA
ATOM      3  O   UNL     1     107.005 130.786 142.049  0.00  0.00    +0.000 OA
ATOM      4  C   UNL     1     104.575 131.371 141.977  0.00  0.00    +0.000 A 
ATOM      5  C   UNL     1     104.001 130.782 142.048  0.00  0.00    +0.000 A 
ATOM      6  C   UNL     1     105.375 131.172 142.002  0.00  0.00    +0.000 A 
ATOM      7  C   UNL     1     105.602 130.385 142.097  0.00  0.00    +0.000 A 
ATOM      8  C   UNL     1     106.084 128.759 142.293  0.00  0.00    +0.000 A 
ATOM      9  C   UNL     1     105.029 129.796 142.167  0.00  0.00    +0.000 A 
ATOM     10  C   UNL     1     105.251 128.973 142.267  0.00  0.00    +0.000 A 
ATOM     11  C   UNL     1     106.439 130.191 142.121  0.00  0.00    +0.000 A 
ATOM     12  C   UNL     1     106.681 129.372 142.219  0.00  0.00    +0.000 A 
ENDROOT
BRANCH   5  14
ATOM     13  O   UNL     1     100.800 131.580 141.953  0.00  0.00    +0.000 OA
ATOM     14  C   UNL     1     103.201 130.981 142.023  0.00  0.00    +0.000 A 
ATOM     15  C   UNL     1     102.817 131.060 141.298  0.00  0.00    +0.000 A 
ATOM     16  C   UNL     1     102.785 131.102 142.726  0.00  0.00    +0.000 A 
ATOM     17  C   UNL     1     102.017 131.260 141.274  0.00  0.00    +0.000 A 
ATOM     18  C   UNL     1     101.985 131.301 142.702  0.00  0.00    +0.000 A 
ATOM     19  C   UNL     1     101.601 131.380 141.976  0.00  0.00    +0.000 A 
ENDBRANCH   5  14
BRANCH   4  20
ATOM     20  O   UNL     1     104.348 132.159 141.882  0.00  0.00    +0.000 OA
BRANCH  20  27
ATOM     21  O   UNL     1     104.693 132.567 143.208  0.00  0.00    +0.000 OA
ATOM     22  O   UNL     1     105.343 134.797 142.353  0.00  0.00    +0.000 OA
ATOM     23  O   UNL     1     105.470 134.461 143.962  0.00  0.00    +0.000 OA
ATOM     24  C   UNL     1     104.846 133.477 142.117  0.00  0.00    +0.000 C 
ATOM     25  C   UNL     1     105.126 134.053 142.638  0.00  0.00    +0.000 C 
ATOM     26  C   UNL     1     105.190 133.885 143.443  0.00  0.00    +0.000 C 
ATOM     27  C   UNL     1     104.629 132.734 142.402  0.00  0.00    +0.000 C 
ATOM     28  C   UNL     1     104.973 133.142 143.728  0.00  0.00    +0.000 C 
BRANCH  28  30
ATOM     29  O   UNL     1     104.364 132.776 144.968  0.00  0.00    +0.000 OA
ATOM     30  C   UNL     1     105.036 132.975 144.533  0.00  0.00    +0.000 C 
ENDBRANCH  28  30
BRANCH  24  31
ATOM     31  O   UNL     1     104.782 133.645 141.312  0.00  0.00    +0.000 OA
BRANCH  31  36
ATOM     32  O   UNL     1     103.538 134.307 141.546  0.00  0.00    +0.000 OA
ATOM     33  O   UNL     1     104.702 134.057 139.716  0.00  0.00    +0.000 OA
ATOM     34  O   UNL     1     103.417 134.925 139.152  0.00  0.00    +0.000 OA
ATOM     35  O   UNL     1     102.213 135.381 140.184  0.00  0.00    +0.000 OA
ATOM     36  C   UNL     1     104.140 134.079 141.030  0.00  0.00    +0.000 C 
ATOM     37  C   UNL     1     104.100 134.285 140.232  0.00  0.00    +0.000 C 
ATOM     38  C   UNL     1     103.458 134.719 139.950  0.00  0.00    +0.000 C 
ATOM     39  C   UNL     1     102.855 134.947 140.466  0.00  0.00    +0.000 C 
ATOM     40  C   UNL     1     102.896 134.741 141.264  0.00  0.00    +0.000 C 
BRANCH  40  42
ATOM     41  O   UNL     1     102.396 135.627 142.268  0.00  0.00    +0.000 OA
ATOM     42  C   UNL     1     102.293 134.970 141.780  0.00  0.00    +0.000 C 
ENDBRANCH  40  42
ENDBRANCH  31  36
ENDBRANCH  24  31
ENDBRANCH  20  27
ENDBRANCH   4  20
BRANCH   8  43
ATOM     43  O   UNL     1     106.308 127.970 142.388  0.00  0.00    +0.000 OA
BRANCH  43  51
ATOM     44  O   UNL     1     106.530 128.032 143.798  0.00  0.00    +0.000 OA
ATOM     45  O   UNL     1     105.640 125.734 144.037  0.00  0.00    +0.000 OA
ATOM     46  O   UNL     1     106.159 126.560 145.368  0.00  0.00    +0.000 OA
ATOM     47  C   UNL     1     105.937 126.500 143.958  0.00  0.00    +0.000 C 
ATOM     48  C   UNL     1     106.196 126.914 144.623  0.00  0.00    +0.000 C 
ATOM     49  C   UNL     1     105.974 126.852 143.213  0.00  0.00    +0.000 C 
ATOM     50  C   UNL     1     106.493 127.679 144.543  0.00  0.00    +0.000 C 
ATOM     51  C   UNL     1     106.271 127.618 143.133  0.00  0.00    +0.000 C 
BRANCH  50  53
ATOM     52  O   UNL     1     107.541 128.327 145.266  0.00  0.00    +0.000 OA
ATOM     53  C   UNL     1     106.752 128.092 145.209  0.00  0.00    +0.000 C 
ENDBRANCH  50  53
BRANCH  49  54
ATOM     54  O   UNL     1     105.715 126.439 142.548  0.00  0.00    +0.000 OA
BRANCH  54  56
ATOM     55  O   UNL     1     106.995 125.828 142.384  0.00  0.00    +0.000 OA
ATOM     56  C   UNL     1     106.188 125.850 142.216  0.00  0.00    +0.000 C 
BRANCH  56  57
ATOM     57  C   UNL     1     105.854 125.285 141.717  0.00  0.00    +0.000 C 
ATOM     58  C   UNL     1     106.153 125.181 140.954  0.00  0.00    +0.000 C 
BRANCH  58  60
ATOM     59  O   UNL     1     104.817 122.920 138.957  0.00  0.00    +0.000 OA
ATOM     60  C   UNL     1     105.819 124.615 140.455  0.00  0.00    +0.000 A 
ATOM     61  C   UNL     1     105.317 124.850 139.844  0.00  0.00    +0.000 A 
ATOM     62  C   UNL     1     105.987 123.815 140.566  0.00  0.00    +0.000 A 
ATOM     63  C   UNL     1     104.983 124.285 139.345  0.00  0.00    +0.000 A 
ATOM     64  C   UNL     1     105.653 123.250 140.067  0.00  0.00    +0.000 A 
ATOM     65  C   UNL     1     105.151 123.485 139.456  0.00  0.00    +0.000 A 
BRANCH  63  66
ATOM     66  O   UNL     1     104.480 124.520 138.734  0.00  0.00    +0.000 OA
ATOM     67  C   UNL     1     103.832 125.004 138.896  0.00  0.00    +0.000 C 
ENDBRANCH  63  66
ENDBRANCH  58  60
ENDBRANCH  56  57
ENDBRANCH  54  56
ENDBRANCH  49  54
ENDBRANCH  43  51
ENDBRANCH   8  43
TORSDOF 15
ENDMDL
MODEL 6
REMARK VINA RESULT:     -10.1      3.312      7.897
REMARK  Name = 44258890
REMARK  15 active torsions:
REMARK  status: ('A' for Active; 'I' for Inactive)
REMARK    1  A    between atoms: O_1  and  C_25
REMARK    2  A    between atoms: O_1  and  C_28
REMARK    3  A    between atoms: O_4  and  C_30
REMARK    4  A    between atoms: O_4  and  C_42
REMARK    5  A    between atoms: O_13  and  C_41
REMARK    6  A    between atoms: O_13  and  C_47
REMARK    7  A    between atoms: O_14  and  C_39
REMARK    8  A    between atoms: O_14  and  C_53
REMARK    9  A    between atoms: O_23  and  C_64
REMARK   10  A    between atoms: C_31  and  C_35
REMARK   11  A    between atoms: C_34  and  C_36
REMARK   12  A    between atoms: C_40  and  C_43
REMARK   13  A    between atoms: C_44  and  C_51
REMARK   14  A    between atoms: C_53  and  C_56
REMARK   15  A    between atoms: C_60  and  C_61
REMARK                            x       y       z     vdW  Elec       q    Type
REMARK                         _______ _______ _______ _____ _____    ______ ____
ROOT
ATOM      1  O   UNL     1     111.179 129.170 140.669  0.00  0.00    +0.000 OA
ATOM      2  O   UNL     1     108.750 129.336 140.217  0.00  0.00    +0.000 OA
ATOM      3  O   UNL     1     108.978 129.225 138.797  0.00  0.00    +0.000 OA
ATOM      4  C   UNL     1     109.838 129.309 141.144  0.00  0.00    +0.000 A 
ATOM      5  C   UNL     1     110.648 129.253 141.294  0.00  0.00    +0.000 A 
ATOM      6  C   UNL     1     109.560 129.281 140.368  0.00  0.00    +0.000 A 
ATOM      7  C   UNL     1     110.091 129.197 139.742  0.00  0.00    +0.000 A 
ATOM      8  C   UNL     1     111.180 129.024 138.439  0.00  0.00    +0.000 A 
ATOM      9  C   UNL     1     110.900 129.142 139.893  0.00  0.00    +0.000 A 
ATOM     10  C   UNL     1     111.463 129.054 139.250  0.00  0.00    +0.000 A 
ATOM     11  C   UNL     1     109.789 129.169 138.938  0.00  0.00    +0.000 A 
ATOM     12  C   UNL     1     110.337 129.082 138.283  0.00  0.00    +0.000 A 
ENDROOT
BRANCH   5  14
ATOM     13  O   UNL     1     111.757 129.369 144.400  0.00  0.00    +0.000 OA
ATOM     14  C   UNL     1     110.925 129.281 142.071  0.00  0.00    +0.000 A 
ATOM     15  C   UNL     1     111.097 128.582 142.473  0.00  0.00    +0.000 A 
ATOM     16  C   UNL     1     111.030 130.010 142.445  0.00  0.00    +0.000 A 
ATOM     17  C   UNL     1     111.375 128.612 143.250  0.00  0.00    +0.000 A 
ATOM     18  C   UNL     1     111.307 130.038 143.221  0.00  0.00    +0.000 A 
ATOM     19  C   UNL     1     111.480 129.339 143.624  0.00  0.00    +0.000 A 
ENDBRANCH   5  14
BRANCH   4  20
ATOM     20  O   UNL     1     109.306 129.392 141.770  0.00  0.00    +0.000 OA
BRANCH  20  27
ATOM     21  O   UNL     1     108.779 128.066 141.691  0.00  0.00    +0.000 OA
ATOM     22  O   UNL     1     106.556 128.909 142.380  0.00  0.00    +0.000 OA
ATOM     23  O   UNL     1     106.770 127.304 142.071  0.00  0.00    +0.000 OA
ATOM     24  C   UNL     1     107.932 129.151 142.075  0.00  0.00    +0.000 C 
ATOM     25  C   UNL     1     107.297 128.628 142.150  0.00  0.00    +0.000 C 
ATOM     26  C   UNL     1     107.405 127.825 141.996  0.00  0.00    +0.000 C 
ATOM     27  C   UNL     1     108.673 128.870 141.845  0.00  0.00    +0.000 C 
ATOM     28  C   UNL     1     108.146 127.544 141.766  0.00  0.00    +0.000 C 
BRANCH  28  30
ATOM     29  O   UNL     1     108.849 126.322 141.997  0.00  0.00    +0.000 OA
ATOM     30  C   UNL     1     108.252 126.742 141.612  0.00  0.00    +0.000 C 
ENDBRANCH  28  30
BRANCH  24  31
ATOM     31  O   UNL     1     107.825 129.954 142.229  0.00  0.00    +0.000 OA
BRANCH  31  36
ATOM     32  O   UNL     1     107.862 129.691 143.632  0.00  0.00    +0.000 OA
ATOM     33  O   UNL     1     107.645 131.566 142.536  0.00  0.00    +0.000 OA
ATOM     34  O   UNL     1     107.592 132.108 144.093  0.00  0.00    +0.000 OA
ATOM     35  O   UNL     1     107.719 131.039 145.344  0.00  0.00    +0.000 OA
ATOM     36  C   UNL     1     107.798 130.225 143.008  0.00  0.00    +0.000 C 
ATOM     37  C   UNL     1     107.708 131.031 143.160  0.00  0.00    +0.000 C 
ATOM     38  C   UNL     1     107.682 131.302 143.939  0.00  0.00    +0.000 C 
ATOM     39  C   UNL     1     107.746 130.768 144.565  0.00  0.00    +0.000 C 
ATOM     40  C   UNL     1     107.835 129.962 144.411  0.00  0.00    +0.000 C 
BRANCH  40  42
ATOM     41  O   UNL     1     108.601 129.010 145.152  0.00  0.00    +0.000 OA
ATOM     42  C   UNL     1     107.899 129.427 145.037  0.00  0.00    +0.000 C 
ENDBRANCH  40  42
ENDBRANCH  31  36
ENDBRANCH  24  31
ENDBRANCH  20  27
ENDBRANCH   4  20
BRANCH   8  43
ATOM     43  O   UNL     1     111.714 128.941 137.815  0.00  0.00    +0.000 OA
BRANCH  43  51
ATOM     44  O   UNL     1     111.779 130.324 137.464  0.00  0.00    +0.000 OA
ATOM     45  O   UNL     1     114.186 130.079 136.945  0.00  0.00    +0.000 OA
ATOM     46  O   UNL     1     113.449 131.545 136.767  0.00  0.00    +0.000 OA
ATOM     47  C   UNL     1     113.384 130.161 137.118  0.00  0.00    +0.000 C 
ATOM     48  C   UNL     1     113.015 130.894 137.029  0.00  0.00    +0.000 C 
ATOM     49  C   UNL     1     112.950 129.510 137.380  0.00  0.00    +0.000 C 
ATOM     50  C   UNL     1     112.212 130.976 137.203  0.00  0.00    +0.000 C 
ATOM     51  C   UNL     1     112.147 129.592 137.553  0.00  0.00    +0.000 C 
BRANCH  50  53
ATOM     52  O   UNL     1     111.130 131.763 136.705  0.00  0.00    +0.000 OA
ATOM     53  C   UNL     1     111.844 131.708 137.114  0.00  0.00    +0.000 C 
ENDBRANCH  50  53
BRANCH  49  54
ATOM     54  O   UNL     1     113.319 128.777 137.469  0.00  0.00    +0.000 OA
BRANCH  54  56
ATOM     55  O   UNL     1     113.357 128.527 136.063  0.00  0.00    +0.000 OA
ATOM     56  C   UNL     1     113.339 128.246 136.838  0.00  0.00    +0.000 C 
BRANCH  56  57
ATOM     57  C   UNL     1     113.341 127.434 136.983  0.00  0.00    +0.000 C 
ATOM     58  C   UNL     1     113.445 126.904 136.359  0.00  0.00    +0.000 C 
BRANCH  58  60
ATOM     59  O   UNL     1     113.453 123.656 136.938  0.00  0.00    +0.000 OA
ATOM     60  C   UNL     1     113.448 126.092 136.504  0.00  0.00    +0.000 A 
ATOM     61  C   UNL     1     112.751 125.657 136.423  0.00  0.00    +0.000 A 
ATOM     62  C   UNL     1     114.146 125.715 136.729  0.00  0.00    +0.000 A 
ATOM     63  C   UNL     1     112.752 124.845 136.568  0.00  0.00    +0.000 A 
ATOM     64  C   UNL     1     114.147 124.902 136.874  0.00  0.00    +0.000 A 
ATOM     65  C   UNL     1     113.450 124.468 136.793  0.00  0.00    +0.000 A 
BRANCH  63  66
ATOM     66  O   UNL     1     112.056 124.410 136.487  0.00  0.00    +0.000 OA
ATOM     67  C   UNL     1     111.393 124.754 136.136  0.00  0.00    +0.000 C 
ENDBRANCH  63  66
ENDBRANCH  58  60
ENDBRANCH  56  57
ENDBRANCH  54  56
ENDBRANCH  49  54
ENDBRANCH  43  51
ENDBRANCH   8  43
TORSDOF 15
ENDMDL
MODEL 7
REMARK VINA RESULT:     -10.1      6.122      9.640
REMARK  Name = 44258890
REMARK  15 active torsions:
REMARK  status: ('A' for Active; 'I' for Inactive)
REMARK    1  A    between atoms: O_1  and  C_25
REMARK    2  A    between atoms: O_1  and  C_28
REMARK    3  A    between atoms: O_4  and  C_30
REMARK    4  A    between atoms: O_4  and  C_42
REMARK    5  A    between atoms: O_13  and  C_41
REMARK    6  A    between atoms: O_13  and  C_47
REMARK    7  A    between atoms: O_14  and  C_39
REMARK    8  A    between atoms: O_14  and  C_53
REMARK    9  A    between atoms: O_23  and  C_64
REMARK   10  A    between atoms: C_31  and  C_35
REMARK   11  A    between atoms: C_34  and  C_36
REMARK   12  A    between atoms: C_40  and  C_43
REMARK   13  A    between atoms: C_44  and  C_51
REMARK   14  A    between atoms: C_53  and  C_56
REMARK   15  A    between atoms: C_60  and  C_61
REMARK                            x       y       z     vdW  Elec       q    Type
REMARK                         _______ _______ _______ _____ _____    ______ ____
ROOT
ATOM      1  O   UNL     1     103.794 130.143 143.415  0.00  0.00    +0.000 OA
ATOM      2  O   UNL     1     105.802 131.537 143.023  0.00  0.00    +0.000 OA
ATOM      3  O   UNL     1     106.662 130.477 143.487  0.00  0.00    +0.000 OA
ATOM      4  C   UNL     1     104.383 131.373 142.987  0.00  0.00    +0.000 A 
ATOM      5  C   UNL     1     103.713 130.908 143.118  0.00  0.00    +0.000 A 
ATOM      6  C   UNL     1     105.132 131.072 143.154  0.00  0.00    +0.000 A 
ATOM      7  C   UNL     1     105.213 130.307 143.451  0.00  0.00    +0.000 A 
ATOM      8  C   UNL     1     105.392 128.725 144.067  0.00  0.00    +0.000 A 
ATOM      9  C   UNL     1     104.544 129.843 143.582  0.00  0.00    +0.000 A 
ATOM     10  C   UNL     1     104.614 129.044 143.891  0.00  0.00    +0.000 A 
ATOM     11  C   UNL     1     105.999 130.005 143.621  0.00  0.00    +0.000 A 
ATOM     12  C   UNL     1     106.089 129.209 143.931  0.00  0.00    +0.000 A 
ENDROOT
BRANCH   5  14
ATOM     13  O   UNL     1     100.714 132.115 142.452  0.00  0.00    +0.000 OA
ATOM     14  C   UNL     1     102.963 131.210 142.951  0.00  0.00    +0.000 A 
ATOM     15  C   UNL     1     102.664 131.169 142.183  0.00  0.00    +0.000 A 
ATOM     16  C   UNL     1     102.513 131.552 143.552  0.00  0.00    +0.000 A 
ATOM     17  C   UNL     1     101.914 131.471 142.017  0.00  0.00    +0.000 A 
ATOM     18  C   UNL     1     101.764 131.853 143.385  0.00  0.00    +0.000 A 
ATOM     19  C   UNL     1     101.464 131.813 142.618  0.00  0.00    +0.000 A 
ENDBRANCH   5  14
BRANCH   4  20
ATOM     20  O   UNL     1     104.302 132.139 142.690  0.00  0.00    +0.000 OA
BRANCH  20  27
ATOM     21  O   UNL     1     104.624 132.785 143.923  0.00  0.00    +0.000 OA
ATOM     22  O   UNL     1     105.622 134.673 142.673  0.00  0.00    +0.000 OA
ATOM     23  O   UNL     1     105.611 134.689 144.322  0.00  0.00    +0.000 OA
ATOM     24  C   UNL     1     104.962 133.405 142.681  0.00  0.00    +0.000 C 
ATOM     25  C   UNL     1     105.289 134.044 143.090  0.00  0.00    +0.000 C 
ATOM     26  C   UNL     1     105.284 134.051 143.914  0.00  0.00    +0.000 C 
ATOM     27  C   UNL     1     104.629 132.776 143.098  0.00  0.00    +0.000 C 
ATOM     28  C   UNL     1     104.951 133.422 144.331  0.00  0.00    +0.000 C 
BRANCH  28  30
ATOM     29  O   UNL     1     104.239 133.550 145.563  0.00  0.00    +0.000 OA
ATOM     30  C   UNL     1     104.946 133.430 145.155  0.00  0.00    +0.000 C 
ENDBRANCH  28  30
BRANCH  24  31
ATOM     31  O   UNL     1     104.967 133.398 141.856  0.00  0.00    +0.000 OA
BRANCH  31  36
ATOM     32  O   UNL     1     103.903 134.350 141.837  0.00  0.00    +0.000 OA
ATOM     33  O   UNL     1     104.899 133.288 140.211  0.00  0.00    +0.000 OA
ATOM     34  O   UNL     1     103.800 134.185 139.369  0.00  0.00    +0.000 OA
ATOM     35  O   UNL     1     102.769 135.192 140.173  0.00  0.00    +0.000 OA
ATOM     36  C   UNL     1     104.418 133.846 141.435  0.00  0.00    +0.000 C 
ATOM     37  C   UNL     1     104.384 133.791 140.613  0.00  0.00    +0.000 C 
ATOM     38  C   UNL     1     103.834 134.240 140.192  0.00  0.00    +0.000 C 
ATOM     39  C   UNL     1     103.318 134.744 140.593  0.00  0.00    +0.000 C 
ATOM     40  C   UNL     1     103.353 134.798 141.416  0.00  0.00    +0.000 C 
BRANCH  40  42
ATOM     41  O   UNL     1     102.220 134.988 142.266  0.00  0.00    +0.000 OA
ATOM     42  C   UNL     1     102.837 135.302 141.817  0.00  0.00    +0.000 C 
ENDBRANCH  40  42
ENDBRANCH  31  36
ENDBRANCH  24  31
ENDBRANCH  20  27
ENDBRANCH   4  20
BRANCH   8  43
ATOM     43  O   UNL     1     105.470 127.959 144.364  0.00  0.00    +0.000 OA
BRANCH  43  51
ATOM     44  O   UNL     1     105.508 127.376 143.060  0.00  0.00    +0.000 OA
ATOM     45  O   UNL     1     106.736 125.428 143.968  0.00  0.00    +0.000 OA
ATOM     46  O   UNL     1     106.364 125.493 142.361  0.00  0.00    +0.000 OA
ATOM     47  C   UNL     1     106.326 126.077 143.665  0.00  0.00    +0.000 C 
ATOM     48  C   UNL     1     106.140 126.110 142.861  0.00  0.00    +0.000 C 
ATOM     49  C   UNL     1     106.103 126.693 144.165  0.00  0.00    +0.000 C 
ATOM     50  C   UNL     1     105.731 126.760 142.559  0.00  0.00    +0.000 C 
ATOM     51  C   UNL     1     105.694 127.343 143.863  0.00  0.00    +0.000 C 
BRANCH  50  53
ATOM     52  O   UNL     1     104.758 126.853 141.518  0.00  0.00    +0.000 OA
ATOM     53  C   UNL     1     105.546 126.792 141.756  0.00  0.00    +0.000 C 
ENDBRANCH  50  53
BRANCH  49  54
ATOM     54  O   UNL     1     106.289 126.660 144.969  0.00  0.00    +0.000 OA
BRANCH  54  56
ATOM     55  O   UNL     1     105.150 125.887 145.352  0.00  0.00    +0.000 OA
ATOM     56  C   UNL     1     105.946 126.084 145.449  0.00  0.00    +0.000 C 
BRANCH  56  57
ATOM     57  C   UNL     1     106.397 125.704 146.025  0.00  0.00    +0.000 C 
ATOM     58  C   UNL     1     106.269 125.868 146.824  0.00  0.00    +0.000 C 
BRANCH  58  60
ATOM     59  O   UNL     1     108.075 124.350 149.130  0.00  0.00    +0.000 OA
ATOM     60  C   UNL     1     106.720 125.489 147.400  0.00  0.00    +0.000 A 
ATOM     61  C   UNL     1     106.349 125.121 148.039  0.00  0.00    +0.000 A 
ATOM     62  C   UNL     1     107.543 125.477 147.339  0.00  0.00    +0.000 A 
ATOM     63  C   UNL     1     106.801 124.741 148.616  0.00  0.00    +0.000 A 
ATOM     64  C   UNL     1     107.994 125.097 147.916  0.00  0.00    +0.000 A 
ATOM     65  C   UNL     1     107.623 124.729 148.554  0.00  0.00    +0.000 A 
BRANCH  63  66
ATOM     66  O   UNL     1     106.429 124.373 149.254  0.00  0.00    +0.000 OA
ATOM     67  C   UNL     1     105.723 124.678 149.552  0.00  0.00    +0.000 C 
ENDBRANCH  63  66
ENDBRANCH  58  60
ENDBRANCH  56  57
ENDBRANCH  54  56
ENDBRANCH  49  54
ENDBRANCH  43  51
ENDBRANCH   8  43
TORSDOF 15
ENDMDL
MODEL 8
REMARK VINA RESULT:     -10.1      2.172      4.335
REMARK  Name = 44258890
REMARK  15 active torsions:
REMARK  status: ('A' for Active; 'I' for Inactive)
REMARK    1  A    between atoms: O_1  and  C_25
REMARK    2  A    between atoms: O_1  and  C_28
REMARK    3  A    between atoms: O_4  and  C_30
REMARK    4  A    between atoms: O_4  and  C_42
REMARK    5  A    between atoms: O_13  and  C_41
REMARK    6  A    between atoms: O_13  and  C_47
REMARK    7  A    between atoms: O_14  and  C_39
REMARK    8  A    between atoms: O_14  and  C_53
REMARK    9  A    between atoms: O_23  and  C_64
REMARK   10  A    between atoms: C_31  and  C_35
REMARK   11  A    between atoms: C_34  and  C_36
REMARK   12  A    between atoms: C_40  and  C_43
REMARK   13  A    between atoms: C_44  and  C_51
REMARK   14  A    between atoms: C_53  and  C_56
REMARK   15  A    between atoms: C_60  and  C_61
REMARK                            x       y       z     vdW  Elec       q    Type
REMARK                         _______ _______ _______ _____ _____    ______ ____
ROOT
ATOM      1  O   UNL     1     108.964 127.662 140.245  0.00  0.00    +0.000 OA
ATOM      2  O   UNL     1     110.538 125.815 139.754  0.00  0.00    +0.000 OA
ATOM      3  O   UNL     1     109.752 124.898 140.543  0.00  0.00    +0.000 OA
ATOM      4  C   UNL     1     110.150 127.182 139.606  0.00  0.00    +0.000 A 
ATOM      5  C   UNL     1     109.625 127.798 139.770  0.00  0.00    +0.000 A 
ATOM      6  C   UNL     1     110.013 126.431 139.918  0.00  0.00    +0.000 A 
ATOM      7  C   UNL     1     109.353 126.294 140.393  0.00  0.00    +0.000 A 
ATOM      8  C   UNL     1     107.990 126.000 141.379  0.00  0.00    +0.000 A 
ATOM      9  C   UNL     1     108.829 126.910 140.557  0.00  0.00    +0.000 A 
ATOM     10  C   UNL     1     108.138 126.781 141.050  0.00  0.00    +0.000 A 
ATOM     11  C   UNL     1     109.223 125.507 140.712  0.00  0.00    +0.000 A 
ATOM     12  C   UNL     1     108.537 125.359 141.208  0.00  0.00    +0.000 A 
ENDROOT
BRANCH   5  14
ATOM     13  O   UNL     1     110.171 130.804 138.523  0.00  0.00    +0.000 OA
ATOM     14  C   UNL     1     109.761 128.549 139.457  0.00  0.00    +0.000 A 
ATOM     15  C   UNL     1     109.538 128.721 138.682  0.00  0.00    +0.000 A 
ATOM     16  C   UNL     1     110.121 129.129 139.922  0.00  0.00    +0.000 A 
ATOM     17  C   UNL     1     109.675 129.473 138.371  0.00  0.00    +0.000 A 
ATOM     18  C   UNL     1     110.257 129.880 139.610  0.00  0.00    +0.000 A 
ATOM     19  C   UNL     1     110.034 130.052 138.834  0.00  0.00    +0.000 A 
ENDBRANCH   5  14
BRANCH   4  20
ATOM     20  O   UNL     1     110.810 127.318 139.130  0.00  0.00    +0.000 OA
BRANCH  20  27
ATOM     21  O   UNL     1     111.764 127.285 140.193  0.00  0.00    +0.000 OA
ATOM     22  O   UNL     1     113.425 126.260 138.671  0.00  0.00    +0.000 OA
ATOM     23  O   UNL     1     113.825 126.570 140.241  0.00  0.00    +0.000 OA
ATOM     24  C   UNL     1     112.117 126.789 138.901  0.00  0.00    +0.000 C 
ATOM     25  C   UNL     1     112.871 126.602 139.179  0.00  0.00    +0.000 C 
ATOM     26  C   UNL     1     113.071 126.757 139.964  0.00  0.00    +0.000 C 
ATOM     27  C   UNL     1     111.563 127.131 139.408  0.00  0.00    +0.000 C 
ATOM     28  C   UNL     1     112.518 127.099 140.471  0.00  0.00    +0.000 C 
BRANCH  28  30
ATOM     29  O   UNL     1     112.693 128.026 141.544  0.00  0.00    +0.000 OA
ATOM     30  C   UNL     1     112.718 127.253 141.256  0.00  0.00    +0.000 C 
ENDBRANCH  28  30
BRANCH  24  31
ATOM     31  O   UNL     1     111.917 126.635 138.115  0.00  0.00    +0.000 OA
BRANCH  31  36
ATOM     32  O   UNL     1     112.651 127.786 137.697  0.00  0.00    +0.000 OA
ATOM     33  O   UNL     1     111.404 126.399 136.565  0.00  0.00    +0.000 OA
ATOM     34  O   UNL     1     111.882 127.433 135.372  0.00  0.00    +0.000 OA
ATOM     35  O   UNL     1     112.873 128.703 135.729  0.00  0.00    +0.000 OA
ATOM     36  C   UNL     1     112.156 127.152 137.519  0.00  0.00    +0.000 C 
ATOM     37  C   UNL     1     111.899 127.033 136.744  0.00  0.00    +0.000 C 
ATOM     38  C   UNL     1     112.138 127.550 136.147  0.00  0.00    +0.000 C 
ATOM     39  C   UNL     1     112.634 128.186 136.325  0.00  0.00    +0.000 C 
ATOM     40  C   UNL     1     112.890 128.303 137.101  0.00  0.00    +0.000 C 
BRANCH  40  42
ATOM     41  O   UNL     1     113.111 129.555 137.754  0.00  0.00    +0.000 OA
ATOM     42  C   UNL     1     113.386 128.939 137.279  0.00  0.00    +0.000 C 
ENDBRANCH  40  42
ENDBRANCH  31  36
ENDBRANCH  24  31
ENDBRANCH  20  27
ENDBRANCH   4  20
BRANCH   8  43
ATOM     43  O   UNL     1     107.329 125.867 141.854  0.00  0.00    +0.000 OA
BRANCH  43  51
ATOM     44  O   UNL     1     106.548 125.326 140.787  0.00  0.00    +0.000 OA
ATOM     45  O   UNL     1     105.275 123.961 142.413  0.00  0.00    +0.000 OA
ATOM     46  O   UNL     1     104.917 123.874 140.804  0.00  0.00    +0.000 OA
ATOM     47  C   UNL     1     105.699 124.416 141.871  0.00  0.00    +0.000 C 
ATOM     48  C   UNL     1     105.520 124.372 141.066  0.00  0.00    +0.000 C 
ATOM     49  C   UNL     1     106.302 124.914 142.133  0.00  0.00    +0.000 C 
ATOM     50  C   UNL     1     105.945 124.827 140.524  0.00  0.00    +0.000 C 
ATOM     51  C   UNL     1     106.726 125.369 141.591  0.00  0.00    +0.000 C 
BRANCH  50  53
ATOM     52  O   UNL     1     105.442 125.437 139.335  0.00  0.00    +0.000 OA
ATOM     53  C   UNL     1     105.766 124.783 139.721  0.00  0.00    +0.000 C 
ENDBRANCH  50  53
BRANCH  49  54
ATOM     54  O   UNL     1     106.480 124.957 142.937  0.00  0.00    +0.000 OA
BRANCH  54  56
ATOM     55  O   UNL     1     105.529 125.990 143.199  0.00  0.00    +0.000 OA
ATOM     56  C   UNL     1     105.963 125.338 143.456  0.00  0.00    +0.000 C 
BRANCH  56  57
ATOM     57  C   UNL     1     105.881 125.065 144.230  0.00  0.00    +0.000 C 
ATOM     58  C   UNL     1     105.827 125.605 144.853  0.00  0.00    +0.000 C 
BRANCH  58  60
ATOM     59  O   UNL     1     105.498 124.517 147.950  0.00  0.00    +0.000 OA
ATOM     60  C   UNL     1     105.744 125.333 145.627  0.00  0.00    +0.000 A 
ATOM     61  C   UNL     1     106.306 125.534 146.196  0.00  0.00    +0.000 A 
ATOM     62  C   UNL     1     105.101 124.859 145.832  0.00  0.00    +0.000 A 
ATOM     63  C   UNL     1     106.225 125.262 146.971  0.00  0.00    +0.000 A 
ATOM     64  C   UNL     1     105.019 124.587 146.607  0.00  0.00    +0.000 A 
ATOM     65  C   UNL     1     105.581 124.789 147.176  0.00  0.00    +0.000 A 
BRANCH  63  66
ATOM     66  O   UNL     1     106.787 125.464 147.540  0.00  0.00    +0.000 OA
ATOM     67  C   UNL     1     107.581 125.275 147.421  0.00  0.00    +0.000 C 
ENDBRANCH  63  66
ENDBRANCH  58  60
ENDBRANCH  56  57
ENDBRANCH  54  56
ENDBRANCH  49  54
ENDBRANCH  43  51
ENDBRANCH   8  43
TORSDOF 15
ENDMDL
MODEL 9
REMARK VINA RESULT:      -9.9      3.072      5.213
REMARK  Name = 44258890
REMARK  15 active torsions:
REMARK  status: ('A' for Active; 'I' for Inactive)
REMARK    1  A    between atoms: O_1  and  C_25
REMARK    2  A    between atoms: O_1  and  C_28
REMARK    3  A    between atoms: O_4  and  C_30
REMARK    4  A    between atoms: O_4  and  C_42
REMARK    5  A    between atoms: O_13  and  C_41
REMARK    6  A    between atoms: O_13  and  C_47
REMARK    7  A    between atoms: O_14  and  C_39
REMARK    8  A    between atoms: O_14  and  C_53
REMARK    9  A    between atoms: O_23  and  C_64
REMARK   10  A    between atoms: C_31  and  C_35
REMARK   11  A    between atoms: C_34  and  C_36
REMARK   12  A    between atoms: C_40  and  C_43
REMARK   13  A    between atoms: C_44  and  C_51
REMARK   14  A    between atoms: C_53  and  C_56
REMARK   15  A    between atoms: C_60  and  C_61
REMARK                            x       y       z     vdW  Elec       q    Type
REMARK                         _______ _______ _______ _____ _____    ______ ____
ROOT
ATOM      1  O   UNL     1     109.300 128.600 141.984  0.00  0.00    +0.000 OA
ATOM      2  O   UNL     1     109.618 127.292 139.906  0.00  0.00    +0.000 OA
ATOM      3  O   UNL     1     108.641 126.321 140.335  0.00  0.00    +0.000 OA
ATOM      4  C   UNL     1     109.945 128.419 140.721  0.00  0.00    +0.000 A 
ATOM      5  C   UNL     1     109.839 128.855 141.414  0.00  0.00    +0.000 A 
ATOM      6  C   UNL     1     109.512 127.728 140.599  0.00  0.00    +0.000 A 
ATOM      7  C   UNL     1     108.973 127.472 141.169  0.00  0.00    +0.000 A 
ATOM      8  C   UNL     1     107.855 126.933 142.341  0.00  0.00    +0.000 A 
ATOM      9  C   UNL     1     108.868 127.908 141.861  0.00  0.00    +0.000 A 
ATOM     10  C   UNL     1     108.310 127.653 142.463  0.00  0.00    +0.000 A 
ATOM     11  C   UNL     1     108.528 126.750 141.030  0.00  0.00    +0.000 A 
ATOM     12  C   UNL     1     107.966 126.479 141.620  0.00  0.00    +0.000 A 
ENDROOT
BRANCH   5  14
ATOM     13  O   UNL     1     111.574 131.620 141.902  0.00  0.00    +0.000 OA
ATOM     14  C   UNL     1     110.272 129.547 141.535  0.00  0.00    +0.000 A 
ATOM     15  C   UNL     1     110.028 130.254 141.187  0.00  0.00    +0.000 A 
ATOM     16  C   UNL     1     110.950 129.531 142.006  0.00  0.00    +0.000 A 
ATOM     17  C   UNL     1     110.463 130.944 141.310  0.00  0.00    +0.000 A 
ATOM     18  C   UNL     1     111.384 130.222 142.128  0.00  0.00    +0.000 A 
ATOM     19  C   UNL     1     111.140 130.929 141.780  0.00  0.00    +0.000 A 
ENDBRANCH   5  14
BRANCH   4  20
ATOM     20  O   UNL     1     110.484 128.675 140.151  0.00  0.00    +0.000 OA
BRANCH  20  27
ATOM     21  O   UNL     1     111.476 127.685 140.429  0.00  0.00    +0.000 OA
ATOM     22  O   UNL     1     112.075 127.611 138.028  0.00  0.00    +0.000 OA
ATOM     23  O   UNL     1     112.867 126.647 139.106  0.00  0.00    +0.000 OA
ATOM     24  C   UNL     1     111.279 128.143 139.090  0.00  0.00    +0.000 C 
ATOM     25  C   UNL     1     111.875 127.635 138.828  0.00  0.00    +0.000 C 
ATOM     26  C   UNL     1     112.271 127.153 139.368  0.00  0.00    +0.000 C 
ATOM     27  C   UNL     1     111.079 128.168 139.890  0.00  0.00    +0.000 C 
ATOM     28  C   UNL     1     112.072 127.178 140.168  0.00  0.00    +0.000 C 
BRANCH  28  30
ATOM     29  O   UNL     1     112.887 127.033 141.333  0.00  0.00    +0.000 OA
ATOM     30  C   UNL     1     112.468 126.696 140.706  0.00  0.00    +0.000 C 
ENDBRANCH  28  30
BRANCH  24  31
ATOM     31  O   UNL     1     110.882 128.625 138.550  0.00  0.00    +0.000 OA
BRANCH  31  36
ATOM     32  O   UNL     1     111.996 129.519 138.529  0.00  0.00    +0.000 OA
ATOM     33  O   UNL     1     110.092 129.585 137.466  0.00  0.00    +0.000 OA
ATOM     34  O   UNL     1     110.811 130.958 136.902  0.00  0.00    +0.000 OA
ATOM     35  O   UNL     1     112.321 131.372 137.422  0.00  0.00    +0.000 OA
ATOM     36  C   UNL     1     111.242 129.312 138.268  0.00  0.00    +0.000 C 
ATOM     37  C   UNL     1     110.846 129.791 137.726  0.00  0.00    +0.000 C 
ATOM     38  C   UNL     1     111.206 130.478 137.444  0.00  0.00    +0.000 C 
ATOM     39  C   UNL     1     111.961 130.686 137.704  0.00  0.00    +0.000 C 
ATOM     40  C   UNL     1     112.356 130.205 138.246  0.00  0.00    +0.000 C 
BRANCH  40  42
ATOM     41  O   UNL     1     113.217 130.715 139.267  0.00  0.00    +0.000 OA
ATOM     42  C   UNL     1     113.112 130.413 138.507  0.00  0.00    +0.000 C 
ENDBRANCH  40  42
ENDBRANCH  31  36
ENDBRANCH  24  31
ENDBRANCH  20  27
ENDBRANCH   4  20
BRANCH   8  43
ATOM     43  O   UNL     1     107.317 126.680 142.913  0.00  0.00    +0.000 OA
BRANCH  43  51
ATOM     44  O   UNL     1     106.217 127.417 142.378  0.00  0.00    +0.000 OA
ATOM     45  O   UNL     1     105.278 127.667 144.655  0.00  0.00    +0.000 OA
ATOM     46  O   UNL     1     104.490 128.322 143.361  0.00  0.00    +0.000 OA
ATOM     47  C   UNL     1     105.591 127.584 143.896  0.00  0.00    +0.000 C 
ATOM     48  C   UNL     1     105.197 127.911 143.249  0.00  0.00    +0.000 C 
ATOM     49  C   UNL     1     106.298 127.173 143.784  0.00  0.00    +0.000 C 
ATOM     50  C   UNL     1     105.510 127.828 142.490  0.00  0.00    +0.000 C 
ATOM     51  C   UNL     1     106.611 127.090 143.025  0.00  0.00    +0.000 C 
BRANCH  50  53
ATOM     52  O   UNL     1     104.857 127.669 141.230  0.00  0.00    +0.000 OA
ATOM     53  C   UNL     1     105.116 128.155 141.844  0.00  0.00    +0.000 C 
ENDBRANCH  50  53
BRANCH  49  54
ATOM     54  O   UNL     1     106.691 126.846 144.431  0.00  0.00    +0.000 OA
BRANCH  54  56
ATOM     55  O   UNL     1     105.959 125.621 144.371  0.00  0.00    +0.000 OA
ATOM     56  C   UNL     1     106.386 126.178 144.806  0.00  0.00    +0.000 C 
BRANCH  56  57
ATOM     57  C   UNL     1     106.508 126.066 145.613  0.00  0.00    +0.000 C 
ATOM     58  C   UNL     1     106.497 125.303 145.930  0.00  0.00    +0.000 C 
BRANCH  58  60
ATOM     59  O   UNL     1     106.983 124.855 149.163  0.00  0.00    +0.000 OA
ATOM     60  C   UNL     1     106.619 125.191 146.738  0.00  0.00    +0.000 A 
ATOM     61  C   UNL     1     105.993 124.953 147.220  0.00  0.00    +0.000 A 
ATOM     62  C   UNL     1     107.365 125.318 147.065  0.00  0.00    +0.000 A 
ATOM     63  C   UNL     1     106.114 124.840 148.028  0.00  0.00    +0.000 A 
ATOM     64  C   UNL     1     107.487 125.206 147.873  0.00  0.00    +0.000 A 
ATOM     65  C   UNL     1     106.861 124.967 148.355  0.00  0.00    +0.000 A 
BRANCH  63  66
ATOM     66  O   UNL     1     105.488 124.602 148.510  0.00  0.00    +0.000 OA
ATOM     67  C   UNL     1     104.711 124.670 148.241  0.00  0.00    +0.000 C 
ENDBRANCH  63  66
ENDBRANCH  58  60
ENDBRANCH  56  57
ENDBRANCH  54  56
ENDBRANCH  49  54
ENDBRANCH  43  51
ENDBRANCH   8  43
TORSDOF 15
ENDMDL
MODEL 10
REMARK VINA RESULT:      -9.9      2.773      4.606
REMARK  Name = 44258890
REMARK  15 active torsions:
REMARK  status: ('A' for Active; 'I' for Inactive)
REMARK    1  A    between atoms: O_1  and  C_25
REMARK    2  A    between atoms: O_1  and  C_28
REMARK    3  A    between atoms: O_4  and  C_30
REMARK    4  A    between atoms: O_4  and  C_42
REMARK    5  A    between atoms: O_13  and  C_41
REMARK    6  A    between atoms: O_13  and  C_47
REMARK    7  A    between atoms: O_14  and  C_39
REMARK    8  A    between atoms: O_14  and  C_53
REMARK    9  A    between atoms: O_23  and  C_64
REMARK   10  A    between atoms: C_31  and  C_35
REMARK   11  A    between atoms: C_34  and  C_36
REMARK   12  A    between atoms: C_40  and  C_43
REMARK   13  A    between atoms: C_44  and  C_51
REMARK   14  A    between atoms: C_53  and  C_56
REMARK   15  A    between atoms: C_60  and  C_61
REMARK                            x       y       z     vdW  Elec       q    Type
REMARK                         _______ _______ _______ _____ _____    ______ ____
ROOT
ATOM      1  O   UNL     1     108.647 129.071 140.228  0.00  0.00    +0.000 OA
ATOM      2  O   UNL     1     110.717 128.399 141.408  0.00  0.00    +0.000 OA
ATOM      3  O   UNL     1     109.949 127.753 142.444  0.00  0.00    +0.000 OA
ATOM      4  C   UNL     1     110.074 129.051 140.311  0.00  0.00    +0.000 A 
ATOM      5  C   UNL     1     109.383 129.275 139.918  0.00  0.00    +0.000 A 
ATOM      6  C   UNL     1     110.026 128.623 141.015  0.00  0.00    +0.000 A 
ATOM      7  C   UNL     1     109.290 128.418 141.325  0.00  0.00    +0.000 A 
ATOM      8  C   UNL     1     107.772 127.990 141.977  0.00  0.00    +0.000 A 
ATOM      9  C   UNL     1     108.601 128.642 140.932  0.00  0.00    +0.000 A 
ATOM     10  C   UNL     1     107.827 128.436 141.244  0.00  0.00    +0.000 A 
ATOM     11  C   UNL     1     109.255 127.972 142.059  0.00  0.00    +0.000 A 
ATOM     12  C   UNL     1     108.490 127.757 142.386  0.00  0.00    +0.000 A 
ENDROOT
BRANCH   5  14
ATOM     13  O   UNL     1     109.573 130.986 137.102  0.00  0.00    +0.000 OA
ATOM     14  C   UNL     1     109.431 129.703 139.214  0.00  0.00    +0.000 A 
ATOM     15  C   UNL     1     109.351 130.524 139.224  0.00  0.00    +0.000 A 
ATOM     16  C   UNL     1     109.558 129.309 138.500  0.00  0.00    +0.000 A 
ATOM     17  C   UNL     1     109.399 130.951 138.520  0.00  0.00    +0.000 A 
ATOM     18  C   UNL     1     109.605 129.737 137.796  0.00  0.00    +0.000 A 
ATOM     19  C   UNL     1     109.526 130.558 137.807  0.00  0.00    +0.000 A 
ENDBRANCH   5  14
BRANCH   4  20
ATOM     20  O   UNL     1     110.810 129.255 140.001  0.00  0.00    +0.000 OA
BRANCH  20  27
ATOM     21  O   UNL     1     111.108 130.261 140.971  0.00  0.00    +0.000 OA
ATOM     22  O   UNL     1     113.504 129.649 140.871  0.00  0.00    +0.000 OA
ATOM     23  O   UNL     1     113.003 130.858 141.874  0.00  0.00    +0.000 OA
ATOM     24  C   UNL     1     112.157 129.452 140.435  0.00  0.00    +0.000 C 
ATOM     25  C   UNL     1     112.705 129.853 140.904  0.00  0.00    +0.000 C 
ATOM     26  C   UNL     1     112.454 130.458 141.406  0.00  0.00    +0.000 C 
ATOM     27  C   UNL     1     111.358 129.656 140.469  0.00  0.00    +0.000 C 
ATOM     28  C   UNL     1     111.656 130.661 141.440  0.00  0.00    +0.000 C 
BRANCH  28  30
ATOM     29  O   UNL     1     111.005 131.919 141.634  0.00  0.00    +0.000 OA
ATOM     30  C   UNL     1     111.405 131.266 141.941  0.00  0.00    +0.000 C 
ENDBRANCH  28  30
BRANCH  24  31
ATOM     31  O   UNL     1     112.408 128.847 139.934  0.00  0.00    +0.000 OA
BRANCH  31  36
ATOM     32  O   UNL     1     112.886 129.815 138.998  0.00  0.00    +0.000 OA
ATOM     33  O   UNL     1     112.759 127.640 138.865  0.00  0.00    +0.000 OA
ATOM     34  O   UNL     1     113.414 128.005 137.395  0.00  0.00    +0.000 OA
ATOM     35  O   UNL     1     113.716 129.577 136.993  0.00  0.00    +0.000 OA
ATOM     36  C   UNL     1     112.735 129.030 139.198  0.00  0.00    +0.000 C 
ATOM     37  C   UNL     1     112.910 128.426 138.664  0.00  0.00    +0.000 C 
ATOM     38  C   UNL     1     113.237 128.608 137.929  0.00  0.00    +0.000 C 
ATOM     39  C   UNL     1     113.389 129.394 137.728  0.00  0.00    +0.000 C 
ATOM     40  C   UNL     1     113.213 129.997 138.263  0.00  0.00    +0.000 C 
BRANCH  40  42
ATOM     41  O   UNL     1     112.737 131.304 137.933  0.00  0.00    +0.000 OA
ATOM     42  C   UNL     1     113.364 130.784 138.062  0.00  0.00    +0.000 C 
ENDBRANCH  40  42
ENDBRANCH  31  36
ENDBRANCH  24  31
ENDBRANCH  20  27
ENDBRANCH   4  20
BRANCH   8  43
ATOM     43  O   UNL     1     107.034 127.787 142.285  0.00  0.00    +0.000 OA
BRANCH  43  51
ATOM     44  O   UNL     1     106.999 126.385 142.009  0.00  0.00    +0.000 OA
ATOM     45  O   UNL     1     104.706 126.620 141.108  0.00  0.00    +0.000 OA
ATOM     46  O   UNL     1     105.436 125.139 141.132  0.00  0.00    +0.000 OA
ATOM     47  C   UNL     1     105.471 126.541 141.408  0.00  0.00    +0.000 C 
ATOM     48  C   UNL     1     105.836 125.801 141.421  0.00  0.00    +0.000 C 
ATOM     49  C   UNL     1     105.870 127.203 141.697  0.00  0.00    +0.000 C 
ATOM     50  C   UNL     1     106.600 125.723 141.721  0.00  0.00    +0.000 C 
ATOM     51  C   UNL     1     106.634 127.125 141.997  0.00  0.00    +0.000 C 
BRANCH  50  53
ATOM     52  O   UNL     1     107.703 124.882 141.380  0.00  0.00    +0.000 OA
ATOM     53  C   UNL     1     106.964 124.983 141.733  0.00  0.00    +0.000 C 
ENDBRANCH  50  53
BRANCH  49  54
ATOM     54  O   UNL     1     105.505 127.942 141.684  0.00  0.00    +0.000 OA
BRANCH  54  56
ATOM     55  O   UNL     1     104.860 127.758 142.946  0.00  0.00    +0.000 OA
ATOM     56  C   UNL     1     104.878 128.103 142.196  0.00  0.00    +0.000 C 
BRANCH  56  57
ATOM     57  C   UNL     1     104.271 128.608 141.959  0.00  0.00    +0.000 C 
ATOM     58  C   UNL     1     104.088 129.273 142.413  0.00  0.00    +0.000 C 
BRANCH  58  60
ATOM     59  O   UNL     1     101.657 131.293 141.466  0.00  0.00    +0.000 OA
ATOM     60  C   UNL     1     103.480 129.778 142.176  0.00  0.00    +0.000 A 
ATOM     61  C   UNL     1     103.181 130.338 142.702  0.00  0.00    +0.000 A 
ATOM     62  C   UNL     1     103.171 129.723 141.413  0.00  0.00    +0.000 A 
ATOM     63  C   UNL     1     102.573 130.844 142.466  0.00  0.00    +0.000 A 
ATOM     64  C   UNL     1     102.563 130.229 141.176  0.00  0.00    +0.000 A 
ATOM     65  C   UNL     1     102.264 130.789 141.703  0.00  0.00    +0.000 A 
BRANCH  63  66
ATOM     66  O   UNL     1     102.274 131.404 142.993  0.00  0.00    +0.000 OA
ATOM     67  C   UNL     1     102.634 131.514 143.727  0.00  0.00    +0.000 C 
ENDBRANCH  63  66
ENDBRANCH  58  60
ENDBRANCH  56  57
ENDBRANCH  54  56
ENDBRANCH  49  54
ENDBRANCH  43  51
ENDBRANCH   8  43
TORSDOF 15
ENDMDL
