MODEL 1
REMARK VINA RESULT:      -7.2      0.000      0.000
REMARK  Name = 150893
REMARK  8 active torsions:
REMARK  status: ('A' for Active; 'I' for Inactive)
REMARK    1  A    between atoms: O_2  and  C_13
REMARK    2  A    between atoms: O_3  and  C_14
REMARK    3  A    between atoms: O_4  and  C_16
REMARK    4  A    between atoms: O_5  and  C_17
REMARK    5  A    between atoms: O_6  and  C_18
REMARK    6  A    between atoms: O_8  and  C_22
REMARK    7  A    between atoms: O_9  and  C_23
REMARK    8  A    between atoms: C_12  and  C_19
REMARK                            x       y       z     vdW  Elec       q    Type
REMARK                         _______ _______ _______ _____ _____    ______ ____
ROOT
ATOM      1  O   UNL     1     113.542 127.553 136.347  0.00  0.00    +0.000 OA
ATOM      2  O   UNL     1     111.165 127.641 135.479  0.00  0.00    +0.000 OA
ATOM      3  C   UNL     1     112.244 126.908 136.136  0.00  0.00    +0.000 A 
ATOM      4  C   UNL     1     113.018 126.876 136.420  0.00  0.00    +0.000 A 
ATOM      5  C   UNL     1     113.257 128.273 135.973  0.00  0.00    +0.000 A 
ATOM      6  C   UNL     1     111.750 126.251 136.212  0.00  0.00    +0.000 A 
ATOM      7  C   UNL     1     113.299 126.188 136.779  0.00  0.00    +0.000 A 
ATOM      8  C   UNL     1     111.941 127.618 135.760  0.00  0.00    +0.000 A 
ATOM      9  C   UNL     1     112.451 128.305 135.678  0.00  0.00    +0.000 A 
ATOM     10  C   UNL     1     112.030 125.564 136.571  0.00  0.00    +0.000 A 
ATOM     11  C   UNL     1     112.804 125.532 136.855  0.00  0.00    +0.000 A 
ENDROOT
BRANCH   5  12
ATOM     12  C   UNL     1     113.753 128.927 135.899  0.00  0.00    +0.000 A 
ATOM     13  C   UNL     1     113.808 129.475 136.513  0.00  0.00    +0.000 A 
ATOM     14  C   UNL     1     114.195 129.035 135.211  0.00  0.00    +0.000 A 
ATOM     15  C   UNL     1     114.303 130.130 136.440  0.00  0.00    +0.000 A 
ATOM     16  C   UNL     1     114.746 130.238 135.751  0.00  0.00    +0.000 A 
ATOM     17  C   UNL     1     114.691 129.690 135.137  0.00  0.00    +0.000 A 
BRANCH  15  18
ATOM     18  O   UNL     1     114.358 130.678 137.054  0.00  0.00    +0.000 OA
ATOM     19  C   UNL     1     114.043 130.500 137.796  0.00  0.00    +0.000 C 
ENDBRANCH  15  18
BRANCH  16  20
ATOM     20  O   UNL     1     115.241 130.892 135.677  0.00  0.00    +0.000 OA
ATOM     21  C   UNL     1     115.654 131.020 134.975  0.00  0.00    +0.000 C 
ENDBRANCH  16  20
ENDBRANCH   5  12
BRANCH   6  22
ATOM     22  O   UNL     1     110.976 126.283 135.928  0.00  0.00    +0.000 OA
ATOM     23  C   UNL     1     110.814 126.078 135.146  0.00  0.00    +0.000 C 
ENDBRANCH   6  22
BRANCH   7  24
ATOM     24  O   UNL     1     114.072 126.156 137.063  0.00  0.00    +0.000 OA
ATOM     25  C   UNL     1     114.216 126.192 137.874  0.00  0.00    +0.000 C 
ENDBRANCH   7  24
BRANCH   9  26
ATOM     26  O   UNL     1     112.168 128.992 135.318  0.00  0.00    +0.000 OA
ATOM     27  C   UNL     1     111.383 129.220 135.424  0.00  0.00    +0.000 C 
ENDBRANCH   9  26
BRANCH  10  28
ATOM     28  O   UNL     1     111.536 124.907 136.647  0.00  0.00    +0.000 OA
ATOM     29  C   UNL     1     111.098 124.797 137.337  0.00  0.00    +0.000 C 
ENDBRANCH  10  28
BRANCH  11  30
ATOM     30  O   UNL     1     113.084 124.844 137.214  0.00  0.00    +0.000 OA
ATOM     31  C   UNL     1     113.447 124.260 136.759  0.00  0.00    +0.000 C 
ENDBRANCH  11  30
TORSDOF 8
ENDMDL
MODEL 2
REMARK VINA RESULT:      -7.0     10.154     12.265
REMARK  Name = 150893
REMARK  8 active torsions:
REMARK  status: ('A' for Active; 'I' for Inactive)
REMARK    1  A    between atoms: O_2  and  C_13
REMARK    2  A    between atoms: O_3  and  C_14
REMARK    3  A    between atoms: O_4  and  C_16
REMARK    4  A    between atoms: O_5  and  C_17
REMARK    5  A    between atoms: O_6  and  C_18
REMARK    6  A    between atoms: O_8  and  C_22
REMARK    7  A    between atoms: O_9  and  C_23
REMARK    8  A    between atoms: C_12  and  C_19
REMARK                            x       y       z     vdW  Elec       q    Type
REMARK                         _______ _______ _______ _____ _____    ______ ____
ROOT
ATOM      1  O   UNL     1     106.741 126.429 145.742  0.00  0.00    +0.000 OA
ATOM      2  O   UNL     1     105.364 124.810 144.364  0.00  0.00    +0.000 OA
ATOM      3  C   UNL     1     106.118 126.057 144.469  0.00  0.00    +0.000 A 
ATOM      4  C   UNL     1     106.567 126.586 144.916  0.00  0.00    +0.000 A 
ATOM      5  C   UNL     1     106.443 125.710 146.109  0.00  0.00    +0.000 A 
ATOM      6  C   UNL     1     105.959 126.219 143.676  0.00  0.00    +0.000 A 
ATOM      7  C   UNL     1     106.856 127.277 144.569  0.00  0.00    +0.000 A 
ATOM      8  C   UNL     1     105.812 125.334 144.818  0.00  0.00    +0.000 A 
ATOM      9  C   UNL     1     105.976 125.159 145.644  0.00  0.00    +0.000 A 
ATOM     10  C   UNL     1     106.247 126.910 143.330  0.00  0.00    +0.000 A 
ATOM     11  C   UNL     1     106.696 127.439 143.776  0.00  0.00    +0.000 A 
ENDROOT
BRANCH   5  12
ATOM     12  C   UNL     1     106.605 125.551 146.902  0.00  0.00    +0.000 A 
ATOM     13  C   UNL     1     106.121 125.863 147.493  0.00  0.00    +0.000 A 
ATOM     14  C   UNL     1     107.250 125.080 147.105  0.00  0.00    +0.000 A 
ATOM     15  C   UNL     1     106.281 125.704 148.286  0.00  0.00    +0.000 A 
ATOM     16  C   UNL     1     106.928 125.232 148.489  0.00  0.00    +0.000 A 
ATOM     17  C   UNL     1     107.412 124.920 147.898  0.00  0.00    +0.000 A 
BRANCH  15  18
ATOM     18  O   UNL     1     105.797 126.017 148.876  0.00  0.00    +0.000 OA
ATOM     19  C   UNL     1     105.360 126.701 148.732  0.00  0.00    +0.000 C 
ENDBRANCH  15  18
BRANCH  16  20
ATOM     20  O   UNL     1     107.089 125.073 149.281  0.00  0.00    +0.000 OA
ATOM     21  C   UNL     1     107.672 124.526 149.482  0.00  0.00    +0.000 C 
ENDBRANCH  16  20
ENDBRANCH   5  12
BRANCH   6  22
ATOM     22  O   UNL     1     105.510 125.690 143.230  0.00  0.00    +0.000 OA
ATOM     23  C   UNL     1     105.877 125.062 142.842  0.00  0.00    +0.000 C 
ENDBRANCH   6  22
BRANCH   7  24
ATOM     24  O   UNL     1     107.304 127.806 145.015  0.00  0.00    +0.000 OA
ATOM     25  C   UNL     1     106.955 128.487 145.323  0.00  0.00    +0.000 C 
ENDBRANCH   7  24
BRANCH   9  26
ATOM     26  O   UNL     1     105.686 124.468 145.988  0.00  0.00    +0.000 OA
ATOM     27  C   UNL     1     104.917 124.217 145.825  0.00  0.00    +0.000 C 
ENDBRANCH   9  26
BRANCH  10  28
ATOM     28  O   UNL     1     106.087 127.072 142.537  0.00  0.00    +0.000 OA
ATOM     29  C   UNL     1     105.420 127.511 142.332  0.00  0.00    +0.000 C 
ENDBRANCH  10  28
BRANCH  11  30
ATOM     30  O   UNL     1     106.984 128.130 143.430  0.00  0.00    +0.000 OA
ATOM     31  C   UNL     1     107.723 128.129 143.062  0.00  0.00    +0.000 C 
ENDBRANCH  11  30
TORSDOF 8
ENDMDL
MODEL 3
REMARK VINA RESULT:      -6.8      2.152      4.902
REMARK  Name = 150893
REMARK  8 active torsions:
REMARK  status: ('A' for Active; 'I' for Inactive)
REMARK    1  A    between atoms: O_2  and  C_13
REMARK    2  A    between atoms: O_3  and  C_14
REMARK    3  A    between atoms: O_4  and  C_16
REMARK    4  A    between atoms: O_5  and  C_17
REMARK    5  A    between atoms: O_6  and  C_18
REMARK    6  A    between atoms: O_8  and  C_22
REMARK    7  A    between atoms: O_9  and  C_23
REMARK    8  A    between atoms: C_12  and  C_19
REMARK                            x       y       z     vdW  Elec       q    Type
REMARK                         _______ _______ _______ _____ _____    ______ ____
ROOT
ATOM      1  O   UNL     1     113.172 127.126 138.881  0.00  0.00    +0.000 OA
ATOM      2  O   UNL     1     113.045 129.060 137.252  0.00  0.00    +0.000 OA
ATOM      3  C   UNL     1     113.234 128.565 138.613  0.00  0.00    +0.000 A 
ATOM      4  C   UNL     1     113.275 127.936 139.146  0.00  0.00    +0.000 A 
ATOM      5  C   UNL     1     113.022 126.967 138.049  0.00  0.00    +0.000 A 
ATOM      6  C   UNL     1     113.335 129.339 138.880  0.00  0.00    +0.000 A 
ATOM      7  C   UNL     1     113.419 128.082 139.946  0.00  0.00    +0.000 A 
ATOM      8  C   UNL     1     113.085 128.426 137.778  0.00  0.00    +0.000 A 
ATOM      9  C   UNL     1     112.979 127.622 137.494  0.00  0.00    +0.000 A 
ATOM     10  C   UNL     1     113.478 129.485 139.678  0.00  0.00    +0.000 A 
ATOM     11  C   UNL     1     113.520 128.856 140.211  0.00  0.00    +0.000 A 
ENDROOT
BRANCH   5  12
ATOM     12  C   UNL     1     112.921 126.192 137.785  0.00  0.00    +0.000 A 
ATOM     13  C   UNL     1     113.579 125.734 137.589  0.00  0.00    +0.000 A 
ATOM     14  C   UNL     1     112.163 125.874 137.718  0.00  0.00    +0.000 A 
ATOM     15  C   UNL     1     113.479 124.959 137.325  0.00  0.00    +0.000 A 
ATOM     16  C   UNL     1     112.720 124.641 137.258  0.00  0.00    +0.000 A 
ATOM     17  C   UNL     1     112.062 125.099 137.454  0.00  0.00    +0.000 A 
BRANCH  15  18
ATOM     18  O   UNL     1     114.137 124.502 137.129  0.00  0.00    +0.000 OA
ATOM     19  C   UNL     1     114.895 124.769 137.313  0.00  0.00    +0.000 C 
ENDBRANCH  15  18
BRANCH  16  20
ATOM     20  O   UNL     1     112.619 123.867 136.994  0.00  0.00    +0.000 OA
ATOM     21  C   UNL     1     111.865 123.536 136.965  0.00  0.00    +0.000 C 
ENDBRANCH  16  20
ENDBRANCH   5  12
BRANCH   6  22
ATOM     22  O   UNL     1     113.294 129.967 138.347  0.00  0.00    +0.000 OA
ATOM     23  C   UNL     1     112.566 130.314 138.173  0.00  0.00    +0.000 C 
ENDBRANCH   6  22
BRANCH   7  24
ATOM     24  O   UNL     1     113.460 127.454 140.478  0.00  0.00    +0.000 OA
ATOM     25  C   UNL     1     114.194 127.183 140.740  0.00  0.00    +0.000 C 
ENDBRANCH   7  24
BRANCH   9  26
ATOM     26  O   UNL     1     112.836 127.479 136.694  0.00  0.00    +0.000 OA
ATOM     27  C   UNL     1     113.193 127.951 136.121  0.00  0.00    +0.000 C 
ENDBRANCH   9  26
BRANCH  10  28
ATOM     28  O   UNL     1     113.580 130.259 139.946  0.00  0.00    +0.000 OA
ATOM     29  C   UNL     1     114.334 130.590 139.976  0.00  0.00    +0.000 C 
ENDBRANCH  10  28
BRANCH  11  30
ATOM     30  O   UNL     1     113.663 129.002 141.011  0.00  0.00    +0.000 OA
ATOM     31  C   UNL     1     113.031 129.132 141.526  0.00  0.00    +0.000 C 
ENDBRANCH  11  30
TORSDOF 8
ENDMDL
MODEL 4
REMARK VINA RESULT:      -6.8      1.310      4.799
REMARK  Name = 150893
REMARK  8 active torsions:
REMARK  status: ('A' for Active; 'I' for Inactive)
REMARK    1  A    between atoms: O_2  and  C_13
REMARK    2  A    between atoms: O_3  and  C_14
REMARK    3  A    between atoms: O_4  and  C_16
REMARK    4  A    between atoms: O_5  and  C_17
REMARK    5  A    between atoms: O_6  and  C_18
REMARK    6  A    between atoms: O_8  and  C_22
REMARK    7  A    between atoms: O_9  and  C_23
REMARK    8  A    between atoms: C_12  and  C_19
REMARK                            x       y       z     vdW  Elec       q    Type
REMARK                         _______ _______ _______ _____ _____    ______ ____
ROOT
ATOM      1  O   UNL     1     113.451 127.888 136.484  0.00  0.00    +0.000 OA
ATOM      2  O   UNL     1     112.684 128.884 138.682  0.00  0.00    +0.000 OA
ATOM      3  C   UNL     1     113.308 129.045 137.371  0.00  0.00    +0.000 A 
ATOM      4  C   UNL     1     113.559 128.723 136.654  0.00  0.00    +0.000 A 
ATOM      5  C   UNL     1     113.078 127.381 137.069  0.00  0.00    +0.000 A 
ATOM      6  C   UNL     1     113.416 129.849 137.523  0.00  0.00    +0.000 A 
ATOM      7  C   UNL     1     113.918 129.205 136.089  0.00  0.00    +0.000 A 
ATOM      8  C   UNL     1     112.932 128.554 137.968  0.00  0.00    +0.000 A 
ATOM      9  C   UNL     1     112.816 127.716 137.816  0.00  0.00    +0.000 A 
ATOM     10  C   UNL     1     113.776 130.330 136.958  0.00  0.00    +0.000 A 
ATOM     11  C   UNL     1     114.026 130.008 136.241  0.00  0.00    +0.000 A 
ENDROOT
BRANCH   5  12
ATOM     12  C   UNL     1     112.970 126.577 136.915  0.00  0.00    +0.000 A 
ATOM     13  C   UNL     1     113.558 126.036 137.119  0.00  0.00    +0.000 A 
ATOM     14  C   UNL     1     112.276 126.315 136.556  0.00  0.00    +0.000 A 
ATOM     15  C   UNL     1     113.452 125.233 136.966  0.00  0.00    +0.000 A 
ATOM     16  C   UNL     1     112.757 124.970 136.606  0.00  0.00    +0.000 A 
ATOM     17  C   UNL     1     112.169 125.511 136.402  0.00  0.00    +0.000 A 
BRANCH  15  18
ATOM     18  O   UNL     1     114.040 124.691 137.170  0.00  0.00    +0.000 OA
ATOM     19  C   UNL     1     114.816 124.948 137.283  0.00  0.00    +0.000 C 
ENDBRANCH  15  18
BRANCH  16  20
ATOM     20  O   UNL     1     112.650 124.168 136.452  0.00  0.00    +0.000 OA
ATOM     21  C   UNL     1     111.891 123.867 136.339  0.00  0.00    +0.000 C 
ENDBRANCH  16  20
ENDBRANCH   5  12
BRANCH   6  22
ATOM     22  O   UNL     1     113.166 130.171 138.240  0.00  0.00    +0.000 OA
ATOM     23  C   UNL     1     113.669 130.165 138.893  0.00  0.00    +0.000 C 
ENDBRANCH   6  22
BRANCH   7  24
ATOM     24  O   UNL     1     114.169 128.884 135.373  0.00  0.00    +0.000 OA
ATOM     25  C   UNL     1     113.730 129.012 134.686  0.00  0.00    +0.000 C 
ENDBRANCH   7  24
BRANCH   9  26
ATOM     26  O   UNL     1     112.457 127.236 138.383  0.00  0.00    +0.000 OA
ATOM     27  C   UNL     1     111.846 127.537 138.850  0.00  0.00    +0.000 C 
ENDBRANCH   9  26
BRANCH  10  28
ATOM     28  O   UNL     1     113.884 131.134 137.109  0.00  0.00    +0.000 OA
ATOM     29  C   UNL     1     113.305 131.678 136.890  0.00  0.00    +0.000 C 
ENDBRANCH  10  28
BRANCH  11  30
ATOM     30  O   UNL     1     114.386 130.490 135.675  0.00  0.00    +0.000 OA
ATOM     31  C   UNL     1     115.206 130.581 135.673  0.00  0.00    +0.000 C 
ENDBRANCH  11  30
TORSDOF 8
ENDMDL
MODEL 5
REMARK VINA RESULT:      -6.8      1.936      4.596
REMARK  Name = 150893
REMARK  8 active torsions:
REMARK  status: ('A' for Active; 'I' for Inactive)
REMARK    1  A    between atoms: O_2  and  C_13
REMARK    2  A    between atoms: O_3  and  C_14
REMARK    3  A    between atoms: O_4  and  C_16
REMARK    4  A    between atoms: O_5  and  C_17
REMARK    5  A    between atoms: O_6  and  C_18
REMARK    6  A    between atoms: O_8  and  C_22
REMARK    7  A    between atoms: O_9  and  C_23
REMARK    8  A    between atoms: C_12  and  C_19
REMARK                            x       y       z     vdW  Elec       q    Type
REMARK                         _______ _______ _______ _____ _____    ______ ____
ROOT
ATOM      1  O   UNL     1     111.952 127.097 137.037  0.00  0.00    +0.000 OA
ATOM      2  O   UNL     1     110.793 127.759 134.886  0.00  0.00    +0.000 OA
ATOM      3  C   UNL     1     111.373 128.129 136.174  0.00  0.00    +0.000 A 
ATOM      4  C   UNL     1     111.751 127.916 136.876  0.00  0.00    +0.000 A 
ATOM      5  C   UNL     1     111.758 126.491 136.460  0.00  0.00    +0.000 A 
ATOM      6  C   UNL     1     111.185 128.920 136.031  0.00  0.00    +0.000 A 
ATOM      7  C   UNL     1     111.940 128.494 137.435  0.00  0.00    +0.000 A 
ATOM      8  C   UNL     1     111.171 127.538 135.585  0.00  0.00    +0.000 A 
ATOM      9  C   UNL     1     111.365 126.712 135.729  0.00  0.00    +0.000 A 
ATOM     10  C   UNL     1     111.374 129.497 136.588  0.00  0.00    +0.000 A 
ATOM     11  C   UNL     1     111.751 129.284 137.290  0.00  0.00    +0.000 A 
ENDROOT
BRANCH   5  12
ATOM     12  C   UNL     1     111.948 125.701 136.606  0.00  0.00    +0.000 A 
ATOM     13  C   UNL     1     112.700 125.417 136.422  0.00  0.00    +0.000 A 
ATOM     14  C   UNL     1     111.386 125.196 136.936  0.00  0.00    +0.000 A 
ATOM     15  C   UNL     1     112.891 124.628 136.568  0.00  0.00    +0.000 A 
ATOM     16  C   UNL     1     112.328 124.122 136.899  0.00  0.00    +0.000 A 
ATOM     17  C   UNL     1     111.576 124.407 137.083  0.00  0.00    +0.000 A 
BRANCH  15  18
ATOM     18  O   UNL     1     113.643 124.344 136.384  0.00  0.00    +0.000 OA
ATOM     19  C   UNL     1     114.287 124.859 136.373  0.00  0.00    +0.000 C 
ENDBRANCH  15  18
BRANCH  16  20
ATOM     20  O   UNL     1     112.518 123.334 137.045  0.00  0.00    +0.000 OA
ATOM     21  C   UNL     1     111.941 122.816 137.325  0.00  0.00    +0.000 C 
ENDBRANCH  16  20
ENDBRANCH   5  12
BRANCH   6  22
ATOM     22  O   UNL     1     110.807 129.133 135.329  0.00  0.00    +0.000 OA
ATOM     23  C   UNL     1     111.251 129.286 134.651  0.00  0.00    +0.000 C 
ENDBRANCH   6  22
BRANCH   7  24
ATOM     24  O   UNL     1     112.317 128.282 138.136  0.00  0.00    +0.000 OA
ATOM     25  C   UNL     1     111.881 128.201 138.831  0.00  0.00    +0.000 C 
ENDBRANCH   7  24
BRANCH   9  26
ATOM     26  O   UNL     1     111.174 126.137 135.169  0.00  0.00    +0.000 OA
ATOM     27  C   UNL     1     110.487 126.212 134.718  0.00  0.00    +0.000 C 
ENDBRANCH   9  26
BRANCH  10  28
ATOM     28  O   UNL     1     111.185 130.287 136.445  0.00  0.00    +0.000 OA
ATOM     29  C   UNL     1     110.459 130.590 136.692  0.00  0.00    +0.000 C 
ENDBRANCH  10  28
BRANCH  11  30
ATOM     30  O   UNL     1     111.941 129.862 137.849  0.00  0.00    +0.000 OA
ATOM     31  C   UNL     1     112.675 130.237 137.820  0.00  0.00    +0.000 C 
ENDBRANCH  11  30
TORSDOF 8
ENDMDL
MODEL 6
REMARK VINA RESULT:      -6.8     12.694     14.567
REMARK  Name = 150893
REMARK  8 active torsions:
REMARK  status: ('A' for Active; 'I' for Inactive)
REMARK    1  A    between atoms: O_2  and  C_13
REMARK    2  A    between atoms: O_3  and  C_14
REMARK    3  A    between atoms: O_4  and  C_16
REMARK    4  A    between atoms: O_5  and  C_17
REMARK    5  A    between atoms: O_6  and  C_18
REMARK    6  A    between atoms: O_8  and  C_22
REMARK    7  A    between atoms: O_9  and  C_23
REMARK    8  A    between atoms: C_12  and  C_19
REMARK                            x       y       z     vdW  Elec       q    Type
REMARK                         _______ _______ _______ _____ _____    ______ ____
ROOT
ATOM      1  O   UNL     1     104.423 125.363 146.991  0.00  0.00    +0.000 OA
ATOM      2  O   UNL     1     103.526 125.761 149.325  0.00  0.00    +0.000 OA
ATOM      3  C   UNL     1     103.433 125.085 148.034  0.00  0.00    +0.000 A 
ATOM      4  C   UNL     1     103.723 124.953 147.272  0.00  0.00    +0.000 A 
ATOM      5  C   UNL     1     104.828 125.917 147.509  0.00  0.00    +0.000 A 
ATOM      6  C   UNL     1     102.759 124.685 148.292  0.00  0.00    +0.000 A 
ATOM      7  C   UNL     1     103.339 124.422 146.770  0.00  0.00    +0.000 A 
ATOM      8  C   UNL     1     103.823 125.635 148.565  0.00  0.00    +0.000 A 
ATOM      9  C   UNL     1     104.526 126.054 148.301  0.00  0.00    +0.000 A 
ATOM     10  C   UNL     1     102.375 124.155 147.791  0.00  0.00    +0.000 A 
ATOM     11  C   UNL     1     102.665 124.024 147.030  0.00  0.00    +0.000 A 
ENDROOT
BRANCH   5  12
ATOM     12  C   UNL     1     105.501 126.315 147.247  0.00  0.00    +0.000 A 
ATOM     13  C   UNL     1     106.242 125.958 147.311  0.00  0.00    +0.000 A 
ATOM     14  C   UNL     1     105.435 127.069 146.921  0.00  0.00    +0.000 A 
ATOM     15  C   UNL     1     106.916 126.354 147.049  0.00  0.00    +0.000 A 
ATOM     16  C   UNL     1     106.850 127.110 146.723  0.00  0.00    +0.000 A 
ATOM     17  C   UNL     1     106.109 127.467 146.659  0.00  0.00    +0.000 A 
BRANCH  15  18
ATOM     18  O   UNL     1     107.657 125.997 147.114  0.00  0.00    +0.000 OA
ATOM     19  C   UNL     1     107.735 125.275 147.505  0.00  0.00    +0.000 C 
ENDBRANCH  15  18
BRANCH  16  20
ATOM     20  O   UNL     1     107.523 127.507 146.461  0.00  0.00    +0.000 OA
ATOM     21  C   UNL     1     107.461 128.275 146.168  0.00  0.00    +0.000 C 
ENDBRANCH  16  20
ENDBRANCH   5  12
BRANCH   6  22
ATOM     22  O   UNL     1     102.469 124.817 149.053  0.00  0.00    +0.000 OA
ATOM     23  C   UNL     1     101.944 125.438 149.194  0.00  0.00    +0.000 C 
ENDBRANCH   6  22
BRANCH   7  24
ATOM     24  O   UNL     1     103.628 124.291 146.010  0.00  0.00    +0.000 OA
ATOM     25  C   UNL     1     104.079 123.619 145.850  0.00  0.00    +0.000 C 
ENDBRANCH   7  24
BRANCH   9  26
ATOM     26  O   UNL     1     104.908 126.584 148.805  0.00  0.00    +0.000 OA
ATOM     27  C   UNL     1     104.962 126.420 149.611  0.00  0.00    +0.000 C 
ENDBRANCH   9  26
BRANCH  10  28
ATOM     28  O   UNL     1     101.701 123.756 148.050  0.00  0.00    +0.000 OA
ATOM     29  C   UNL     1     101.772 123.023 148.420  0.00  0.00    +0.000 C 
ENDBRANCH  10  28
BRANCH  11  30
ATOM     30  O   UNL     1     102.281 123.492 146.528  0.00  0.00    +0.000 OA
ATOM     31  C   UNL     1     101.650 123.749 146.062  0.00  0.00    +0.000 C 
ENDBRANCH  11  30
TORSDOF 8
ENDMDL
MODEL 7
REMARK VINA RESULT:      -6.7     11.069     13.027
REMARK  Name = 150893
REMARK  8 active torsions:
REMARK  status: ('A' for Active; 'I' for Inactive)
REMARK    1  A    between atoms: O_2  and  C_13
REMARK    2  A    between atoms: O_3  and  C_14
REMARK    3  A    between atoms: O_4  and  C_16
REMARK    4  A    between atoms: O_5  and  C_17
REMARK    5  A    between atoms: O_6  and  C_18
REMARK    6  A    between atoms: O_8  and  C_22
REMARK    7  A    between atoms: O_9  and  C_23
REMARK    8  A    between atoms: C_12  and  C_19
REMARK                            x       y       z     vdW  Elec       q    Type
REMARK                         _______ _______ _______ _____ _____    ______ ____
ROOT
ATOM      1  O   UNL     1     103.368 132.340 140.930  0.00  0.00    +0.000 OA
ATOM      2  O   UNL     1     101.226 133.138 142.018  0.00  0.00    +0.000 OA
ATOM      3  C   UNL     1     102.434 133.422 141.249  0.00  0.00    +0.000 A 
ATOM      4  C   UNL     1     103.133 133.165 140.894  0.00  0.00    +0.000 A 
ATOM      5  C   UNL     1     102.869 131.774 141.342  0.00  0.00    +0.000 A 
ATOM      6  C   UNL     1     102.219 134.218 141.207  0.00  0.00    +0.000 A 
ATOM      7  C   UNL     1     103.617 133.703 140.496  0.00  0.00    +0.000 A 
ATOM      8  C   UNL     1     101.923 132.872 141.665  0.00  0.00    +0.000 A 
ATOM      9  C   UNL     1     102.141 132.042 141.712  0.00  0.00    +0.000 A 
ATOM     10  C   UNL     1     102.702 134.756 140.811  0.00  0.00    +0.000 A 
ATOM     11  C   UNL     1     103.401 134.499 140.455  0.00  0.00    +0.000 A 
ENDROOT
BRANCH   5  12
ATOM     12  C   UNL     1     103.086 130.979 141.382  0.00  0.00    +0.000 A 
ATOM     13  C   UNL     1     102.876 130.463 140.773  0.00  0.00    +0.000 A 
ATOM     14  C   UNL     1     103.514 130.700 142.029  0.00  0.00    +0.000 A 
ATOM     15  C   UNL     1     103.093 129.669 140.812  0.00  0.00    +0.000 A 
ATOM     16  C   UNL     1     103.521 129.389 141.461  0.00  0.00    +0.000 A 
ATOM     17  C   UNL     1     103.731 129.905 142.069  0.00  0.00    +0.000 A 
BRANCH  15  18
ATOM     18  O   UNL     1     102.883 129.152 140.204  0.00  0.00    +0.000 OA
ATOM     19  C   UNL     1     102.340 129.390 139.630  0.00  0.00    +0.000 C 
ENDBRANCH  15  18
BRANCH  16  20
ATOM     20  O   UNL     1     103.738 128.595 141.500  0.00  0.00    +0.000 OA
ATOM     21  C   UNL     1     104.394 128.368 141.946  0.00  0.00    +0.000 C 
ENDBRANCH  16  20
ENDBRANCH   5  12
BRANCH   6  22
ATOM     22  O   UNL     1     101.521 134.475 141.563  0.00  0.00    +0.000 OA
ATOM     23  C   UNL     1     101.519 134.696 142.358  0.00  0.00    +0.000 C 
ENDBRANCH   6  22
BRANCH   7  24
ATOM     24  O   UNL     1     104.314 133.446 140.141  0.00  0.00    +0.000 OA
ATOM     25  C   UNL     1     104.334 133.298 139.330  0.00  0.00    +0.000 C 
ENDBRANCH   7  24
BRANCH   9  26
ATOM     26  O   UNL     1     101.656 131.506 142.110  0.00  0.00    +0.000 OA
ATOM     27  C   UNL     1     100.842 131.636 142.147  0.00  0.00    +0.000 C 
ENDBRANCH   9  26
BRANCH  10  28
ATOM     28  O   UNL     1     102.488 135.552 140.769  0.00  0.00    +0.000 OA
ATOM     29  C   UNL     1     102.030 135.823 140.139  0.00  0.00    +0.000 C 
ENDBRANCH  10  28
BRANCH  11  30
ATOM     30  O   UNL     1     103.885 135.037 140.058  0.00  0.00    +0.000 OA
ATOM     31  C   UNL     1     104.457 135.461 140.474  0.00  0.00    +0.000 C 
ENDBRANCH  11  30
TORSDOF 8
ENDMDL
MODEL 8
REMARK VINA RESULT:      -6.7     12.598     14.637
REMARK  Name = 150893
REMARK  8 active torsions:
REMARK  status: ('A' for Active; 'I' for Inactive)
REMARK    1  A    between atoms: O_2  and  C_13
REMARK    2  A    between atoms: O_3  and  C_14
REMARK    3  A    between atoms: O_4  and  C_16
REMARK    4  A    between atoms: O_5  and  C_17
REMARK    5  A    between atoms: O_6  and  C_18
REMARK    6  A    between atoms: O_8  and  C_22
REMARK    7  A    between atoms: O_9  and  C_23
REMARK    8  A    between atoms: C_12  and  C_19
REMARK                            x       y       z     vdW  Elec       q    Type
REMARK                         _______ _______ _______ _____ _____    ______ ____
ROOT
ATOM      1  O   UNL     1     104.078 125.128 147.431  0.00  0.00    +0.000 OA
ATOM      2  O   UNL     1     103.037 123.286 146.041  0.00  0.00    +0.000 OA
ATOM      3  C   UNL     1     103.076 124.072 147.271  0.00  0.00    +0.000 A 
ATOM      4  C   UNL     1     103.413 124.672 147.726  0.00  0.00    +0.000 A 
ATOM      5  C   UNL     1     104.396 124.958 146.651  0.00  0.00    +0.000 A 
ATOM      6  C   UNL     1     102.437 123.640 147.566  0.00  0.00    +0.000 A 
ATOM      7  C   UNL     1     103.112 124.840 148.476  0.00  0.00    +0.000 A 
ATOM      8  C   UNL     1     103.380 123.887 146.489  0.00  0.00    +0.000 A 
ATOM      9  C   UNL     1     104.045 124.334 146.177  0.00  0.00    +0.000 A 
ATOM     10  C   UNL     1     102.136 123.808 148.315  0.00  0.00    +0.000 A 
ATOM     11  C   UNL     1     102.473 124.408 148.770  0.00  0.00    +0.000 A 
ENDROOT
BRANCH   5  12
ATOM     12  C   UNL     1     105.034 125.392 146.359  0.00  0.00    +0.000 A 
ATOM     13  C   UNL     1     105.805 125.173 146.554  0.00  0.00    +0.000 A 
ATOM     14  C   UNL     1     104.903 126.044 145.871  0.00  0.00    +0.000 A 
ATOM     15  C   UNL     1     106.444 125.605 146.263  0.00  0.00    +0.000 A 
ATOM     16  C   UNL     1     106.312 126.258 145.775  0.00  0.00    +0.000 A 
ATOM     17  C   UNL     1     105.541 126.477 145.579  0.00  0.00    +0.000 A 
BRANCH  15  18
ATOM     18  O   UNL     1     107.215 125.386 146.459  0.00  0.00    +0.000 OA
ATOM     19  C   UNL     1     107.378 125.072 147.204  0.00  0.00    +0.000 C 
ENDBRANCH  15  18
BRANCH  16  20
ATOM     20  O   UNL     1     106.950 126.691 145.484  0.00  0.00    +0.000 OA
ATOM     21  C   UNL     1     106.821 127.412 145.105  0.00  0.00    +0.000 C 
ENDBRANCH  16  20
ENDBRANCH   5  12
BRANCH   6  22
ATOM     22  O   UNL     1     102.100 123.041 147.111  0.00  0.00    +0.000 OA
ATOM     23  C   UNL     1     101.438 123.199 146.644  0.00  0.00    +0.000 C 
ENDBRANCH   6  22
BRANCH   7  24
ATOM     24  O   UNL     1     103.448 125.439 148.931  0.00  0.00    +0.000 OA
ATOM     25  C   UNL     1     103.884 125.250 149.605  0.00  0.00    +0.000 C 
ENDBRANCH   7  24
BRANCH   9  26
ATOM     26  O   UNL     1     104.344 124.164 145.427  0.00  0.00    +0.000 OA
ATOM     27  C   UNL     1     104.265 123.405 145.114  0.00  0.00    +0.000 C 
ENDBRANCH   9  26
BRANCH  10  28
ATOM     28  O   UNL     1     101.498 123.376 148.610  0.00  0.00    +0.000 OA
ATOM     29  C   UNL     1     101.628 122.743 149.122  0.00  0.00    +0.000 C 
ENDBRANCH  10  28
BRANCH  11  30
ATOM     30  O   UNL     1     102.172 124.576 149.520  0.00  0.00    +0.000 OA
ATOM     31  C   UNL     1     101.599 125.162 149.612  0.00  0.00    +0.000 C 
ENDBRANCH  11  30
TORSDOF 8
ENDMDL
MODEL 9
REMARK VINA RESULT:      -6.6      0.991      2.566
REMARK  Name = 150893
REMARK  8 active torsions:
REMARK  status: ('A' for Active; 'I' for Inactive)
REMARK    1  A    between atoms: O_2  and  C_13
REMARK    2  A    between atoms: O_3  and  C_14
REMARK    3  A    between atoms: O_4  and  C_16
REMARK    4  A    between atoms: O_5  and  C_17
REMARK    5  A    between atoms: O_6  and  C_18
REMARK    6  A    between atoms: O_8  and  C_22
REMARK    7  A    between atoms: O_9  and  C_23
REMARK    8  A    between atoms: C_12  and  C_19
REMARK                            x       y       z     vdW  Elec       q    Type
REMARK                         _______ _______ _______ _____ _____    ______ ____
ROOT
ATOM      1  O   UNL     1     112.139 128.594 135.746  0.00  0.00    +0.000 OA
ATOM      2  O   UNL     1     112.738 126.196 136.292  0.00  0.00    +0.000 OA
ATOM      3  C   UNL     1     111.739 127.197 135.927  0.00  0.00    +0.000 A 
ATOM      4  C   UNL     1     111.541 127.977 135.749  0.00  0.00    +0.000 A 
ATOM      5  C   UNL     1     112.954 128.396 135.931  0.00  0.00    +0.000 A 
ATOM      6  C   UNL     1     111.156 126.613 135.927  0.00  0.00    +0.000 A 
ATOM      7  C   UNL     1     110.759 128.175 135.571  0.00  0.00    +0.000 A 
ATOM      8  C   UNL     1     112.549 126.979 136.115  0.00  0.00    +0.000 A 
ATOM      9  C   UNL     1     113.161 127.583 136.117  0.00  0.00    +0.000 A 
ATOM     10  C   UNL     1     110.375 126.810 135.749  0.00  0.00    +0.000 A 
ATOM     11  C   UNL     1     110.177 127.591 135.571  0.00  0.00    +0.000 A 
ENDROOT
BRANCH   5  12
ATOM     12  C   UNL     1     113.535 128.981 135.931  0.00  0.00    +0.000 A 
ATOM     13  C   UNL     1     113.645 129.454 136.598  0.00  0.00    +0.000 A 
ATOM     14  C   UNL     1     114.007 129.095 135.264  0.00  0.00    +0.000 A 
ATOM     15  C   UNL     1     114.225 130.040 136.599  0.00  0.00    +0.000 A 
ATOM     16  C   UNL     1     114.697 130.154 135.930  0.00  0.00    +0.000 A 
ATOM     17  C   UNL     1     114.587 129.681 135.263  0.00  0.00    +0.000 A 
BRANCH  15  18
ATOM     18  O   UNL     1     114.335 130.513 137.266  0.00  0.00    +0.000 OA
ATOM     19  C   UNL     1     113.846 130.417 137.924  0.00  0.00    +0.000 C 
ENDBRANCH  15  18
BRANCH  16  20
ATOM     20  O   UNL     1     115.277 130.739 135.930  0.00  0.00    +0.000 OA
ATOM     21  C   UNL     1     115.698 130.903 135.240  0.00  0.00    +0.000 C 
ENDBRANCH  16  20
ENDBRANCH   5  12
BRANCH   6  22
ATOM     22  O   UNL     1     111.354 125.832 136.105  0.00  0.00    +0.000 OA
ATOM     23  C   UNL     1     111.309 125.562 136.883  0.00  0.00    +0.000 C 
ENDBRANCH   6  22
BRANCH   7  24
ATOM     24  O   UNL     1     110.562 128.955 135.393  0.00  0.00    +0.000 OA
ATOM     25  C   UNL     1     110.409 129.174 134.612  0.00  0.00    +0.000 C 
ENDBRANCH   7  24
BRANCH   9  26
ATOM     26  O   UNL     1     113.941 127.383 136.296  0.00  0.00    +0.000 OA
ATOM     27  C   UNL     1     114.135 126.603 136.482  0.00  0.00    +0.000 C 
ENDBRANCH   9  26
BRANCH  10  28
ATOM     28  O   UNL     1     109.792 126.226 135.748  0.00  0.00    +0.000 OA
ATOM     29  C   UNL     1     109.633 125.802 135.060  0.00  0.00    +0.000 C 
ENDBRANCH  10  28
BRANCH  11  30
ATOM     30  O   UNL     1     109.395 127.788 135.392  0.00  0.00    +0.000 OA
ATOM     31  C   UNL     1     108.887 128.039 135.991  0.00  0.00    +0.000 C 
ENDBRANCH  11  30
TORSDOF 8
ENDMDL
MODEL 10
REMARK VINA RESULT:      -6.6      1.624      3.955
REMARK  Name = 150893
REMARK  8 active torsions:
REMARK  status: ('A' for Active; 'I' for Inactive)
REMARK    1  A    between atoms: O_2  and  C_13
REMARK    2  A    between atoms: O_3  and  C_14
REMARK    3  A    between atoms: O_4  and  C_16
REMARK    4  A    between atoms: O_5  and  C_17
REMARK    5  A    between atoms: O_6  and  C_18
REMARK    6  A    between atoms: O_8  and  C_22
REMARK    7  A    between atoms: O_9  and  C_23
REMARK    8  A    between atoms: C_12  and  C_19
REMARK                            x       y       z     vdW  Elec       q    Type
REMARK                         _______ _______ _______ _____ _____    ______ ____
ROOT
ATOM      1  O   UNL     1     111.407 126.984 136.814  0.00  0.00    +0.000 OA
ATOM      2  O   UNL     1     112.045 129.223 135.820  0.00  0.00    +0.000 OA
ATOM      3  C   UNL     1     111.019 128.256 136.199  0.00  0.00    +0.000 A 
ATOM      4  C   UNL     1     110.808 127.527 136.522  0.00  0.00    +0.000 A 
ATOM      5  C   UNL     1     112.237 127.203 136.768  0.00  0.00    +0.000 A 
ATOM      6  C   UNL     1     110.434 128.768 135.922  0.00  0.00    +0.000 A 
ATOM      7  C   UNL     1     110.013 127.310 136.569  0.00  0.00    +0.000 A 
ATOM      8  C   UNL     1     111.843 128.492 136.145  0.00  0.00    +0.000 A 
ATOM      9  C   UNL     1     112.456 127.962 136.431  0.00  0.00    +0.000 A 
ATOM     10  C   UNL     1     109.640 128.552 135.969  0.00  0.00    +0.000 A 
ATOM     11  C   UNL     1     109.429 127.823 136.292  0.00  0.00    +0.000 A 
ENDROOT
BRANCH   5  12
ATOM     12  C   UNL     1     112.819 126.688 137.045  0.00  0.00    +0.000 A 
ATOM     13  C   UNL     1     113.029 126.695 137.843  0.00  0.00    +0.000 A 
ATOM     14  C   UNL     1     113.190 126.167 136.526  0.00  0.00    +0.000 A 
ATOM     15  C   UNL     1     113.610 126.181 138.122  0.00  0.00    +0.000 A 
ATOM     16  C   UNL     1     113.983 125.659 137.601  0.00  0.00    +0.000 A 
ATOM     17  C   UNL     1     113.772 125.652 136.804  0.00  0.00    +0.000 A 
BRANCH  15  18
ATOM     18  O   UNL     1     113.821 126.188 138.919  0.00  0.00    +0.000 OA
ATOM     19  C   UNL     1     113.349 126.586 139.467  0.00  0.00    +0.000 C 
ENDBRANCH  15  18
BRANCH  16  20
ATOM     20  O   UNL     1     114.564 125.145 137.879  0.00  0.00    +0.000 OA
ATOM     21  C   UNL     1     114.899 124.588 137.371  0.00  0.00    +0.000 C 
ENDBRANCH  16  20
ENDBRANCH   5  12
BRANCH   6  22
ATOM     22  O   UNL     1     110.645 129.497 135.599  0.00  0.00    +0.000 OA
ATOM     23  C   UNL     1     110.833 129.555 134.798  0.00  0.00    +0.000 C 
ENDBRANCH   6  22
BRANCH   7  24
ATOM     24  O   UNL     1     109.802 126.582 136.892  0.00  0.00    +0.000 OA
ATOM     25  C   UNL     1     109.545 126.536 137.674  0.00  0.00    +0.000 C 
ENDBRANCH   7  24
BRANCH   9  26
ATOM     26  O   UNL     1     113.250 128.181 136.383  0.00  0.00    +0.000 OA
ATOM     27  C   UNL     1     113.471 128.965 136.515  0.00  0.00    +0.000 C 
ENDBRANCH   9  26
BRANCH  10  28
ATOM     28  O   UNL     1     109.056 129.065 135.692  0.00  0.00    +0.000 OA
ATOM     29  C   UNL     1     108.723 129.624 136.199  0.00  0.00    +0.000 C 
ENDBRANCH  10  28
BRANCH  11  30
ATOM     30  O   UNL     1     108.634 127.607 136.339  0.00  0.00    +0.000 OA
ATOM     31  C   UNL     1     108.294 127.155 135.739  0.00  0.00    +0.000 C 
ENDBRANCH  11  30
TORSDOF 8
ENDMDL
