MODEL 1
REMARK VINA RESULT:      -8.4      0.000      0.000
REMARK  Name = 44259125
REMARK  10 active torsions:
REMARK  status: ('A' for Active; 'I' for Inactive)
REMARK    1  A    between atoms: O_2  and  C_16
REMARK    2  A    between atoms: O_2  and  C_23
REMARK    3  A    between atoms: O_3  and  C_17
REMARK    4  A    between atoms: O_3  and  C_24
REMARK    5  A    between atoms: O_4  and  C_18
REMARK    6  A    between atoms: O_4  and  C_25
REMARK    7  A    between atoms: O_5  and  C_20
REMARK    8  A    between atoms: O_5  and  C_22
REMARK    9  A    between atoms: C_19  and  C_21
REMARK   10  A    between atoms: C_26  and  C_33
REMARK                            x       y       z     vdW  Elec       q    Type
REMARK                         _______ _______ _______ _____ _____    ______ ____
ROOT
ATOM      1  O   UNL     1     112.094 126.925 138.747  0.00  0.00    +0.000 OA
ENDROOT
BRANCH   1   6
ATOM      2  O   UNL     1     111.174 128.288 140.182  0.00  0.00    +0.000 OA
ATOM      3  O   UNL     1     111.168 125.877 139.623  0.00  0.00    +0.000 OA
ATOM      4  O   UNL     1     110.235 125.603 140.689  0.00  0.00    +0.000 OA
ATOM      5  O   UNL     1     109.291 127.810 142.352  0.00  0.00    +0.000 OA
ATOM      6  C   UNL     1     111.633 127.205 139.371  0.00  0.00    +0.000 A 
ATOM      7  C   UNL     1     111.635 128.008 139.558  0.00  0.00    +0.000 A 
ATOM      8  C   UNL     1     111.170 126.681 139.809  0.00  0.00    +0.000 A 
ATOM      9  C   UNL     1     110.709 126.961 140.434  0.00  0.00    +0.000 A 
ATOM     10  C   UNL     1     110.712 127.765 140.620  0.00  0.00    +0.000 A 
ATOM     11  C   UNL     1     110.231 126.406 140.882  0.00  0.00    +0.000 A 
ATOM     12  C   UNL     1     110.236 128.068 141.268  0.00  0.00    +0.000 A 
ATOM     13  C   UNL     1     109.749 126.691 141.534  0.00  0.00    +0.000 A 
ATOM     14  C   UNL     1     109.751 127.528 141.728  0.00  0.00    +0.000 A 
BRANCH   7  17
ATOM     15  O   UNL     1     111.878 129.949 137.474  0.00  0.00    +0.000 OA
ATOM     16  O   UNL     1     113.488 130.103 137.805  0.00  0.00    +0.000 OA
ATOM     17  C   UNL     1     112.099 128.532 139.119  0.00  0.00    +0.000 A 
ATOM     18  C   UNL     1     111.757 128.979 138.516  0.00  0.00    +0.000 A 
ATOM     19  C   UNL     1     112.903 128.609 139.285  0.00  0.00    +0.000 A 
ATOM     20  C   UNL     1     112.220 129.503 138.078  0.00  0.00    +0.000 A 
ATOM     21  C   UNL     1     113.366 129.132 138.847  0.00  0.00    +0.000 A 
ATOM     22  C   UNL     1     113.025 129.580 138.243  0.00  0.00    +0.000 A 
ENDBRANCH   7  17
ENDBRANCH   1   6
BRANCH   1  28
ATOM     23  O   UNL     1     111.015 126.787 137.820  0.00  0.00    +0.000 OA
ATOM     24  C   UNL     1     111.751 125.466 137.160  0.00  0.00    +0.000 C 
ATOM     25  C   UNL     1     111.027 125.728 136.861  0.00  0.00    +0.000 C 
ATOM     26  C   UNL     1     112.106 125.865 137.788  0.00  0.00    +0.000 C 
ATOM     27  C   UNL     1     110.659 126.389 137.191  0.00  0.00    +0.000 C 
ATOM     28  C   UNL     1     111.738 126.526 138.118  0.00  0.00    +0.000 C 
BRANCH  27  30
ATOM     29  O   UNL     1     109.345 126.905 137.409  0.00  0.00    +0.000 OA
ATOM     30  C   UNL     1     109.937 126.650 136.893  0.00  0.00    +0.000 C 
ENDBRANCH  27  30
BRANCH  24  31
ATOM     31  O   UNL     1     112.118 124.805 136.830  0.00  0.00    +0.000 OA
BRANCH  31  33
ATOM     32  O   UNL     1     111.430 123.952 137.747  0.00  0.00    +0.000 OA
ATOM     33  C   UNL     1     111.910 124.048 137.084  0.00  0.00    +0.000 C 
ATOM     34  C   UNL     1     112.182 123.386 136.673  0.00  0.00    +0.000 C 
ENDBRANCH  31  33
ENDBRANCH  24  31
BRANCH  25  35
ATOM     35  O   UNL     1     110.672 125.329 136.233  0.00  0.00    +0.000 OA
BRANCH  35  37
ATOM     36  O   UNL     1     111.243 126.153 135.214  0.00  0.00    +0.000 OA
ATOM     37  C   UNL     1     110.620 125.689 135.492  0.00  0.00    +0.000 C 
ATOM     38  C   UNL     1     109.945 125.585 135.030  0.00  0.00    +0.000 C 
ENDBRANCH  35  37
ENDBRANCH  25  35
BRANCH  26  39
ATOM     39  O   UNL     1     112.829 125.603 138.087  0.00  0.00    +0.000 OA
BRANCH  39  41
ATOM     40  O   UNL     1     113.516 126.331 137.066  0.00  0.00    +0.000 OA
ATOM     41  C   UNL     1     113.535 125.859 137.743  0.00  0.00    +0.000 C 
ATOM     42  C   UNL     1     114.257 125.643 138.076  0.00  0.00    +0.000 C 
ENDBRANCH  39  41
ENDBRANCH  26  39
ENDBRANCH   1  28
TORSDOF 10
ENDMDL
MODEL 2
REMARK VINA RESULT:      -8.4      1.583      4.615
REMARK  Name = 44259125
REMARK  10 active torsions:
REMARK  status: ('A' for Active; 'I' for Inactive)
REMARK    1  A    between atoms: O_2  and  C_16
REMARK    2  A    between atoms: O_2  and  C_23
REMARK    3  A    between atoms: O_3  and  C_17
REMARK    4  A    between atoms: O_3  and  C_24
REMARK    5  A    between atoms: O_4  and  C_18
REMARK    6  A    between atoms: O_4  and  C_25
REMARK    7  A    between atoms: O_5  and  C_20
REMARK    8  A    between atoms: O_5  and  C_22
REMARK    9  A    between atoms: C_19  and  C_21
REMARK   10  A    between atoms: C_26  and  C_33
REMARK                            x       y       z     vdW  Elec       q    Type
REMARK                         _______ _______ _______ _____ _____    ______ ____
ROOT
ATOM      1  O   UNL     1     111.855 127.660 138.284  0.00  0.00    +0.000 OA
ENDROOT
BRANCH   1   6
ATOM      2  O   UNL     1     112.340 125.534 138.165  0.00  0.00    +0.000 OA
ATOM      3  O   UNL     1     111.129 127.253 136.859  0.00  0.00    +0.000 OA
ATOM      4  O   UNL     1     110.790 126.284 135.845  0.00  0.00    +0.000 OA
ATOM      5  O   UNL     1     111.693 123.525 136.159  0.00  0.00    +0.000 OA
ATOM      6  C   UNL     1     111.896 126.884 138.007  0.00  0.00    +0.000 A 
ATOM      7  C   UNL     1     112.299 126.310 138.442  0.00  0.00    +0.000 A 
ATOM      8  C   UNL     1     111.533 126.680 137.294  0.00  0.00    +0.000 A 
ATOM      9  C   UNL     1     111.573 125.904 137.017  0.00  0.00    +0.000 A 
ATOM     10  C   UNL     1     111.977 125.331 137.453  0.00  0.00    +0.000 A 
ATOM     11  C   UNL     1     111.192 125.705 136.274  0.00  0.00    +0.000 A 
ATOM     12  C   UNL     1     112.027 124.520 137.175  0.00  0.00    +0.000 A 
ATOM     13  C   UNL     1     111.230 124.898 135.980  0.00  0.00    +0.000 A 
ATOM     14  C   UNL     1     111.651 124.302 136.434  0.00  0.00    +0.000 A 
BRANCH   7  17
ATOM     15  O   UNL     1     112.136 126.780 141.257  0.00  0.00    +0.000 OA
ATOM     16  O   UNL     1     113.750 127.124 141.293  0.00  0.00    +0.000 OA
ATOM     17  C   UNL     1     112.662 126.514 139.155  0.00  0.00    +0.000 A 
ATOM     18  C   UNL     1     112.218 126.545 139.849  0.00  0.00    +0.000 A 
ATOM     19  C   UNL     1     113.469 126.686 139.173  0.00  0.00    +0.000 A 
ATOM     20  C   UNL     1     112.581 126.749 140.562  0.00  0.00    +0.000 A 
ATOM     21  C   UNL     1     113.831 126.889 139.885  0.00  0.00    +0.000 A 
ATOM     22  C   UNL     1     113.388 126.921 140.580  0.00  0.00    +0.000 A 
ENDBRANCH   7  17
ENDBRANCH   1   6
BRANCH   1  28
ATOM     23  O   UNL     1     112.845 128.176 137.392  0.00  0.00    +0.000 OA
ATOM     24  C   UNL     1     112.042 129.616 137.335  0.00  0.00    +0.000 C 
ATOM     25  C   UNL     1     112.738 129.514 136.903  0.00  0.00    +0.000 C 
ATOM     26  C   UNL     1     111.749 128.998 137.795  0.00  0.00    +0.000 C 
ATOM     27  C   UNL     1     113.140 128.794 136.931  0.00  0.00    +0.000 C 
ATOM     28  C   UNL     1     112.150 128.277 137.823  0.00  0.00    +0.000 C 
BRANCH  27  30
ATOM     29  O   UNL     1     113.976 127.980 136.108  0.00  0.00    +0.000 OA
ATOM     30  C   UNL     1     113.835 128.692 136.500  0.00  0.00    +0.000 C 
ENDBRANCH  27  30
BRANCH  24  31
ATOM     31  O   UNL     1     111.641 130.336 137.306  0.00  0.00    +0.000 OA
BRANCH  31  33
ATOM     32  O   UNL     1     110.921 129.895 136.153  0.00  0.00    +0.000 OA
ATOM     33  C   UNL     1     111.116 130.491 136.688  0.00  0.00    +0.000 C 
ATOM     34  C   UNL     1     110.787 131.243 136.606  0.00  0.00    +0.000 C 
ENDBRANCH  31  33
ENDBRANCH  24  31
BRANCH  25  35
ATOM     35  O   UNL     1     113.032 130.132 136.442  0.00  0.00    +0.000 OA
BRANCH  35  37
ATOM     36  O   UNL     1     113.901 130.667 137.444  0.00  0.00    +0.000 OA
ATOM     37  C   UNL     1     113.740 130.501 136.652  0.00  0.00    +0.000 C 
ATOM     38  C   UNL     1     114.287 130.704 136.068  0.00  0.00    +0.000 C 
ENDBRANCH  35  37
ENDBRANCH  25  35
BRANCH  26  39
ATOM     39  O   UNL     1     111.052 129.100 138.227  0.00  0.00    +0.000 OA
BRANCH  39  41
ATOM     40  O   UNL     1     111.789 129.735 139.274  0.00  0.00    +0.000 OA
ATOM     41  C   UNL     1     111.081 129.424 138.985  0.00  0.00    +0.000 C 
ATOM     42  C   UNL     1     110.403 129.435 139.454  0.00  0.00    +0.000 C 
ENDBRANCH  39  41
ENDBRANCH  26  39
ENDBRANCH   1  28
TORSDOF 10
ENDMDL
MODEL 3
REMARK VINA RESULT:      -8.4      1.959      4.152
REMARK  Name = 44259125
REMARK  10 active torsions:
REMARK  status: ('A' for Active; 'I' for Inactive)
REMARK    1  A    between atoms: O_2  and  C_16
REMARK    2  A    between atoms: O_2  and  C_23
REMARK    3  A    between atoms: O_3  and  C_17
REMARK    4  A    between atoms: O_3  and  C_24
REMARK    5  A    between atoms: O_4  and  C_18
REMARK    6  A    between atoms: O_4  and  C_25
REMARK    7  A    between atoms: O_5  and  C_20
REMARK    8  A    between atoms: O_5  and  C_22
REMARK    9  A    between atoms: C_19  and  C_21
REMARK   10  A    between atoms: C_26  and  C_33
REMARK                            x       y       z     vdW  Elec       q    Type
REMARK                         _______ _______ _______ _____ _____    ______ ____
ROOT
ATOM      1  O   UNL     1     112.948 128.269 137.304  0.00  0.00    +0.000 OA
ENDROOT
BRANCH   1   6
ATOM      2  O   UNL     1     113.488 130.286 136.668  0.00  0.00    +0.000 OA
ATOM      3  O   UNL     1     114.036 127.939 136.107  0.00  0.00    +0.000 OA
ATOM      4  O   UNL     1     114.956 128.369 135.082  0.00  0.00    +0.000 OA
ATOM      5  O   UNL     1     115.328 131.228 134.616  0.00  0.00    +0.000 OA
ATOM      6  C   UNL     1     113.309 128.886 136.893  0.00  0.00    +0.000 A 
ATOM      7  C   UNL     1     113.127 129.669 137.079  0.00  0.00    +0.000 A 
ATOM      8  C   UNL     1     113.854 128.721 136.294  0.00  0.00    +0.000 A 
ATOM      9  C   UNL     1     114.215 129.339 135.883  0.00  0.00    +0.000 A 
ATOM     10  C   UNL     1     114.032 130.121 136.071  0.00  0.00    +0.000 A 
ATOM     11  C   UNL     1     114.779 129.155 135.262  0.00  0.00    +0.000 A 
ATOM     12  C   UNL     1     114.401 130.773 135.650  0.00  0.00    +0.000 A 
ATOM     13  C   UNL     1     115.159 129.793 134.831  0.00  0.00    +0.000 A 
ATOM     14  C   UNL     1     114.969 130.608 135.025  0.00  0.00    +0.000 A 
BRANCH   7  17
ATOM     15  O   UNL     1     112.534 130.046 139.850  0.00  0.00    +0.000 OA
ATOM     16  O   UNL     1     110.953 130.328 139.473  0.00  0.00    +0.000 OA
ATOM     17  C   UNL     1     112.583 129.834 137.678  0.00  0.00    +0.000 A 
ATOM     18  C   UNL     1     112.831 129.857 138.464  0.00  0.00    +0.000 A 
ATOM     19  C   UNL     1     111.792 129.975 137.490  0.00  0.00    +0.000 A 
ATOM     20  C   UNL     1     112.287 130.022 139.063  0.00  0.00    +0.000 A 
ATOM     21  C   UNL     1     111.249 130.139 138.088  0.00  0.00    +0.000 A 
ATOM     22  C   UNL     1     111.496 130.163 138.875  0.00  0.00    +0.000 A 
ENDBRANCH   7  17
ENDBRANCH   1   6
BRANCH   1  28
ATOM     23  O   UNL     1     112.060 127.889 136.251  0.00  0.00    +0.000 OA
ATOM     24  C   UNL     1     112.193 126.310 136.708  0.00  0.00    +0.000 C 
ATOM     25  C   UNL     1     111.715 126.515 136.067  0.00  0.00    +0.000 C 
ATOM     26  C   UNL     1     112.603 126.895 137.120  0.00  0.00    +0.000 C 
ATOM     27  C   UNL     1     111.648 127.305 135.838  0.00  0.00    +0.000 C 
ATOM     28  C   UNL     1     112.537 127.684 136.891  0.00  0.00    +0.000 C 
BRANCH  27  30
ATOM     29  O   UNL     1     111.353 128.175 134.744  0.00  0.00    +0.000 OA
ATOM     30  C   UNL     1     111.171 127.510 135.198  0.00  0.00    +0.000 C 
ENDBRANCH  27  30
BRANCH  24  31
ATOM     31  O   UNL     1     112.259 125.520 136.937  0.00  0.00    +0.000 OA
BRANCH  31  33
ATOM     32  O   UNL     1     113.407 125.340 136.105  0.00  0.00    +0.000 OA
ATOM     33  C   UNL     1     112.789 125.021 136.547  0.00  0.00    +0.000 C 
ATOM     34  C   UNL     1     112.699 124.203 136.601  0.00  0.00    +0.000 C 
ENDBRANCH  31  33
ENDBRANCH  24  31
BRANCH  25  35
ATOM     35  O   UNL     1     111.304 125.930 135.655  0.00  0.00    +0.000 OA
BRANCH  35  37
ATOM     36  O   UNL     1     110.081 126.071 136.382  0.00  0.00    +0.000 OA
ATOM     37  C   UNL     1     110.479 125.913 135.677  0.00  0.00    +0.000 C 
ATOM     38  C   UNL     1     110.052 125.739 134.993  0.00  0.00    +0.000 C 
ENDBRANCH  35  37
ENDBRANCH  25  35
BRANCH  26  39
ATOM     39  O   UNL     1     113.081 126.689 137.761  0.00  0.00    +0.000 OA
BRANCH  39  41
ATOM     40  O   UNL     1     111.938 126.692 138.617  0.00  0.00    +0.000 OA
ATOM     41  C   UNL     1     112.754 126.623 138.515  0.00  0.00    +0.000 C 
ATOM     42  C   UNL     1     113.242 126.490 139.166  0.00  0.00    +0.000 C 
ENDBRANCH  39  41
ENDBRANCH  26  39
ENDBRANCH   1  28
TORSDOF 10
ENDMDL
MODEL 4
REMARK VINA RESULT:      -8.4      2.100      4.481
REMARK  Name = 44259125
REMARK  10 active torsions:
REMARK  status: ('A' for Active; 'I' for Inactive)
REMARK    1  A    between atoms: O_2  and  C_16
REMARK    2  A    between atoms: O_2  and  C_23
REMARK    3  A    between atoms: O_3  and  C_17
REMARK    4  A    between atoms: O_3  and  C_24
REMARK    5  A    between atoms: O_4  and  C_18
REMARK    6  A    between atoms: O_4  and  C_25
REMARK    7  A    between atoms: O_5  and  C_20
REMARK    8  A    between atoms: O_5  and  C_22
REMARK    9  A    between atoms: C_19  and  C_21
REMARK   10  A    between atoms: C_26  and  C_33
REMARK                            x       y       z     vdW  Elec       q    Type
REMARK                         _______ _______ _______ _____ _____    ______ ____
ROOT
ATOM      1  O   UNL     1     111.350 127.754 135.833  0.00  0.00    +0.000 OA
ENDROOT
BRANCH   1   6
ATOM      2  O   UNL     1     112.138 129.770 135.550  0.00  0.00    +0.000 OA
ATOM      3  O   UNL     1     112.974 127.468 135.904  0.00  0.00    +0.000 OA
ATOM      4  O   UNL     1     114.341 127.927 135.861  0.00  0.00    +0.000 OA
ATOM      5  O   UNL     1     114.871 130.769 135.452  0.00  0.00    +0.000 OA
ATOM      6  C   UNL     1     111.883 128.378 135.750  0.00  0.00    +0.000 A 
ATOM      7  C   UNL     1     111.605 129.145 135.632  0.00  0.00    +0.000 A 
ATOM      8  C   UNL     1     112.695 128.235 135.786  0.00  0.00    +0.000 A 
ATOM      9  C   UNL     1     113.228 128.859 135.704  0.00  0.00    +0.000 A 
ATOM     10  C   UNL     1     112.949 129.627 135.585  0.00  0.00    +0.000 A 
ATOM     11  C   UNL     1     114.071 128.698 135.743  0.00  0.00    +0.000 A 
ATOM     12  C   UNL     1     113.494 130.285 135.498  0.00  0.00    +0.000 A 
ATOM     13  C   UNL     1     114.631 129.344 135.658  0.00  0.00    +0.000 A 
ATOM     14  C   UNL     1     114.341 130.143 135.534  0.00  0.00    +0.000 A 
BRANCH   7  17
ATOM     15  O   UNL     1     109.181 129.983 136.895  0.00  0.00    +0.000 OA
ATOM     16  O   UNL     1     108.358 129.717 135.490  0.00  0.00    +0.000 OA
ATOM     17  C   UNL     1     110.792 129.288 135.596  0.00  0.00    +0.000 A 
ATOM     18  C   UNL     1     110.393 129.564 136.263  0.00  0.00    +0.000 A 
ATOM     19  C   UNL     1     110.381 129.156 134.894  0.00  0.00    +0.000 A 
ATOM     20  C   UNL     1     109.581 129.707 136.228  0.00  0.00    +0.000 A 
ATOM     21  C   UNL     1     109.569 129.299 134.858  0.00  0.00    +0.000 A 
ATOM     22  C   UNL     1     109.169 129.574 135.525  0.00  0.00    +0.000 A 
ENDBRANCH   7  17
ENDBRANCH   1   6
BRANCH   1  28
ATOM     23  O   UNL     1     111.448 127.664 137.256  0.00  0.00    +0.000 OA
ATOM     24  C   UNL     1     111.253 126.028 137.166  0.00  0.00    +0.000 C 
ATOM     25  C   UNL     1     111.351 126.392 137.900  0.00  0.00    +0.000 C 
ATOM     26  C   UNL     1     111.253 126.482 136.477  0.00  0.00    +0.000 C 
ATOM     27  C   UNL     1     111.448 127.210 137.945  0.00  0.00    +0.000 C 
ATOM     28  C   UNL     1     111.350 127.300 136.522  0.00  0.00    +0.000 C 
BRANCH  27  30
ATOM     29  O   UNL     1     112.035 128.234 138.749  0.00  0.00    +0.000 OA
ATOM     30  C   UNL     1     111.546 127.574 138.678  0.00  0.00    +0.000 C 
ENDBRANCH  27  30
BRANCH  24  31
ATOM     31  O   UNL     1     111.155 125.210 137.121  0.00  0.00    +0.000 OA
BRANCH  31  33
ATOM     32  O   UNL     1     112.573 125.038 137.075  0.00  0.00    +0.000 OA
ATOM     33  C   UNL     1     111.816 124.715 137.121  0.00  0.00    +0.000 C 
ATOM     34  C   UNL     1     111.718 123.897 137.167  0.00  0.00    +0.000 C 
ENDBRANCH  31  33
ENDBRANCH  24  31
BRANCH  25  35
ATOM     35  O   UNL     1     111.351 125.938 138.588  0.00  0.00    +0.000 OA
BRANCH  35  37
ATOM     36  O   UNL     1     109.952 126.001 138.875  0.00  0.00    +0.000 OA
ATOM     37  C   UNL     1     110.735 126.015 139.133  0.00  0.00    +0.000 C 
ATOM     38  C   UNL     1     110.904 126.105 139.935  0.00  0.00    +0.000 C 
ENDBRANCH  35  37
ENDBRANCH  25  35
BRANCH  26  39
ATOM     39  O   UNL     1     111.155 126.118 135.743  0.00  0.00    +0.000 OA
BRANCH  39  41
ATOM     40  O   UNL     1     109.738 126.104 135.928  0.00  0.00    +0.000 OA
ATOM     41  C   UNL     1     110.397 125.986 135.445  0.00  0.00    +0.000 C 
ATOM     42  C   UNL     1     110.298 125.737 134.665  0.00  0.00    +0.000 C 
ENDBRANCH  39  41
ENDBRANCH  26  39
ENDBRANCH   1  28
TORSDOF 10
ENDMDL
MODEL 5
REMARK VINA RESULT:      -8.3      1.703      4.687
REMARK  Name = 44259125
REMARK  10 active torsions:
REMARK  status: ('A' for Active; 'I' for Inactive)
REMARK    1  A    between atoms: O_2  and  C_16
REMARK    2  A    between atoms: O_2  and  C_23
REMARK    3  A    between atoms: O_3  and  C_17
REMARK    4  A    between atoms: O_3  and  C_24
REMARK    5  A    between atoms: O_4  and  C_18
REMARK    6  A    between atoms: O_4  and  C_25
REMARK    7  A    between atoms: O_5  and  C_20
REMARK    8  A    between atoms: O_5  and  C_22
REMARK    9  A    between atoms: C_19  and  C_21
REMARK   10  A    between atoms: C_26  and  C_33
REMARK                            x       y       z     vdW  Elec       q    Type
REMARK                         _______ _______ _______ _____ _____    ______ ____
ROOT
ATOM      1  O   UNL     1     112.411 126.852 137.848  0.00  0.00    +0.000 OA
ENDROOT
BRANCH   1   6
ATOM      2  O   UNL     1     111.810 125.636 136.138  0.00  0.00    +0.000 OA
ATOM      3  O   UNL     1     110.881 127.413 137.589  0.00  0.00    +0.000 OA
ATOM      4  O   UNL     1     109.638 127.401 136.856  0.00  0.00    +0.000 OA
ATOM      5  O   UNL     1     109.330 125.557 134.612  0.00  0.00    +0.000 OA
ATOM      6  C   UNL     1     111.956 126.540 137.235  0.00  0.00    +0.000 A 
ATOM      7  C   UNL     1     112.265 125.948 136.751  0.00  0.00    +0.000 A 
ATOM      8  C   UNL     1     111.190 126.821 137.105  0.00  0.00    +0.000 A 
ATOM      9  C   UNL     1     110.735 126.509 136.492  0.00  0.00    +0.000 A 
ATOM     10  C   UNL     1     111.045 125.916 136.008  0.00  0.00    +0.000 A 
ATOM     11  C   UNL     1     109.940 126.809 136.367  0.00  0.00    +0.000 A 
ATOM     12  C   UNL     1     110.581 125.584 135.367  0.00  0.00    +0.000 A 
ATOM     13  C   UNL     1     109.461 126.488 135.730  0.00  0.00    +0.000 A 
ATOM     14  C   UNL     1     109.783 125.871 135.226  0.00  0.00    +0.000 A 
BRANCH   7  17
ATOM     15  O   UNL     1     115.048 125.962 136.103  0.00  0.00    +0.000 OA
ATOM     16  O   UNL     1     115.325 124.828 137.270  0.00  0.00    +0.000 OA
ATOM     17  C   UNL     1     113.030 125.668 136.881  0.00  0.00    +0.000 A 
ATOM     18  C   UNL     1     113.657 125.955 136.427  0.00  0.00    +0.000 A 
ATOM     19  C   UNL     1     113.169 125.101 137.464  0.00  0.00    +0.000 A 
ATOM     20  C   UNL     1     114.422 125.675 136.557  0.00  0.00    +0.000 A 
ATOM     21  C   UNL     1     113.934 124.822 137.594  0.00  0.00    +0.000 A 
ATOM     22  C   UNL     1     114.561 125.108 137.140  0.00  0.00    +0.000 A 
ENDBRANCH   7  17
ENDBRANCH   1   6
BRANCH   1  28
ATOM     23  O   UNL     1     112.730 128.082 137.194  0.00  0.00    +0.000 OA
ATOM     24  C   UNL     1     112.666 128.869 138.642  0.00  0.00    +0.000 C 
ATOM     25  C   UNL     1     112.842 129.288 137.953  0.00  0.00    +0.000 C 
ATOM     26  C   UNL     1     112.522 128.058 138.607  0.00  0.00    +0.000 C 
ATOM     27  C   UNL     1     112.874 128.894 137.228  0.00  0.00    +0.000 C 
ATOM     28  C   UNL     1     112.555 127.664 137.882  0.00  0.00    +0.000 C 
BRANCH  27  30
ATOM     29  O   UNL     1     112.855 128.994 135.804  0.00  0.00    +0.000 OA
ATOM     30  C   UNL     1     113.050 129.312 136.540  0.00  0.00    +0.000 C 
ENDBRANCH  27  30
BRANCH  24  31
ATOM     31  O   UNL     1     112.634 129.263 139.367  0.00  0.00    +0.000 OA
BRANCH  31  33
ATOM     32  O   UNL     1     111.255 129.570 139.149  0.00  0.00    +0.000 OA
ATOM     33  C   UNL     1     111.947 129.663 139.588  0.00  0.00    +0.000 C 
ATOM     34  C   UNL     1     111.952 130.155 140.250  0.00  0.00    +0.000 C 
ENDBRANCH  31  33
ENDBRANCH  24  31
BRANCH  25  35
ATOM     35  O   UNL     1     112.986 130.099 137.988  0.00  0.00    +0.000 OA
BRANCH  35  37
ATOM     36  O   UNL     1     114.399 130.083 138.202  0.00  0.00    +0.000 OA
ATOM     37  C   UNL     1     113.738 130.392 137.817  0.00  0.00    +0.000 C 
ATOM     38  C   UNL     1     113.829 130.995 137.261  0.00  0.00    +0.000 C 
ENDBRANCH  35  37
ENDBRANCH  25  35
BRANCH  26  39
ATOM     39  O   UNL     1     112.346 127.640 139.297  0.00  0.00    +0.000 OA
BRANCH  39  41
ATOM     40  O   UNL     1     113.742 127.509 139.576  0.00  0.00    +0.000 OA
ATOM     41  C   UNL     1     112.956 127.336 139.762  0.00  0.00    +0.000 C 
ATOM     42  C   UNL     1     112.781 126.859 140.411  0.00  0.00    +0.000 C 
ENDBRANCH  39  41
ENDBRANCH  26  39
ENDBRANCH   1  28
TORSDOF 10
ENDMDL
MODEL 6
REMARK VINA RESULT:      -8.3      1.723      5.011
REMARK  Name = 44259125
REMARK  10 active torsions:
REMARK  status: ('A' for Active; 'I' for Inactive)
REMARK    1  A    between atoms: O_2  and  C_16
REMARK    2  A    between atoms: O_2  and  C_23
REMARK    3  A    between atoms: O_3  and  C_17
REMARK    4  A    between atoms: O_3  and  C_24
REMARK    5  A    between atoms: O_4  and  C_18
REMARK    6  A    between atoms: O_4  and  C_25
REMARK    7  A    between atoms: O_5  and  C_20
REMARK    8  A    between atoms: O_5  and  C_22
REMARK    9  A    between atoms: C_19  and  C_21
REMARK   10  A    between atoms: C_26  and  C_33
REMARK                            x       y       z     vdW  Elec       q    Type
REMARK                         _______ _______ _______ _____ _____    ______ ____
ROOT
ATOM      1  O   UNL     1     111.714 127.568 136.306  0.00  0.00    +0.000 OA
ENDROOT
BRANCH   1   6
ATOM      2  O   UNL     1     111.502 125.410 136.556  0.00  0.00    +0.000 OA
ATOM      3  O   UNL     1     113.284 127.128 136.555  0.00  0.00    +0.000 OA
ATOM      4  O   UNL     1     114.290 126.125 136.807  0.00  0.00    +0.000 OA
ATOM      5  O   UNL     1     113.478 123.331 137.065  0.00  0.00    +0.000 OA
ATOM      6  C   UNL     1     111.905 126.776 136.431  0.00  0.00    +0.000 A 
ATOM      7  C   UNL     1     111.311 126.203 136.431  0.00  0.00    +0.000 A 
ATOM      8  C   UNL     1     112.691 126.555 136.556  0.00  0.00    +0.000 A 
ATOM      9  C   UNL     1     112.882 125.762 136.681  0.00  0.00    +0.000 A 
ATOM     10  C   UNL     1     112.287 125.190 136.681  0.00  0.00    +0.000 A 
ATOM     11  C   UNL     1     113.702 125.545 136.809  0.00  0.00    +0.000 A 
ATOM     12  C   UNL     1     112.473 124.361 136.809  0.00  0.00    +0.000 A 
ATOM     13  C   UNL     1     113.908 124.721 136.940  0.00  0.00    +0.000 A 
ATOM     14  C   UNL     1     113.290 124.125 136.940  0.00  0.00    +0.000 A 
BRANCH   7  17
ATOM     15  O   UNL     1     108.725 126.840 137.468  0.00  0.00    +0.000 OA
ATOM     16  O   UNL     1     108.171 127.085 135.933  0.00  0.00    +0.000 OA
ATOM     17  C   UNL     1     110.525 126.424 136.306  0.00  0.00    +0.000 A 
ATOM     18  C   UNL     1     110.018 126.522 136.949  0.00  0.00    +0.000 A 
ATOM     19  C   UNL     1     110.248 126.546 135.539  0.00  0.00    +0.000 A 
ATOM     20  C   UNL     1     109.232 126.742 136.825  0.00  0.00    +0.000 A 
ATOM     21  C   UNL     1     109.464 126.766 135.415  0.00  0.00    +0.000 A 
ATOM     22  C   UNL     1     108.955 126.865 136.057  0.00  0.00    +0.000 A 
ENDBRANCH   7  17
ENDBRANCH   1   6
BRANCH   1  28
ATOM     23  O   UNL     1     111.802 127.954 137.679  0.00  0.00    +0.000 OA
ATOM     24  C   UNL     1     112.362 129.438 137.227  0.00  0.00    +0.000 C 
ATOM     25  C   UNL     1     112.266 129.260 138.027  0.00  0.00    +0.000 C 
ATOM     26  C   UNL     1     112.178 128.874 136.654  0.00  0.00    +0.000 C 
ATOM     27  C   UNL     1     111.986 128.517 138.253  0.00  0.00    +0.000 C 
ATOM     28  C   UNL     1     111.898 128.132 136.880  0.00  0.00    +0.000 C 
BRANCH  27  30
ATOM     29  O   UNL     1     112.056 127.579 139.328  0.00  0.00    +0.000 OA
ATOM     30  C   UNL     1     111.890 128.339 139.053  0.00  0.00    +0.000 C 
ENDBRANCH  27  30
BRANCH  24  31
ATOM     31  O   UNL     1     112.642 130.181 137.000  0.00  0.00    +0.000 OA
BRANCH  31  33
ATOM     32  O   UNL     1     113.989 129.709 137.067  0.00  0.00    +0.000 OA
ATOM     33  C   UNL     1     113.453 130.331 136.995  0.00  0.00    +0.000 C 
ATOM     34  C   UNL     1     113.728 131.105 136.916  0.00  0.00    +0.000 C 
ENDBRANCH  31  33
ENDBRANCH  24  31
BRANCH  25  35
ATOM     35  O   UNL     1     112.450 129.824 138.600  0.00  0.00    +0.000 OA
BRANCH  35  37
ATOM     36  O   UNL     1     111.127 130.352 138.722  0.00  0.00    +0.000 OA
ATOM     37  C   UNL     1     111.851 130.151 139.064  0.00  0.00    +0.000 C 
ATOM     38  C   UNL     1     111.976 130.276 139.870  0.00  0.00    +0.000 C 
ENDBRANCH  35  37
ENDBRANCH  25  35
BRANCH  26  39
ATOM     39  O   UNL     1     112.274 129.053 135.853  0.00  0.00    +0.000 OA
BRANCH  39  41
ATOM     40  O   UNL     1     111.007 129.714 135.838  0.00  0.00    +0.000 OA
ATOM     41  C   UNL     1     111.660 129.410 135.434  0.00  0.00    +0.000 C 
ATOM     42  C   UNL     1     111.698 129.464 134.612  0.00  0.00    +0.000 C 
ENDBRANCH  39  41
ENDBRANCH  26  39
ENDBRANCH   1  28
TORSDOF 10
ENDMDL
MODEL 7
REMARK VINA RESULT:      -8.2      1.465      2.292
REMARK  Name = 44259125
REMARK  10 active torsions:
REMARK  status: ('A' for Active; 'I' for Inactive)
REMARK    1  A    between atoms: O_2  and  C_16
REMARK    2  A    between atoms: O_2  and  C_23
REMARK    3  A    between atoms: O_3  and  C_17
REMARK    4  A    between atoms: O_3  and  C_24
REMARK    5  A    between atoms: O_4  and  C_18
REMARK    6  A    between atoms: O_4  and  C_25
REMARK    7  A    between atoms: O_5  and  C_20
REMARK    8  A    between atoms: O_5  and  C_22
REMARK    9  A    between atoms: C_19  and  C_21
REMARK   10  A    between atoms: C_26  and  C_33
REMARK                            x       y       z     vdW  Elec       q    Type
REMARK                         _______ _______ _______ _____ _____    ______ ____
ROOT
ATOM      1  O   UNL     1     112.163 127.748 138.135  0.00  0.00    +0.000 OA
ENDROOT
BRANCH   1   6
ATOM      2  O   UNL     1     110.979 128.433 139.837  0.00  0.00    +0.000 OA
ATOM      3  O   UNL     1     113.050 127.152 139.392  0.00  0.00    +0.000 OA
ATOM      4  O   UNL     1     113.272 126.965 140.805  0.00  0.00    +0.000 OA
ATOM      5  O   UNL     1     111.363 128.097 142.704  0.00  0.00    +0.000 OA
ATOM      6  C   UNL     1     111.916 127.877 138.911  0.00  0.00    +0.000 A 
ATOM      7  C   UNL     1     111.226 128.304 139.060  0.00  0.00    +0.000 A 
ATOM      8  C   UNL     1     112.360 127.578 139.540  0.00  0.00    +0.000 A 
ATOM      9  C   UNL     1     112.113 127.707 140.317  0.00  0.00    +0.000 A 
ATOM     10  C   UNL     1     111.422 128.134 140.464  0.00  0.00    +0.000 A 
ATOM     11  C   UNL     1     112.583 127.392 140.963  0.00  0.00    +0.000 A 
ATOM     12  C   UNL     1     111.155 128.275 141.269  0.00  0.00    +0.000 A 
ATOM     13  C   UNL     1     112.331 127.522 141.774  0.00  0.00    +0.000 A 
ATOM     14  C   UNL     1     111.613 127.967 141.928  0.00  0.00    +0.000 A 
BRANCH   7  17
ATOM     15  O   UNL     1     109.019 128.073 137.259  0.00  0.00    +0.000 OA
ATOM     16  O   UNL     1     109.453 129.497 136.545  0.00  0.00    +0.000 OA
ATOM     17  C   UNL     1     110.783 128.603 138.431  0.00  0.00    +0.000 A 
ATOM     18  C   UNL     1     110.123 128.189 138.159  0.00  0.00    +0.000 A 
ATOM     19  C   UNL     1     110.999 129.314 138.074  0.00  0.00    +0.000 A 
ATOM     20  C   UNL     1     109.679 128.487 137.530  0.00  0.00    +0.000 A 
ATOM     21  C   UNL     1     110.556 129.612 137.446  0.00  0.00    +0.000 A 
ATOM     22  C   UNL     1     109.896 129.199 137.174  0.00  0.00    +0.000 A 
ENDBRANCH   7  17
ENDBRANCH   1   6
BRANCH   1  28
ATOM     23  O   UNL     1     111.726 126.389 138.073  0.00  0.00    +0.000 OA
ATOM     24  C   UNL     1     112.992 126.027 137.079  0.00  0.00    +0.000 C 
ATOM     25  C   UNL     1     112.457 125.438 137.297  0.00  0.00    +0.000 C 
ATOM     26  C   UNL     1     112.894 126.797 137.359  0.00  0.00    +0.000 C 
ATOM     27  C   UNL     1     111.824 125.619 137.794  0.00  0.00    +0.000 C 
ATOM     28  C   UNL     1     112.261 126.978 137.856  0.00  0.00    +0.000 C 
BRANCH  27  30
ATOM     29  O   UNL     1     110.957 125.032 138.767  0.00  0.00    +0.000 OA
ATOM     30  C   UNL     1     111.289 125.030 138.011  0.00  0.00    +0.000 C 
ENDBRANCH  27  30
BRANCH  24  31
ATOM     31  O   UNL     1     113.626 125.846 136.582  0.00  0.00    +0.000 OA
BRANCH  31  33
ATOM     32  O   UNL     1     114.421 125.483 137.713  0.00  0.00    +0.000 OA
ATOM     33  C   UNL     1     114.315 125.518 136.896  0.00  0.00    +0.000 C 
ATOM     34  C   UNL     1     114.899 125.226 136.392  0.00  0.00    +0.000 C 
ENDBRANCH  31  33
ENDBRANCH  24  31
BRANCH  25  35
ATOM     35  O   UNL     1     112.556 124.668 137.018  0.00  0.00    +0.000 OA
BRANCH  35  37
ATOM     36  O   UNL     1     111.626 124.831 135.944  0.00  0.00    +0.000 OA
ATOM     37  C   UNL     1     112.005 124.346 136.493  0.00  0.00    +0.000 C 
ATOM     38  C   UNL     1     111.835 123.539 136.519  0.00  0.00    +0.000 C 
ENDBRANCH  35  37
ENDBRANCH  25  35
BRANCH  26  39
ATOM     39  O   UNL     1     113.429 127.386 137.141  0.00  0.00    +0.000 OA
BRANCH  39  41
ATOM     40  O   UNL     1     112.721 127.583 135.916  0.00  0.00    +0.000 OA
ATOM     41  C   UNL     1     113.317 127.808 136.441  0.00  0.00    +0.000 C 
ATOM     42  C   UNL     1     113.799 128.453 136.266  0.00  0.00    +0.000 C 
ENDBRANCH  39  41
ENDBRANCH  26  39
ENDBRANCH   1  28
TORSDOF 10
ENDMDL
MODEL 8
REMARK VINA RESULT:      -8.2      1.977      4.825
REMARK  Name = 44259125
REMARK  10 active torsions:
REMARK  status: ('A' for Active; 'I' for Inactive)
REMARK    1  A    between atoms: O_2  and  C_16
REMARK    2  A    between atoms: O_2  and  C_23
REMARK    3  A    between atoms: O_3  and  C_17
REMARK    4  A    between atoms: O_3  and  C_24
REMARK    5  A    between atoms: O_4  and  C_18
REMARK    6  A    between atoms: O_4  and  C_25
REMARK    7  A    between atoms: O_5  and  C_20
REMARK    8  A    between atoms: O_5  and  C_22
REMARK    9  A    between atoms: C_19  and  C_21
REMARK   10  A    between atoms: C_26  and  C_33
REMARK                            x       y       z     vdW  Elec       q    Type
REMARK                         _______ _______ _______ _____ _____    ______ ____
ROOT
ATOM      1  O   UNL     1     111.208 128.197 137.222  0.00  0.00    +0.000 OA
ENDROOT
BRANCH   1   6
ATOM      2  O   UNL     1     110.723 126.457 135.996  0.00  0.00    +0.000 OA
ATOM      3  O   UNL     1     112.156 127.045 137.926  0.00  0.00    +0.000 OA
ATOM      4  O   UNL     1     112.647 125.691 138.011  0.00  0.00    +0.000 OA
ATOM      5  O   UNL     1     111.669 123.705 136.105  0.00  0.00    +0.000 OA
ATOM      6  C   UNL     1     111.204 127.425 136.930  0.00  0.00    +0.000 A 
ATOM      7  C   UNL     1     110.727 127.229 136.287  0.00  0.00    +0.000 A 
ATOM      8  C   UNL     1     111.678 126.848 137.283  0.00  0.00    +0.000 A 
ATOM      9  C   UNL     1     111.674 126.077 136.992  0.00  0.00    +0.000 A 
ATOM     10  C   UNL     1     111.197 125.882 136.348  0.00  0.00    +0.000 A 
ATOM     11  C   UNL     1     112.172 125.486 137.367  0.00  0.00    +0.000 A 
ATOM     12  C   UNL     1     111.184 125.081 136.036  0.00  0.00    +0.000 A 
ATOM     13  C   UNL     1     112.172 124.680 137.069  0.00  0.00    +0.000 A 
ATOM     14  C   UNL     1     111.675 124.476 136.398  0.00  0.00    +0.000 A 
BRANCH   7  17
ATOM     15  O   UNL     1     108.300 128.736 136.221  0.00  0.00    +0.000 OA
ATOM     16  O   UNL     1     108.832 129.534 134.878  0.00  0.00    +0.000 OA
ATOM     17  C   UNL     1     110.253 127.806 135.934  0.00  0.00    +0.000 A 
ATOM     18  C   UNL     1     109.513 127.983 136.254  0.00  0.00    +0.000 A 
ATOM     19  C   UNL     1     110.519 128.205 135.263  0.00  0.00    +0.000 A 
ATOM     20  C   UNL     1     109.039 128.559 135.901  0.00  0.00    +0.000 A 
ATOM     21  C   UNL     1     110.045 128.781 134.911  0.00  0.00    +0.000 A 
ATOM     22  C   UNL     1     109.305 128.958 135.230  0.00  0.00    +0.000 A 
ENDBRANCH   7  17
ENDBRANCH   1   6
BRANCH   1  28
ATOM     23  O   UNL     1     112.443 128.573 136.609  0.00  0.00    +0.000 OA
ATOM     24  C   UNL     1     112.785 129.547 137.896  0.00  0.00    +0.000 C 
ATOM     25  C   UNL     1     113.318 129.491 137.267  0.00  0.00    +0.000 C 
ATOM     26  C   UNL     1     112.083 129.115 137.880  0.00  0.00    +0.000 C 
ATOM     27  C   UNL     1     113.147 129.004 136.624  0.00  0.00    +0.000 C 
ATOM     28  C   UNL     1     111.912 128.628 137.236  0.00  0.00    +0.000 C 
BRANCH  27  30
ATOM     29  O   UNL     1     113.845 128.213 135.661  0.00  0.00    +0.000 OA
ATOM     30  C   UNL     1     113.679 128.948 135.996  0.00  0.00    +0.000 C 
ENDBRANCH  27  30
BRANCH  24  31
ATOM     31  O   UNL     1     112.956 130.034 138.540  0.00  0.00    +0.000 OA
BRANCH  31  33
ATOM     32  O   UNL     1     113.612 128.955 139.208  0.00  0.00    +0.000 OA
ATOM     33  C   UNL     1     113.443 129.759 139.147  0.00  0.00    +0.000 C 
ATOM     34  C   UNL     1     113.760 130.290 139.693  0.00  0.00    +0.000 C 
ENDBRANCH  31  33
ENDBRANCH  24  31
BRANCH  25  35
ATOM     35  O   UNL     1     114.021 129.923 137.284  0.00  0.00    +0.000 OA
BRANCH  35  37
ATOM     36  O   UNL     1     113.542 131.074 136.584  0.00  0.00    +0.000 OA
ATOM     37  C   UNL     1     114.144 130.531 136.738  0.00  0.00    +0.000 C 
ATOM     38  C   UNL     1     114.868 130.594 136.349  0.00  0.00    +0.000 C 
ENDBRANCH  35  37
ENDBRANCH  25  35
BRANCH  26  39
ATOM     39  O   UNL     1     111.550 129.171 138.509  0.00  0.00    +0.000 OA
BRANCH  39  41
ATOM     40  O   UNL     1     111.006 130.368 137.949  0.00  0.00    +0.000 OA
ATOM     41  C   UNL     1     110.980 129.768 138.515  0.00  0.00    +0.000 C 
ATOM     42  C   UNL     1     110.386 129.763 139.086  0.00  0.00    +0.000 C 
ENDBRANCH  39  41
ENDBRANCH  26  39
ENDBRANCH   1  28
TORSDOF 10
ENDMDL
MODEL 9
REMARK VINA RESULT:      -8.2      9.607     12.074
REMARK  Name = 44259125
REMARK  10 active torsions:
REMARK  status: ('A' for Active; 'I' for Inactive)
REMARK    1  A    between atoms: O_2  and  C_16
REMARK    2  A    between atoms: O_2  and  C_23
REMARK    3  A    between atoms: O_3  and  C_17
REMARK    4  A    between atoms: O_3  and  C_24
REMARK    5  A    between atoms: O_4  and  C_18
REMARK    6  A    between atoms: O_4  and  C_25
REMARK    7  A    between atoms: O_5  and  C_20
REMARK    8  A    between atoms: O_5  and  C_22
REMARK    9  A    between atoms: C_19  and  C_21
REMARK   10  A    between atoms: C_26  and  C_33
REMARK                            x       y       z     vdW  Elec       q    Type
REMARK                         _______ _______ _______ _____ _____    ______ ____
ROOT
ATOM      1  O   UNL     1     104.520 125.879 147.854  0.00  0.00    +0.000 OA
ENDROOT
BRANCH   1   6
ATOM      2  O   UNL     1     106.677 125.935 147.519  0.00  0.00    +0.000 OA
ATOM      3  O   UNL     1     105.037 124.770 148.961  0.00  0.00    +0.000 OA
ATOM      4  O   UNL     1     106.091 124.029 149.610  0.00  0.00    +0.000 OA
ATOM      5  O   UNL     1     108.857 124.476 148.785  0.00  0.00    +0.000 OA
ATOM      6  C   UNL     1     105.325 125.713 147.926  0.00  0.00    +0.000 A 
ATOM      7  C   UNL     1     105.872 126.101 147.446  0.00  0.00    +0.000 A 
ATOM      8  C   UNL     1     105.584 125.158 148.480  0.00  0.00    +0.000 A 
ATOM      9  C   UNL     1     106.389 124.992 148.553  0.00  0.00    +0.000 A 
ATOM     10  C   UNL     1     106.935 125.381 148.072  0.00  0.00    +0.000 A 
ATOM     11  C   UNL     1     106.645 124.413 149.133  0.00  0.00    +0.000 A 
ATOM     12  C   UNL     1     107.775 125.217 148.139  0.00  0.00    +0.000 A 
ATOM     13  C   UNL     1     107.482 124.235 149.214  0.00  0.00    +0.000 A 
ATOM     14  C   UNL     1     108.051 124.640 148.714  0.00  0.00    +0.000 A 
BRANCH   7  17
ATOM     15  O   UNL     1     105.222 126.788 144.749  0.00  0.00    +0.000 OA
ATOM     16  O   UNL     1     104.838 128.318 145.232  0.00  0.00    +0.000 OA
ATOM     17  C   UNL     1     105.613 126.656 146.892  0.00  0.00    +0.000 A 
ATOM     18  C   UNL     1     105.547 126.444 146.098  0.00  0.00    +0.000 A 
ATOM     19  C   UNL     1     105.421 127.421 147.134  0.00  0.00    +0.000 A 
ATOM     20  C   UNL     1     105.288 126.999 145.544  0.00  0.00    +0.000 A 
ATOM     21  C   UNL     1     105.163 127.975 146.580  0.00  0.00    +0.000 A 
ATOM     22  C   UNL     1     105.096 127.765 145.785  0.00  0.00    +0.000 A 
ENDBRANCH   7  17
ENDBRANCH   1   6
BRANCH   1  28
ATOM     23  O   UNL     1     104.179 124.731 147.073  0.00  0.00    +0.000 OA
ATOM     24  C   UNL     1     102.742 124.613 147.875  0.00  0.00    +0.000 C 
ATOM     25  C   UNL     1     102.931 124.068 147.284  0.00  0.00    +0.000 C 
ATOM     26  C   UNL     1     103.272 125.216 148.064  0.00  0.00    +0.000 C 
ATOM     27  C   UNL     1     103.650 124.128 146.882  0.00  0.00    +0.000 C 
ATOM     28  C   UNL     1     103.991 125.275 147.663  0.00  0.00    +0.000 C 
BRANCH  27  30
ATOM     29  O   UNL     1     104.623 123.361 146.172  0.00  0.00    +0.000 OA
ATOM     30  C   UNL     1     103.838 123.584 146.292  0.00  0.00    +0.000 C 
ENDBRANCH  27  30
BRANCH  24  31
ATOM     31  O   UNL     1     102.024 124.553 148.276  0.00  0.00    +0.000 OA
BRANCH  31  33
ATOM     32  O   UNL     1     102.612 123.640 149.204  0.00  0.00    +0.000 OA
ATOM     33  C   UNL     1     101.949 124.035 148.914  0.00  0.00    +0.000 C 
ATOM     34  C   UNL     1     101.211 123.911 149.261  0.00  0.00    +0.000 C 
ENDBRANCH  31  33
ENDBRANCH  24  31
BRANCH  25  35
ATOM     35  O   UNL     1     102.401 123.466 147.094  0.00  0.00    +0.000 OA
BRANCH  35  37
ATOM     36  O   UNL     1     101.810 124.183 146.008  0.00  0.00    +0.000 OA
ATOM     37  C   UNL     1     102.019 123.468 146.362  0.00  0.00    +0.000 C 
ATOM     38  C   UNL     1     101.845 122.754 145.986  0.00  0.00    +0.000 C 
ENDBRANCH  35  37
ENDBRANCH  25  35
BRANCH  26  39
ATOM     39  O   UNL     1     103.083 125.760 148.656  0.00  0.00    +0.000 OA
BRANCH  39  41
ATOM     40  O   UNL     1     102.357 126.542 147.706  0.00  0.00    +0.000 OA
ATOM     41  C   UNL     1     102.649 126.436 148.471  0.00  0.00    +0.000 C 
ATOM     42  C   UNL     1     102.506 127.006 149.050  0.00  0.00    +0.000 C 
ENDBRANCH  39  41
ENDBRANCH  26  39
ENDBRANCH   1  28
TORSDOF 10
ENDMDL
MODEL 10
REMARK VINA RESULT:      -8.2      2.574      5.503
REMARK  Name = 44259125
REMARK  10 active torsions:
REMARK  status: ('A' for Active; 'I' for Inactive)
REMARK    1  A    between atoms: O_2  and  C_16
REMARK    2  A    between atoms: O_2  and  C_23
REMARK    3  A    between atoms: O_3  and  C_17
REMARK    4  A    between atoms: O_3  and  C_24
REMARK    5  A    between atoms: O_4  and  C_18
REMARK    6  A    between atoms: O_4  and  C_25
REMARK    7  A    between atoms: O_5  and  C_20
REMARK    8  A    between atoms: O_5  and  C_22
REMARK    9  A    between atoms: C_19  and  C_21
REMARK   10  A    between atoms: C_26  and  C_33
REMARK                            x       y       z     vdW  Elec       q    Type
REMARK                         _______ _______ _______ _____ _____    ______ ____
ROOT
ATOM      1  O   UNL     1     111.082 128.398 136.724  0.00  0.00    +0.000 OA
ENDROOT
BRANCH   1   6
ATOM      2  O   UNL     1     112.754 128.136 135.346  0.00  0.00    +0.000 OA
ATOM      3  O   UNL     1     112.040 129.672 137.150  0.00  0.00    +0.000 OA
ATOM      4  O   UNL     1     113.239 130.460 136.993  0.00  0.00    +0.000 OA
ATOM      5  O   UNL     1     115.197 129.677 134.973  0.00  0.00    +0.000 OA
ATOM      6  C   UNL     1     111.799 128.523 136.335  0.00  0.00    +0.000 A 
ATOM      7  C   UNL     1     112.037 128.011 135.734  0.00  0.00    +0.000 A 
ATOM      8  C   UNL     1     112.278 129.161 136.548  0.00  0.00    +0.000 A 
ATOM      9  C   UNL     1     112.995 129.286 136.160  0.00  0.00    +0.000 A 
ATOM     10  C   UNL     1     113.233 128.773 135.558  0.00  0.00    +0.000 A 
ATOM     11  C   UNL     1     113.485 129.952 136.390  0.00  0.00    +0.000 A 
ATOM     12  C   UNL     1     113.977 128.893 135.146  0.00  0.00    +0.000 A 
ATOM     13  C   UNL     1     114.233 130.088 135.990  0.00  0.00    +0.000 A 
ATOM     14  C   UNL     1     114.481 129.555 135.363  0.00  0.00    +0.000 A 
BRANCH   7  17
ATOM     15  O   UNL     1     111.162 125.324 136.157  0.00  0.00    +0.000 OA
ATOM     16  O   UNL     1     110.121 125.463 134.884  0.00  0.00    +0.000 OA
ATOM     17  C   UNL     1     111.558 127.374 135.521  0.00  0.00    +0.000 A 
ATOM     18  C   UNL     1     111.600 126.668 135.945  0.00  0.00    +0.000 A 
ATOM     19  C   UNL     1     111.038 127.443 134.885  0.00  0.00    +0.000 A 
ATOM     20  C   UNL     1     111.120 126.030 135.733  0.00  0.00    +0.000 A 
ATOM     21  C   UNL     1     110.559 126.806 134.672  0.00  0.00    +0.000 A 
ATOM     22  C   UNL     1     110.600 126.099 135.096  0.00  0.00    +0.000 A 
ENDBRANCH   7  17
ENDBRANCH   1   6
BRANCH   1  28
ATOM     23  O   UNL     1     110.362 129.427 136.042  0.00  0.00    +0.000 OA
ATOM     24  C   UNL     1     109.496 129.730 137.413  0.00  0.00    +0.000 C 
ATOM     25  C   UNL     1     109.353 130.169 136.729  0.00  0.00    +0.000 C 
ATOM     26  C   UNL     1     110.073 129.140 137.411  0.00  0.00    +0.000 C 
ATOM     27  C   UNL     1     109.786 130.018 136.043  0.00  0.00    +0.000 C 
ATOM     28  C   UNL     1     110.506 128.989 136.725  0.00  0.00    +0.000 C 
BRANCH  27  30
ATOM     29  O   UNL     1     110.225 130.518 134.779  0.00  0.00    +0.000 OA
ATOM     30  C   UNL     1     109.642 130.456 135.360  0.00  0.00    +0.000 C 
ENDBRANCH  27  30
BRANCH  24  31
ATOM     31  O   UNL     1     109.063 129.882 138.099  0.00  0.00    +0.000 OA
BRANCH  31  33
ATOM     32  O   UNL     1     110.013 130.877 138.487  0.00  0.00    +0.000 OA
ATOM     33  C   UNL     1     109.294 130.491 138.606  0.00  0.00    +0.000 C 
ATOM     34  C   UNL     1     108.805 130.714 139.232  0.00  0.00    +0.000 C 
ENDBRANCH  31  33
ENDBRANCH  24  31
BRANCH  25  35
ATOM     35  O   UNL     1     108.776 130.759 136.731  0.00  0.00    +0.000 OA
BRANCH  35  37
ATOM     36  O   UNL     1     107.753 129.947 136.150  0.00  0.00    +0.000 OA
ATOM     37  C   UNL     1     108.109 130.685 136.251  0.00  0.00    +0.000 C 
ATOM     38  C   UNL     1     107.797 131.349 135.873  0.00  0.00    +0.000 C 
ENDBRANCH  35  37
ENDBRANCH  25  35
BRANCH  26  39
ATOM     39  O   UNL     1     110.216 128.702 138.095  0.00  0.00    +0.000 OA
BRANCH  39  41
ATOM     40  O   UNL     1     109.130 127.831 137.772  0.00  0.00    +0.000 OA
ATOM     41  C   UNL     1     109.778 128.020 138.248  0.00  0.00    +0.000 C 
ATOM     42  C   UNL     1     109.987 127.527 138.875  0.00  0.00    +0.000 C 
ENDBRANCH  39  41
ENDBRANCH  26  39
ENDBRANCH   1  28
TORSDOF 10
ENDMDL
