MODEL 1
REMARK VINA RESULT:      -7.8      0.000      0.000
REMARK  Name = 44257201
REMARK  3 active torsions:
REMARK  status: ('A' for Active; 'I' for Inactive)
REMARK    1  A    between atoms: O_2  and  C_12
REMARK    2  A    between atoms: O_3  and  C_13
REMARK    3  A    between atoms: C_5  and  C_10
REMARK                            x       y       z     vdW  Elec       q    Type
REMARK                         _______ _______ _______ _____ _____    ______ ____
ROOT
ATOM      1  O   UNL     1     104.956 124.442 146.981  0.00  0.00    +0.000 OA
ATOM      2  C   UNL     1     105.318 124.874 147.631  0.00  0.00    +0.000 C 
ATOM      3  C   UNL     1     104.821 125.209 148.246  0.00  0.00    +0.000 C 
ATOM      4  C   UNL     1     103.968 125.110 148.203  0.00  0.00    +0.000 C 
ATOM      5  C   UNL     1     103.624 124.676 147.547  0.00  0.00    +0.000 A 
ATOM      6  C   UNL     1     104.102 124.353 146.956  0.00  0.00    +0.000 A 
ATOM      7  C   UNL     1     103.760 123.938 146.330  0.00  0.00    +0.000 A 
ATOM      8  C   UNL     1     102.805 124.583 147.511  0.00  0.00    +0.000 A 
ATOM      9  C   UNL     1     102.941 123.846 146.295  0.00  0.00    +0.000 A 
ATOM     10  C   UNL     1     102.464 124.169 146.885  0.00  0.00    +0.000 A 
ATOM     11  C   UNL     1     104.237 123.616 145.739  0.00  0.00    +0.000 C 
ENDROOT
BRANCH   2  13
ATOM     12  O   UNL     1     108.596 125.234 147.762  0.00  0.00    +0.000 OA
ATOM     13  C   UNL     1     106.138 124.964 147.664  0.00  0.00    +0.000 A 
ATOM     14  C   UNL     1     106.523 125.443 147.113  0.00  0.00    +0.000 A 
ATOM     15  C   UNL     1     106.572 124.575 148.247  0.00  0.00    +0.000 A 
ATOM     16  C   UNL     1     107.341 125.532 147.146  0.00  0.00    +0.000 A 
ATOM     17  C   UNL     1     107.392 124.665 148.280  0.00  0.00    +0.000 A 
ATOM     18  C   UNL     1     107.777 125.143 147.730  0.00  0.00    +0.000 A 
ENDBRANCH   2  13
BRANCH   8  19
ATOM     19  O   UNL     1     102.328 124.906 148.101  0.00  0.00    +0.000 OA
ATOM     20  C   UNL     1     101.509 124.930 148.003  0.00  0.00    +0.000 C 
ENDBRANCH   8  19
BRANCH   9  21
ATOM     21  O   UNL     1     102.599 123.431 145.668  0.00  0.00    +0.000 OA
ATOM     22  C   UNL     1     101.994 122.890 145.814  0.00  0.00    +0.000 C 
ENDBRANCH   9  21
TORSDOF 3
ENDMDL
MODEL 2
REMARK VINA RESULT:      -7.6      9.737     10.311
REMARK  Name = 44257201
REMARK  3 active torsions:
REMARK  status: ('A' for Active; 'I' for Inactive)
REMARK    1  A    between atoms: O_2  and  C_12
REMARK    2  A    between atoms: O_3  and  C_13
REMARK    3  A    between atoms: C_5  and  C_10
REMARK                            x       y       z     vdW  Elec       q    Type
REMARK                         _______ _______ _______ _____ _____    ______ ____
ROOT
ATOM      1  O   UNL     1     102.713 131.970 141.114  0.00  0.00    +0.000 OA
ATOM      2  C   UNL     1     102.320 131.255 141.389  0.00  0.00    +0.000 C 
ATOM      3  C   UNL     1     101.628 131.319 141.894  0.00  0.00    +0.000 C 
ATOM      4  C   UNL     1     101.336 132.097 142.117  0.00  0.00    +0.000 C 
ATOM      5  C   UNL     1     101.741 132.799 141.833  0.00  0.00    +0.000 A 
ATOM      6  C   UNL     1     102.406 132.737 141.348  0.00  0.00    +0.000 A 
ATOM      7  C   UNL     1     102.787 133.420 141.081  0.00  0.00    +0.000 A 
ATOM      8  C   UNL     1     101.457 133.542 142.050  0.00  0.00    +0.000 A 
ATOM      9  C   UNL     1     102.502 134.162 141.299  0.00  0.00    +0.000 A 
ATOM     10  C   UNL     1     101.837 134.224 141.783  0.00  0.00    +0.000 A 
ATOM     11  C   UNL     1     103.452 133.358 140.597  0.00  0.00    +0.000 C 
ENDROOT
BRANCH   2  13
ATOM     12  O   UNL     1     103.471 128.289 140.512  0.00  0.00    +0.000 OA
ATOM     13  C   UNL     1     102.608 130.513 141.169  0.00  0.00    +0.000 A 
ATOM     14  C   UNL     1     102.314 130.139 140.495  0.00  0.00    +0.000 A 
ATOM     15  C   UNL     1     103.190 130.146 141.624  0.00  0.00    +0.000 A 
ATOM     16  C   UNL     1     102.601 129.399 140.276  0.00  0.00    +0.000 A 
ATOM     17  C   UNL     1     103.478 129.404 141.405  0.00  0.00    +0.000 A 
ATOM     18  C   UNL     1     103.184 129.030 140.731  0.00  0.00    +0.000 A 
ENDBRANCH   2  13
BRANCH   8  19
ATOM     19  O   UNL     1     100.792 133.604 142.534  0.00  0.00    +0.000 OA
ATOM     20  C   UNL     1     100.711 134.246 143.045  0.00  0.00    +0.000 C 
ENDBRANCH   8  19
BRANCH   9  21
ATOM     21  O   UNL     1     102.883 134.844 141.032  0.00  0.00    +0.000 OA
ATOM     22  C   UNL     1     102.448 135.442 140.666  0.00  0.00    +0.000 C 
ENDBRANCH   9  21
TORSDOF 3
ENDMDL
MODEL 3
REMARK VINA RESULT:      -7.6     13.059     13.650
REMARK  Name = 44257201
REMARK  3 active torsions:
REMARK  status: ('A' for Active; 'I' for Inactive)
REMARK    1  A    between atoms: O_2  and  C_12
REMARK    2  A    between atoms: O_3  and  C_13
REMARK    3  A    between atoms: C_5  and  C_10
REMARK                            x       y       z     vdW  Elec       q    Type
REMARK                         _______ _______ _______ _____ _____    ______ ____
ROOT
ATOM      1  O   UNL     1     112.255 126.451 136.088  0.00  0.00    +0.000 OA
ATOM      2  C   UNL     1     112.395 125.658 136.389  0.00  0.00    +0.000 C 
ATOM      3  C   UNL     1     111.803 125.047 136.268  0.00  0.00    +0.000 C 
ATOM      4  C   UNL     1     111.077 125.238 135.849  0.00  0.00    +0.000 C 
ATOM      5  C   UNL     1     110.954 126.035 135.556  0.00  0.00    +0.000 A 
ATOM      6  C   UNL     1     111.523 126.622 135.672  0.00  0.00    +0.000 A 
ATOM      7  C   UNL     1     111.393 127.385 135.385  0.00  0.00    +0.000 A 
ATOM      8  C   UNL     1     110.255 126.213 135.154  0.00  0.00    +0.000 A 
ATOM      9  C   UNL     1     110.694 127.561 134.984  0.00  0.00    +0.000 A 
ATOM     10  C   UNL     1     110.125 126.975 134.868  0.00  0.00    +0.000 A 
ATOM     11  C   UNL     1     111.962 127.972 135.501  0.00  0.00    +0.000 C 
ENDROOT
BRANCH   2  13
ATOM     12  O   UNL     1     115.194 124.966 137.995  0.00  0.00    +0.000 OA
ATOM     13  C   UNL     1     113.096 125.485 136.790  0.00  0.00    +0.000 A 
ATOM     14  C   UNL     1     113.727 125.138 136.389  0.00  0.00    +0.000 A 
ATOM     15  C   UNL     1     113.163 125.658 137.594  0.00  0.00    +0.000 A 
ATOM     16  C   UNL     1     114.426 124.966 136.790  0.00  0.00    +0.000 A 
ATOM     17  C   UNL     1     113.863 125.486 137.996  0.00  0.00    +0.000 A 
ATOM     18  C   UNL     1     114.494 125.139 137.594  0.00  0.00    +0.000 A 
ENDBRANCH   2  13
BRANCH   8  19
ATOM     19  O   UNL     1     109.687 125.626 135.038  0.00  0.00    +0.000 OA
ATOM     20  C   UNL     1     108.959 125.818 134.699  0.00  0.00    +0.000 C 
ENDBRANCH   8  19
BRANCH   9  21
ATOM     21  O   UNL     1     110.564 128.325 134.697  0.00  0.00    +0.000 OA
ATOM     22  C   UNL     1     109.855 128.712 134.864  0.00  0.00    +0.000 C 
ENDBRANCH   9  21
TORSDOF 3
ENDMDL
MODEL 4
REMARK VINA RESULT:      -7.5     12.895     13.998
REMARK  Name = 44257201
REMARK  3 active torsions:
REMARK  status: ('A' for Active; 'I' for Inactive)
REMARK    1  A    between atoms: O_2  and  C_12
REMARK    2  A    between atoms: O_3  and  C_13
REMARK    3  A    between atoms: C_5  and  C_10
REMARK                            x       y       z     vdW  Elec       q    Type
REMARK                         _______ _______ _______ _____ _____    ______ ____
ROOT
ATOM      1  O   UNL     1     111.818 126.656 136.033  0.00  0.00    +0.000 OA
ATOM      2  C   UNL     1     112.179 127.435 136.081  0.00  0.00    +0.000 C 
ATOM      3  C   UNL     1     112.976 127.516 136.392  0.00  0.00    +0.000 C 
ATOM      4  C   UNL     1     113.403 126.816 136.650  0.00  0.00    +0.000 C 
ATOM      5  C   UNL     1     113.027 126.045 136.594  0.00  0.00    +0.000 A 
ATOM      6  C   UNL     1     112.262 125.968 136.296  0.00  0.00    +0.000 A 
ATOM      7  C   UNL     1     111.911 125.222 136.247  0.00  0.00    +0.000 A 
ATOM      8  C   UNL     1     113.442 125.377 136.843  0.00  0.00    +0.000 A 
ATOM      9  C   UNL     1     112.327 124.555 136.497  0.00  0.00    +0.000 A 
ATOM     10  C   UNL     1     113.092 124.632 136.795  0.00  0.00    +0.000 A 
ATOM     11  C   UNL     1     111.146 125.145 135.949  0.00  0.00    +0.000 C 
ENDROOT
BRANCH   2  13
ATOM     12  O   UNL     1     110.507 130.098 135.080  0.00  0.00    +0.000 OA
ATOM     13  C   UNL     1     111.761 128.101 135.831  0.00  0.00    +0.000 A 
ATOM     14  C   UNL     1     111.282 128.513 136.363  0.00  0.00    +0.000 A 
ATOM     15  C   UNL     1     111.821 128.356 135.049  0.00  0.00    +0.000 A 
ATOM     16  C   UNL     1     110.865 129.178 136.113  0.00  0.00    +0.000 A 
ATOM     17  C   UNL     1     111.403 129.021 134.798  0.00  0.00    +0.000 A 
ATOM     18  C   UNL     1     110.925 129.433 135.329  0.00  0.00    +0.000 A 
ENDBRANCH   2  13
BRANCH   8  19
ATOM     19  O   UNL     1     114.207 125.454 137.141  0.00  0.00    +0.000 OA
ATOM     20  C   UNL     1     114.672 124.784 137.265  0.00  0.00    +0.000 C 
ENDBRANCH   8  19
BRANCH   9  21
ATOM     21  O   UNL     1     111.976 123.809 136.448  0.00  0.00    +0.000 OA
ATOM     22  C   UNL     1     111.968 123.313 137.107  0.00  0.00    +0.000 C 
ENDBRANCH   9  21
TORSDOF 3
ENDMDL
MODEL 5
REMARK VINA RESULT:      -7.5     12.923     13.775
REMARK  Name = 44257201
REMARK  3 active torsions:
REMARK  status: ('A' for Active; 'I' for Inactive)
REMARK    1  A    between atoms: O_2  and  C_12
REMARK    2  A    between atoms: O_3  and  C_13
REMARK    3  A    between atoms: C_5  and  C_10
REMARK                            x       y       z     vdW  Elec       q    Type
REMARK                         _______ _______ _______ _____ _____    ______ ____
ROOT
ATOM      1  O   UNL     1     111.694 126.614 136.219  0.00  0.00    +0.000 OA
ATOM      2  C   UNL     1     110.935 126.527 135.822  0.00  0.00    +0.000 C 
ATOM      3  C   UNL     1     110.621 125.741 135.677  0.00  0.00    +0.000 C 
ATOM      4  C   UNL     1     111.068 125.051 135.931  0.00  0.00    +0.000 C 
ATOM      5  C   UNL     1     111.823 125.158 136.326  0.00  0.00    +0.000 A 
ATOM      6  C   UNL     1     112.125 125.913 136.465  0.00  0.00    +0.000 A 
ATOM      7  C   UNL     1     112.853 126.003 136.845  0.00  0.00    +0.000 A 
ATOM      8  C   UNL     1     112.248 124.493 136.567  0.00  0.00    +0.000 A 
ATOM      9  C   UNL     1     113.276 125.337 137.086  0.00  0.00    +0.000 A 
ATOM     10  C   UNL     1     112.974 124.583 136.947  0.00  0.00    +0.000 A 
ATOM     11  C   UNL     1     113.155 126.758 136.984  0.00  0.00    +0.000 C 
ENDROOT
BRANCH   2  13
ATOM     12  O   UNL     1     109.249 129.196 134.864  0.00  0.00    +0.000 OA
ATOM     13  C   UNL     1     110.514 127.195 135.582  0.00  0.00    +0.000 A 
ATOM     14  C   UNL     1     110.672 127.543 134.851  0.00  0.00    +0.000 A 
ATOM     15  C   UNL     1     109.933 127.513 136.074  0.00  0.00    +0.000 A 
ATOM     16  C   UNL     1     110.251 128.210 134.612  0.00  0.00    +0.000 A 
ATOM     17  C   UNL     1     109.511 128.181 135.835  0.00  0.00    +0.000 A 
ATOM     18  C   UNL     1     109.670 128.529 135.104  0.00  0.00    +0.000 A 
ENDBRANCH   2  13
BRANCH   8  19
ATOM     19  O   UNL     1     111.945 123.738 136.428  0.00  0.00    +0.000 OA
ATOM     20  C   UNL     1     112.055 123.140 136.986  0.00  0.00    +0.000 C 
ENDBRANCH   8  19
BRANCH   9  21
ATOM     21  O   UNL     1     114.004 125.427 137.466  0.00  0.00    +0.000 OA
ATOM     22  C   UNL     1     114.640 124.946 137.256  0.00  0.00    +0.000 C 
ENDBRANCH   9  21
TORSDOF 3
ENDMDL
MODEL 6
REMARK VINA RESULT:      -7.5     13.244     14.385
REMARK  Name = 44257201
REMARK  3 active torsions:
REMARK  status: ('A' for Active; 'I' for Inactive)
REMARK    1  A    between atoms: O_2  and  C_12
REMARK    2  A    between atoms: O_3  and  C_13
REMARK    3  A    between atoms: C_5  and  C_10
REMARK                            x       y       z     vdW  Elec       q    Type
REMARK                         _______ _______ _______ _____ _____    ______ ____
ROOT
ATOM      1  O   UNL     1     113.565 127.302 136.302  0.00  0.00    +0.000 OA
ATOM      2  C   UNL     1     113.194 128.048 136.090  0.00  0.00    +0.000 C 
ATOM      3  C   UNL     1     112.357 128.066 135.898  0.00  0.00    +0.000 C 
ATOM      4  C   UNL     1     111.901 127.337 135.919  0.00  0.00    +0.000 C 
ATOM      5  C   UNL     1     112.289 126.601 136.133  0.00  0.00    +0.000 A 
ATOM      6  C   UNL     1     113.093 126.584 136.317  0.00  0.00    +0.000 A 
ATOM      7  C   UNL     1     113.455 125.870 136.521  0.00  0.00    +0.000 A 
ATOM      8  C   UNL     1     111.847 125.904 136.152  0.00  0.00    +0.000 A 
ATOM      9  C   UNL     1     113.012 125.175 136.540  0.00  0.00    +0.000 A 
ATOM     10  C   UNL     1     112.208 125.192 136.355  0.00  0.00    +0.000 A 
ATOM     11  C   UNL     1     114.259 125.853 136.706  0.00  0.00    +0.000 C 
ENDROOT
BRANCH   2  13
ATOM     12  O   UNL     1     114.976 130.825 136.018  0.00  0.00    +0.000 OA
ATOM     13  C   UNL     1     113.639 128.743 136.072  0.00  0.00    +0.000 A 
ATOM     14  C   UNL     1     113.616 129.265 136.710  0.00  0.00    +0.000 A 
ATOM     15  C   UNL     1     114.108 128.914 135.415  0.00  0.00    +0.000 A 
ATOM     16  C   UNL     1     114.061 129.959 136.692  0.00  0.00    +0.000 A 
ATOM     17  C   UNL     1     114.554 129.608 135.397  0.00  0.00    +0.000 A 
ATOM     18  C   UNL     1     114.531 130.131 136.035  0.00  0.00    +0.000 A 
ENDBRANCH   2  13
BRANCH   8  19
ATOM     19  O   UNL     1     111.043 125.921 135.967  0.00  0.00    +0.000 OA
ATOM     20  C   UNL     1     110.688 125.268 135.610  0.00  0.00    +0.000 C 
ENDBRANCH   8  19
BRANCH   9  21
ATOM     21  O   UNL     1     113.374 124.461 136.743  0.00  0.00    +0.000 OA
ATOM     22  C   UNL     1     112.916 123.828 137.009  0.00  0.00    +0.000 C 
ENDBRANCH   9  21
TORSDOF 3
ENDMDL
MODEL 7
REMARK VINA RESULT:      -7.5     12.394     14.075
REMARK  Name = 44257201
REMARK  3 active torsions:
REMARK  status: ('A' for Active; 'I' for Inactive)
REMARK    1  A    between atoms: O_2  and  C_12
REMARK    2  A    between atoms: O_3  and  C_13
REMARK    3  A    between atoms: C_5  and  C_10
REMARK                            x       y       z     vdW  Elec       q    Type
REMARK                         _______ _______ _______ _____ _____    ______ ____
ROOT
ATOM      1  O   UNL     1     111.938 126.500 136.020  0.00  0.00    +0.000 OA
ATOM      2  C   UNL     1     112.490 126.081 136.530  0.00  0.00    +0.000 C 
ATOM      3  C   UNL     1     113.172 126.495 136.849  0.00  0.00    +0.000 C 
ATOM      4  C   UNL     1     113.294 127.324 136.655  0.00  0.00    +0.000 C 
ATOM      5  C   UNL     1     112.732 127.726 136.145  0.00  0.00    +0.000 A 
ATOM      6  C   UNL     1     112.077 127.329 135.839  0.00  0.00    +0.000 A 
ATOM      7  C   UNL     1     111.544 127.727 135.349  0.00  0.00    +0.000 A 
ATOM      8  C   UNL     1     112.854 128.522 135.962  0.00  0.00    +0.000 A 
ATOM      9  C   UNL     1     111.667 128.522 135.167  0.00  0.00    +0.000 A 
ATOM     10  C   UNL     1     112.322 128.919 135.474  0.00  0.00    +0.000 A 
ATOM     11  C   UNL     1     110.890 127.329 135.043  0.00  0.00    +0.000 C 
ENDROOT
BRANCH   2  13
ATOM     12  O   UNL     1     111.990 122.899 137.249  0.00  0.00    +0.000 OA
ATOM     13  C   UNL     1     112.365 125.285 136.710  0.00  0.00    +0.000 A 
ATOM     14  C   UNL     1     111.761 125.069 137.228  0.00  0.00    +0.000 A 
ATOM     15  C   UNL     1     112.845 124.706 136.371  0.00  0.00    +0.000 A 
ATOM     16  C   UNL     1     111.636 124.274 137.408  0.00  0.00    +0.000 A 
ATOM     17  C   UNL     1     112.720 123.910 136.551  0.00  0.00    +0.000 A 
ATOM     18  C   UNL     1     112.116 123.694 137.069  0.00  0.00    +0.000 A 
ENDBRANCH   2  13
BRANCH   8  19
ATOM     19  O   UNL     1     113.508 128.919 136.269  0.00  0.00    +0.000 OA
ATOM     20  C   UNL     1     113.824 129.567 135.867  0.00  0.00    +0.000 C 
ENDBRANCH   8  19
BRANCH   9  21
ATOM     21  O   UNL     1     111.134 128.920 134.678  0.00  0.00    +0.000 OA
ATOM     22  C   UNL     1     110.792 129.626 134.931  0.00  0.00    +0.000 C 
ENDBRANCH   9  21
TORSDOF 3
ENDMDL
MODEL 8
REMARK VINA RESULT:      -7.5     10.212     12.283
REMARK  Name = 44257201
REMARK  3 active torsions:
REMARK  status: ('A' for Active; 'I' for Inactive)
REMARK    1  A    between atoms: O_2  and  C_12
REMARK    2  A    between atoms: O_3  and  C_13
REMARK    3  A    between atoms: C_5  and  C_10
REMARK                            x       y       z     vdW  Elec       q    Type
REMARK                         _______ _______ _______ _____ _____    ______ ____
ROOT
ATOM      1  O   UNL     1     113.474 126.350 138.959  0.00  0.00    +0.000 OA
ATOM      2  C   UNL     1     113.194 125.956 138.247  0.00  0.00    +0.000 C 
ATOM      3  C   UNL     1     112.358 125.777 138.162  0.00  0.00    +0.000 C 
ATOM      4  C   UNL     1     111.812 125.993 138.791  0.00  0.00    +0.000 C 
ATOM      5  C   UNL     1     112.110 126.385 139.494  0.00  0.00    +0.000 A 
ATOM      6  C   UNL     1     112.913 126.557 139.576  0.00  0.00    +0.000 A 
ATOM      7  C   UNL     1     113.188 126.934 140.257  0.00  0.00    +0.000 A 
ATOM      8  C   UNL     1     111.582 126.589 140.095  0.00  0.00    +0.000 A 
ATOM      9  C   UNL     1     112.659 127.138 140.856  0.00  0.00    +0.000 A 
ATOM     10  C   UNL     1     111.856 126.966 140.775  0.00  0.00    +0.000 A 
ATOM     11  C   UNL     1     113.990 127.107 140.338  0.00  0.00    +0.000 C 
ENDROOT
BRANCH   2  13
ATOM     12  O   UNL     1     115.319 125.145 135.856  0.00  0.00    +0.000 OA
ATOM     13  C   UNL     1     113.725 125.753 137.649  0.00  0.00    +0.000 A 
ATOM     14  C   UNL     1     114.157 125.052 137.700  0.00  0.00    +0.000 A 
ATOM     15  C   UNL     1     113.825 126.252 136.999  0.00  0.00    +0.000 A 
ATOM     16  C   UNL     1     114.688 124.849 137.103  0.00  0.00    +0.000 A 
ATOM     17  C   UNL     1     114.356 126.050 136.401  0.00  0.00    +0.000 A 
ATOM     18  C   UNL     1     114.788 125.349 136.453  0.00  0.00    +0.000 A 
ENDBRANCH   2  13
BRANCH   8  19
ATOM     19  O   UNL     1     110.780 126.417 140.013  0.00  0.00    +0.000 OA
ATOM     20  C   UNL     1     110.286 126.428 140.674  0.00  0.00    +0.000 C 
ENDBRANCH   8  19
BRANCH   9  21
ATOM     21  O   UNL     1     112.933 127.516 141.537  0.00  0.00    +0.000 OA
ATOM     22  C   UNL     1     112.543 128.184 141.824  0.00  0.00    +0.000 C 
ENDBRANCH   9  21
TORSDOF 3
ENDMDL
MODEL 9
REMARK VINA RESULT:      -7.5      7.820      8.777
REMARK  Name = 44257201
REMARK  3 active torsions:
REMARK  status: ('A' for Active; 'I' for Inactive)
REMARK    1  A    between atoms: O_2  and  C_12
REMARK    2  A    between atoms: O_3  and  C_13
REMARK    3  A    between atoms: C_5  and  C_10
REMARK                            x       y       z     vdW  Elec       q    Type
REMARK                         _______ _______ _______ _____ _____    ______ ____
ROOT
ATOM      1  O   UNL     1     103.091 130.599 142.468  0.00  0.00    +0.000 OA
ATOM      2  C   UNL     1     102.616 130.828 141.788  0.00  0.00    +0.000 C 
ATOM      3  C   UNL     1     102.641 130.351 141.073  0.00  0.00    +0.000 C 
ATOM      4  C   UNL     1     103.141 129.652 141.048  0.00  0.00    +0.000 C 
ATOM      5  C   UNL     1     103.608 129.439 141.737  0.00  0.00    +0.000 A 
ATOM      6  C   UNL     1     103.584 129.897 142.423  0.00  0.00    +0.000 A 
ATOM      7  C   UNL     1     104.037 129.682 143.078  0.00  0.00    +0.000 A 
ATOM      8  C   UNL     1     104.086 128.767 141.707  0.00  0.00    +0.000 A 
ATOM      9  C   UNL     1     104.514 129.010 143.047  0.00  0.00    +0.000 A 
ATOM     10  C   UNL     1     104.538 128.553 142.361  0.00  0.00    +0.000 A 
ATOM     11  C   UNL     1     104.013 130.140 143.764  0.00  0.00    +0.000 C 
ENDROOT
BRANCH   2  13
ATOM     12  O   UNL     1     100.710 133.518 141.925  0.00  0.00    +0.000 OA
ATOM     13  C   UNL     1     102.140 131.501 141.822  0.00  0.00    +0.000 A 
ATOM     14  C   UNL     1     102.455 132.240 141.637  0.00  0.00    +0.000 A 
ATOM     15  C   UNL     1     101.347 131.434 142.041  0.00  0.00    +0.000 A 
ATOM     16  C   UNL     1     101.979 132.912 141.671  0.00  0.00    +0.000 A 
ATOM     17  C   UNL     1     100.870 132.106 142.076  0.00  0.00    +0.000 A 
ATOM     18  C   UNL     1     101.186 132.845 141.891  0.00  0.00    +0.000 A 
ENDBRANCH   2  13
BRANCH   8  19
ATOM     19  O   UNL     1     104.110 128.309 141.021  0.00  0.00    +0.000 OA
ATOM     20  C   UNL     1     104.454 127.560 141.036  0.00  0.00    +0.000 C 
ENDBRANCH   8  19
BRANCH   9  21
ATOM     21  O   UNL     1     104.968 128.796 143.703  0.00  0.00    +0.000 OA
ATOM     22  C   UNL     1     105.703 128.438 143.596  0.00  0.00    +0.000 C 
ENDBRANCH   9  21
TORSDOF 3
ENDMDL
MODEL 10
REMARK VINA RESULT:      -7.4     12.790     14.252
REMARK  Name = 44257201
REMARK  3 active torsions:
REMARK  status: ('A' for Active; 'I' for Inactive)
REMARK    1  A    between atoms: O_2  and  C_12
REMARK    2  A    between atoms: O_3  and  C_13
REMARK    3  A    between atoms: C_5  and  C_10
REMARK                            x       y       z     vdW  Elec       q    Type
REMARK                         _______ _______ _______ _____ _____    ______ ____
ROOT
ATOM      1  O   UNL     1     112.430 127.937 135.741  0.00  0.00    +0.000 OA
ATOM      2  C   UNL     1     113.209 127.986 136.105  0.00  0.00    +0.000 C 
ATOM      3  C   UNL     1     113.525 127.306 136.523  0.00  0.00    +0.000 C 
ATOM      4  C   UNL     1     113.060 126.585 136.574  0.00  0.00    +0.000 C 
ATOM      5  C   UNL     1     112.285 126.554 136.204  0.00  0.00    +0.000 A 
ATOM      6  C   UNL     1     111.981 127.207 135.802  0.00  0.00    +0.000 A 
ATOM      7  C   UNL     1     111.235 127.165 135.451  0.00  0.00    +0.000 A 
ATOM      8  C   UNL     1     111.843 125.859 136.255  0.00  0.00    +0.000 A 
ATOM      9  C   UNL     1     110.794 126.470 135.503  0.00  0.00    +0.000 A 
ATOM     10  C   UNL     1     111.098 125.817 135.905  0.00  0.00    +0.000 A 
ATOM     11  C   UNL     1     110.931 127.818 135.049  0.00  0.00    +0.000 C 
ENDROOT
BRANCH   2  13
ATOM     12  O   UNL     1     114.964 130.772 135.892  0.00  0.00    +0.000 OA
ATOM     13  C   UNL     1     113.648 128.683 136.051  0.00  0.00    +0.000 A 
ATOM     14  C   UNL     1     114.181 128.788 135.431  0.00  0.00    +0.000 A 
ATOM     15  C   UNL     1     113.553 129.274 136.619  0.00  0.00    +0.000 A 
ATOM     16  C   UNL     1     114.620 129.484 135.378  0.00  0.00    +0.000 A 
ATOM     17  C   UNL     1     113.991 129.971 136.566  0.00  0.00    +0.000 A 
ATOM     18  C   UNL     1     114.525 130.076 135.945  0.00  0.00    +0.000 A 
ENDBRANCH   2  13
BRANCH   8  19
ATOM     19  O   UNL     1     112.146 125.206 136.658  0.00  0.00    +0.000 OA
ATOM     20  C   UNL     1     111.638 124.619 136.936  0.00  0.00    +0.000 C 
ENDBRANCH   8  19
BRANCH   9  21
ATOM     21  O   UNL     1     110.047 126.428 135.152  0.00  0.00    +0.000 OA
ATOM     22  C   UNL     1     109.848 125.778 134.685  0.00  0.00    +0.000 C 
ENDBRANCH   9  21
TORSDOF 3
ENDMDL
