MODEL 1
REMARK VINA RESULT:      -9.3      0.000      0.000
REMARK  Name = 44259573
REMARK  8 active torsions:
REMARK  status: ('A' for Active; 'I' for Inactive)
REMARK    1  A    between atoms: O_1  and  C_16
REMARK    2  A    between atoms: O_1  and  C_19
REMARK    3  A    between atoms: O_5  and  C_20
REMARK    4  A    between atoms: O_5  and  C_28
REMARK    5  A    between atoms: O_14  and  C_39
REMARK    6  A    between atoms: O_15  and  C_42
REMARK    7  A    between atoms: C_22  and  C_26
REMARK    8  A    between atoms: C_29  and  C_32
REMARK                            x       y       z     vdW  Elec       q    Type
REMARK                         _______ _______ _______ _____ _____    ______ ____
ROOT
ATOM      1  O   UNL     1     112.352 127.531 138.242  0.00  0.00    +0.000 OA
ENDROOT
BRANCH   1   5
ATOM      2  O   UNL     1     113.263 129.512 138.317  0.00  0.00    +0.000 OA
ATOM      3  O   UNL     1     112.796 127.609 139.829  0.00  0.00    +0.000 OA
ATOM      4  O   UNL     1     113.397 128.306 140.940  0.00  0.00    +0.000 OA
ATOM      5  C   UNL     1     112.730 128.204 138.532  0.00  0.00    +0.000 A 
ATOM      6  C   UNL     1     112.885 128.839 138.027  0.00  0.00    +0.000 A 
ATOM      7  C   UNL     1     112.952 128.243 139.324  0.00  0.00    +0.000 A 
ATOM      8  C   UNL     1     113.330 128.917 139.614  0.00  0.00    +0.000 A 
ATOM      9  C   UNL     1     113.486 129.552 139.111  0.00  0.00    +0.000 A 
ATOM     10  C   UNL     1     113.557 128.946 140.443  0.00  0.00    +0.000 A 
ATOM     11  C   UNL     1     113.879 130.259 139.400  0.00  0.00    +0.000 A 
ATOM     12  C   UNL     1     113.951 129.645 140.751  0.00  0.00    +0.000 A 
ATOM     13  C   UNL     1     114.113 130.306 140.226  0.00  0.00    +0.000 A 
BRANCH   6  14
ATOM     14  C   UNL     1     112.663 128.800 137.234  0.00  0.00    +0.000 A 
ATOM     15  C   UNL     1     113.144 128.408 136.690  0.00  0.00    +0.000 A 
ATOM     16  C   UNL     1     111.961 129.153 136.984  0.00  0.00    +0.000 A 
ATOM     17  C   UNL     1     112.922 128.369 135.896  0.00  0.00    +0.000 A 
ATOM     18  C   UNL     1     111.739 129.114 136.191  0.00  0.00    +0.000 A 
ATOM     19  C   UNL     1     112.219 128.722 135.647  0.00  0.00    +0.000 A 
BRANCH  19  20
ATOM     20  O   UNL     1     111.997 128.683 134.853  0.00  0.00    +0.000 OA
ATOM     21  C   UNL     1     111.198 128.663 134.648  0.00  0.00    +0.000 C 
ENDBRANCH  19  20
ENDBRANCH   6  14
BRANCH  13  22
ATOM     22  O   UNL     1     114.491 130.981 140.513  0.00  0.00    +0.000 OA
ATOM     23  C   UNL     1     115.310 130.984 140.612  0.00  0.00    +0.000 C 
ENDBRANCH  13  22
ENDBRANCH   1   5
BRANCH   1  30
ATOM     24  O   UNL     1     111.091 127.794 138.860  0.00  0.00    +0.000 OA
ATOM     25  O   UNL     1     110.734 125.364 139.168  0.00  0.00    +0.000 OA
ATOM     26  O   UNL     1     109.593 126.437 139.683  0.00  0.00    +0.000 OA
ATOM     27  C   UNL     1     111.543 126.447 138.705  0.00  0.00    +0.000 C 
ATOM     28  C   UNL     1     110.853 126.174 139.065  0.00  0.00    +0.000 C 
ATOM     29  C   UNL     1     110.282 126.710 139.323  0.00  0.00    +0.000 C 
ATOM     30  C   UNL     1     111.662 127.257 138.602  0.00  0.00    +0.000 C 
ATOM     31  C   UNL     1     110.401 127.520 139.221  0.00  0.00    +0.000 C 
BRANCH  31  33
ATOM     32  O   UNL     1     109.415 128.512 138.929  0.00  0.00    +0.000 OA
ATOM     33  C   UNL     1     109.831 128.057 139.478  0.00  0.00    +0.000 C 
ENDBRANCH  31  33
BRANCH  27  34
ATOM     34  O   UNL     1     112.114 125.911 138.447  0.00  0.00    +0.000 OA
BRANCH  34  39
ATOM     35  O   UNL     1     111.340 125.648 137.275  0.00  0.00    +0.000 OA
ATOM     36  O   UNL     1     113.206 124.765 137.982  0.00  0.00    +0.000 OA
ATOM     37  O   UNL     1     112.978 123.929 136.578  0.00  0.00    +0.000 OA
ATOM     38  O   UNL     1     111.658 124.239 135.638  0.00  0.00    +0.000 OA
ATOM     39  C   UNL     1     112.000 125.493 137.745  0.00  0.00    +0.000 C 
ATOM     40  C   UNL     1     112.547 124.919 137.512  0.00  0.00    +0.000 C 
ATOM     41  C   UNL     1     112.432 124.501 136.810  0.00  0.00    +0.000 C 
ATOM     42  C   UNL     1     111.772 124.657 136.341  0.00  0.00    +0.000 C 
ATOM     43  C   UNL     1     111.226 125.230 136.573  0.00  0.00    +0.000 C 
ATOM     44  C   UNL     1     110.565 125.385 136.103  0.00  0.00    +0.000 C 
ENDBRANCH  34  39
ENDBRANCH  27  34
ENDBRANCH   1  30
TORSDOF 8
ENDMDL
MODEL 2
REMARK VINA RESULT:      -9.2      1.207      2.521
REMARK  Name = 44259573
REMARK  8 active torsions:
REMARK  status: ('A' for Active; 'I' for Inactive)
REMARK    1  A    between atoms: O_1  and  C_16
REMARK    2  A    between atoms: O_1  and  C_19
REMARK    3  A    between atoms: O_5  and  C_20
REMARK    4  A    between atoms: O_5  and  C_28
REMARK    5  A    between atoms: O_14  and  C_39
REMARK    6  A    between atoms: O_15  and  C_42
REMARK    7  A    between atoms: C_22  and  C_26
REMARK    8  A    between atoms: C_29  and  C_32
REMARK                            x       y       z     vdW  Elec       q    Type
REMARK                         _______ _______ _______ _____ _____    ______ ____
ROOT
ATOM      1  O   UNL     1     112.057 127.183 137.724  0.00  0.00    +0.000 OA
ENDROOT
BRANCH   1   5
ATOM      2  O   UNL     1     113.248 128.882 138.401  0.00  0.00    +0.000 OA
ATOM      3  O   UNL     1     112.418 126.716 139.265  0.00  0.00    +0.000 OA
ATOM      4  O   UNL     1     113.052 126.948 140.540  0.00  0.00    +0.000 OA
ATOM      5  C   UNL     1     112.514 127.671 138.207  0.00  0.00    +0.000 A 
ATOM      6  C   UNL     1     112.791 128.393 137.918  0.00  0.00    +0.000 A 
ATOM      7  C   UNL     1     112.694 127.438 138.977  0.00  0.00    +0.000 A 
ATOM      8  C   UNL     1     113.152 127.926 139.459  0.00  0.00    +0.000 A 
ATOM      9  C   UNL     1     113.429 128.648 139.172  0.00  0.00    +0.000 A 
ATOM     10  C   UNL     1     113.333 127.672 140.261  0.00  0.00    +0.000 A 
ATOM     11  C   UNL     1     113.906 129.166 139.664  0.00  0.00    +0.000 A 
ATOM     12  C   UNL     1     113.809 128.177 140.768  0.00  0.00    +0.000 A 
ATOM     13  C   UNL     1     114.097 128.929 140.468  0.00  0.00    +0.000 A 
BRANCH   6  14
ATOM     14  C   UNL     1     112.610 128.627 137.149  0.00  0.00    +0.000 A 
ATOM     15  C   UNL     1     111.901 129.018 136.992  0.00  0.00    +0.000 A 
ATOM     16  C   UNL     1     113.139 128.469 136.535  0.00  0.00    +0.000 A 
ATOM     17  C   UNL     1     111.721 129.252 136.221  0.00  0.00    +0.000 A 
ATOM     18  C   UNL     1     112.958 128.702 135.765  0.00  0.00    +0.000 A 
ATOM     19  C   UNL     1     112.249 129.094 135.608  0.00  0.00    +0.000 A 
BRANCH  19  20
ATOM     20  O   UNL     1     112.069 129.328 134.837  0.00  0.00    +0.000 OA
ATOM     21  C   UNL     1     111.285 129.471 134.622  0.00  0.00    +0.000 C 
ENDBRANCH  19  20
ENDBRANCH   6  14
BRANCH  13  22
ATOM     22  O   UNL     1     114.555 129.419 140.949  0.00  0.00    +0.000 OA
ATOM     23  C   UNL     1     114.351 130.213 141.040  0.00  0.00    +0.000 C 
ENDBRANCH  13  22
ENDBRANCH   1   5
BRANCH   1  30
ATOM     24  O   UNL     1     113.085 126.218 137.489  0.00  0.00    +0.000 OA
ATOM     25  O   UNL     1     111.382 124.425 137.397  0.00  0.00    +0.000 OA
ATOM     26  O   UNL     1     112.977 124.059 137.192  0.00  0.00    +0.000 OA
ATOM     27  C   UNL     1     111.719 125.804 137.561  0.00  0.00    +0.000 C 
ATOM     28  C   UNL     1     111.950 125.023 137.427  0.00  0.00    +0.000 C 
ATOM     29  C   UNL     1     112.747 124.840 137.325  0.00  0.00    +0.000 C 
ATOM     30  C   UNL     1     112.286 126.402 137.591  0.00  0.00    +0.000 C 
ATOM     31  C   UNL     1     113.315 125.437 137.356  0.00  0.00    +0.000 C 
BRANCH  31  33
ATOM     32  O   UNL     1     114.523 125.551 136.602  0.00  0.00    +0.000 OA
ATOM     33  C   UNL     1     114.113 125.255 137.254  0.00  0.00    +0.000 C 
ENDBRANCH  31  33
BRANCH  27  34
ATOM     34  O   UNL     1     110.922 125.987 137.663  0.00  0.00    +0.000 OA
BRANCH  34  39
ATOM     35  O   UNL     1     110.715 125.922 136.250  0.00  0.00    +0.000 OA
ATOM     36  O   UNL     1     109.401 126.598 137.856  0.00  0.00    +0.000 OA
ATOM     37  O   UNL     1     108.435 126.838 136.540  0.00  0.00    +0.000 OA
ATOM     38  O   UNL     1     108.989 126.467 135.031  0.00  0.00    +0.000 OA
ATOM     39  C   UNL     1     110.438 126.107 137.005  0.00  0.00    +0.000 C 
ATOM     40  C   UNL     1     109.678 126.413 137.101  0.00  0.00    +0.000 C 
ATOM     41  C   UNL     1     109.194 126.533 136.444  0.00  0.00    +0.000 C 
ATOM     42  C   UNL     1     109.472 126.347 135.689  0.00  0.00    +0.000 C 
ATOM     43  C   UNL     1     110.232 126.042 135.592  0.00  0.00    +0.000 C 
ATOM     44  C   UNL     1     110.510 125.856 134.838  0.00  0.00    +0.000 C 
ENDBRANCH  34  39
ENDBRANCH  27  34
ENDBRANCH   1  30
TORSDOF 8
ENDMDL
MODEL 3
REMARK VINA RESULT:      -9.2      2.050      5.200
REMARK  Name = 44259573
REMARK  8 active torsions:
REMARK  status: ('A' for Active; 'I' for Inactive)
REMARK    1  A    between atoms: O_1  and  C_16
REMARK    2  A    between atoms: O_1  and  C_19
REMARK    3  A    between atoms: O_5  and  C_20
REMARK    4  A    between atoms: O_5  and  C_28
REMARK    5  A    between atoms: O_14  and  C_39
REMARK    6  A    between atoms: O_15  and  C_42
REMARK    7  A    between atoms: C_22  and  C_26
REMARK    8  A    between atoms: C_29  and  C_32
REMARK                            x       y       z     vdW  Elec       q    Type
REMARK                         _______ _______ _______ _____ _____    ______ ____
ROOT
ATOM      1  O   UNL     1     111.578 128.999 137.176  0.00  0.00    +0.000 OA
ENDROOT
BRANCH   1   5
ATOM      2  O   UNL     1     111.244 127.165 136.040  0.00  0.00    +0.000 OA
ATOM      3  O   UNL     1     112.623 127.969 137.932  0.00  0.00    +0.000 OA
ATOM      4  O   UNL     1     113.230 126.669 138.080  0.00  0.00    +0.000 OA
ATOM      5  C   UNL     1     111.641 128.216 136.923  0.00  0.00    +0.000 A 
ATOM      6  C   UNL     1     111.181 127.948 136.293  0.00  0.00    +0.000 A 
ATOM      7  C   UNL     1     112.163 127.702 137.301  0.00  0.00    +0.000 A 
ATOM      8  C   UNL     1     112.226 126.919 137.049  0.00  0.00    +0.000 A 
ATOM      9  C   UNL     1     111.767 126.650 136.419  0.00  0.00    +0.000 A 
ATOM     10  C   UNL     1     112.774 126.392 137.451  0.00  0.00    +0.000 A 
ATOM     11  C   UNL     1     111.823 125.837 136.146  0.00  0.00    +0.000 A 
ATOM     12  C   UNL     1     112.844 125.576 137.192  0.00  0.00    +0.000 A 
ATOM     13  C   UNL     1     112.365 125.296 136.535  0.00  0.00    +0.000 A 
BRANCH   6  14
ATOM     14  C   UNL     1     110.659 128.462 135.915  0.00  0.00    +0.000 A 
ATOM     15  C   UNL     1     110.887 128.844 135.220  0.00  0.00    +0.000 A 
ATOM     16  C   UNL     1     109.909 128.595 136.231  0.00  0.00    +0.000 A 
ATOM     17  C   UNL     1     110.364 129.359 134.841  0.00  0.00    +0.000 A 
ATOM     18  C   UNL     1     109.387 129.109 135.854  0.00  0.00    +0.000 A 
ATOM     19  C   UNL     1     109.614 129.491 135.159  0.00  0.00    +0.000 A 
BRANCH  19  20
ATOM     20  O   UNL     1     109.092 130.006 134.780  0.00  0.00    +0.000 OA
ATOM     21  C   UNL     1     109.323 130.780 134.612  0.00  0.00    +0.000 C 
ENDBRANCH  19  20
ENDBRANCH   6  14
BRANCH  13  22
ATOM     22  O   UNL     1     112.426 124.513 136.281  0.00  0.00    +0.000 OA
ATOM     23  C   UNL     1     111.932 123.936 136.602  0.00  0.00    +0.000 C 
ENDBRANCH  13  22
ENDBRANCH   1   5
BRANCH   1  30
ATOM     24  O   UNL     1     112.839 129.417 136.648  0.00  0.00    +0.000 OA
ATOM     25  O   UNL     1     113.103 130.999 138.533  0.00  0.00    +0.000 OA
ATOM     26  O   UNL     1     114.275 130.889 137.377  0.00  0.00    +0.000 OA
ATOM     27  C   UNL     1     112.340 129.999 137.855  0.00  0.00    +0.000 C 
ATOM     28  C   UNL     1     113.015 130.472 137.905  0.00  0.00    +0.000 C 
ATOM     29  C   UNL     1     113.601 130.417 137.327  0.00  0.00    +0.000 C 
ATOM     30  C   UNL     1     112.252 129.472 137.227  0.00  0.00    +0.000 C 
ATOM     31  C   UNL     1     113.513 129.890 136.699  0.00  0.00    +0.000 C 
BRANCH  31  33
ATOM     32  O   UNL     1     113.914 129.989 135.331  0.00  0.00    +0.000 OA
ATOM     33  C   UNL     1     114.098 129.834 136.121  0.00  0.00    +0.000 C 
ENDBRANCH  31  33
BRANCH  27  34
ATOM     34  O   UNL     1     111.755 130.054 138.432  0.00  0.00    +0.000 OA
BRANCH  34  39
ATOM     35  O   UNL     1     111.272 131.256 137.829  0.00  0.00    +0.000 OA
ATOM     36  O   UNL     1     110.592 130.172 139.597  0.00  0.00    +0.000 OA
ATOM     37  O   UNL     1     109.528 131.433 139.576  0.00  0.00    +0.000 OA
ATOM     38  O   UNL     1     109.627 132.576 138.390  0.00  0.00    +0.000 OA
ATOM     39  C   UNL     1     111.223 130.684 138.422  0.00  0.00    +0.000 C 
ATOM     40  C   UNL     1     110.641 130.743 139.005  0.00  0.00    +0.000 C 
ATOM     41  C   UNL     1     110.109 131.374 138.994  0.00  0.00    +0.000 C 
ATOM     42  C   UNL     1     110.159 131.945 138.401  0.00  0.00    +0.000 C 
ATOM     43  C   UNL     1     110.740 131.886 137.819  0.00  0.00    +0.000 C 
ATOM     44  C   UNL     1     110.790 132.458 137.225  0.00  0.00    +0.000 C 
ENDBRANCH  34  39
ENDBRANCH  27  34
ENDBRANCH   1  30
TORSDOF 8
ENDMDL
MODEL 4
REMARK VINA RESULT:      -9.1      1.575      2.952
REMARK  Name = 44259573
REMARK  8 active torsions:
REMARK  status: ('A' for Active; 'I' for Inactive)
REMARK    1  A    between atoms: O_1  and  C_16
REMARK    2  A    between atoms: O_1  and  C_19
REMARK    3  A    between atoms: O_5  and  C_20
REMARK    4  A    between atoms: O_5  and  C_28
REMARK    5  A    between atoms: O_14  and  C_39
REMARK    6  A    between atoms: O_15  and  C_42
REMARK    7  A    between atoms: C_22  and  C_26
REMARK    8  A    between atoms: C_29  and  C_32
REMARK                            x       y       z     vdW  Elec       q    Type
REMARK                         _______ _______ _______ _____ _____    ______ ____
ROOT
ATOM      1  O   UNL     1     111.772 127.906 137.518  0.00  0.00    +0.000 OA
ENDROOT
BRANCH   1   5
ATOM      2  O   UNL     1     111.319 129.927 136.830  0.00  0.00    +0.000 OA
ATOM      3  O   UNL     1     110.351 128.192 138.306  0.00  0.00    +0.000 OA
ATOM      4  O   UNL     1     109.231 129.045 138.622  0.00  0.00    +0.000 OA
ATOM      5  C   UNL     1     111.384 128.627 137.420  0.00  0.00    +0.000 A 
ATOM      6  C   UNL     1     111.707 129.205 136.927  0.00  0.00    +0.000 A 
ATOM      7  C   UNL     1     110.674 128.770 137.814  0.00  0.00    +0.000 A 
ATOM      8  C   UNL     1     110.286 129.492 137.716  0.00  0.00    +0.000 A 
ATOM      9  C   UNL     1     110.608 130.070 137.224  0.00  0.00    +0.000 A 
ATOM     10  C   UNL     1     109.547 129.630 138.132  0.00  0.00    +0.000 A 
ATOM     11  C   UNL     1     110.215 130.826 137.113  0.00  0.00    +0.000 A 
ATOM     12  C   UNL     1     109.138 130.379 138.034  0.00  0.00    +0.000 A 
ATOM     13  C   UNL     1     109.474 130.982 137.521  0.00  0.00    +0.000 A 
BRANCH   6  14
ATOM     14  C   UNL     1     112.417 129.063 136.533  0.00  0.00    +0.000 A 
ATOM     15  C   UNL     1     112.419 128.630 135.831  0.00  0.00    +0.000 A 
ATOM     16  C   UNL     1     113.126 129.352 136.841  0.00  0.00    +0.000 A 
ATOM     17  C   UNL     1     113.130 128.486 135.436  0.00  0.00    +0.000 A 
ATOM     18  C   UNL     1     113.836 129.209 136.447  0.00  0.00    +0.000 A 
ATOM     19  C   UNL     1     113.838 128.776 135.745  0.00  0.00    +0.000 A 
BRANCH  19  20
ATOM     20  O   UNL     1     114.549 128.633 135.350  0.00  0.00    +0.000 OA
ATOM     21  C   UNL     1     114.815 129.161 134.775  0.00  0.00    +0.000 C 
ENDBRANCH  19  20
ENDBRANCH   6  14
BRANCH  13  22
ATOM     22  O   UNL     1     109.088 131.704 137.422  0.00  0.00    +0.000 OA
ATOM     23  C   UNL     1     109.387 132.384 137.780  0.00  0.00    +0.000 C 
ENDBRANCH  13  22
ENDBRANCH   1   5
BRANCH   1  30
ATOM     24  O   UNL     1     112.267 128.170 138.832  0.00  0.00    +0.000 OA
ATOM     25  O   UNL     1     111.951 125.790 139.430  0.00  0.00    +0.000 OA
ATOM     26  O   UNL     1     112.550 126.847 140.544  0.00  0.00    +0.000 OA
ATOM     27  C   UNL     1     111.861 126.847 138.473  0.00  0.00    +0.000 C 
ATOM     28  C   UNL     1     112.056 126.583 139.231  0.00  0.00    +0.000 C 
ATOM     29  C   UNL     1     112.356 127.112 139.788  0.00  0.00    +0.000 C 
ATOM     30  C   UNL     1     111.966 127.641 138.274  0.00  0.00    +0.000 C 
ATOM     31  C   UNL     1     112.461 127.905 139.589  0.00  0.00    +0.000 C 
BRANCH  31  33
ATOM     32  O   UNL     1     113.463 128.841 139.992  0.00  0.00    +0.000 OA
ATOM     33  C   UNL     1     112.760 128.435 140.146  0.00  0.00    +0.000 C 
ENDBRANCH  31  33
BRANCH  27  34
ATOM     34  O   UNL     1     111.562 126.319 137.916  0.00  0.00    +0.000 OA
BRANCH  34  39
ATOM     35  O   UNL     1     112.885 125.873 137.611  0.00  0.00    +0.000 OA
ATOM     36  O   UNL     1     110.939 125.090 137.008  0.00  0.00    +0.000 OA
ATOM     37  O   UNL     1     111.951 124.030 136.249  0.00  0.00    +0.000 OA
ATOM     38  O   UNL     1     113.585 124.200 136.398  0.00  0.00    +0.000 OA
ATOM     39  C   UNL     1     112.068 125.789 137.537  0.00  0.00    +0.000 C 
ATOM     40  C   UNL     1     111.756 125.174 137.082  0.00  0.00    +0.000 C 
ATOM     41  C   UNL     1     112.262 124.644 136.703  0.00  0.00    +0.000 C 
ATOM     42  C   UNL     1     113.079 124.729 136.777  0.00  0.00    +0.000 C 
ATOM     43  C   UNL     1     113.391 125.344 137.231  0.00  0.00    +0.000 C 
ATOM     44  C   UNL     1     114.208 125.429 137.306  0.00  0.00    +0.000 C 
ENDBRANCH  34  39
ENDBRANCH  27  34
ENDBRANCH   1  30
TORSDOF 8
ENDMDL
MODEL 5
REMARK VINA RESULT:      -9.1      2.013      4.765
REMARK  Name = 44259573
REMARK  8 active torsions:
REMARK  status: ('A' for Active; 'I' for Inactive)
REMARK    1  A    between atoms: O_1  and  C_16
REMARK    2  A    between atoms: O_1  and  C_19
REMARK    3  A    between atoms: O_5  and  C_20
REMARK    4  A    between atoms: O_5  and  C_28
REMARK    5  A    between atoms: O_14  and  C_39
REMARK    6  A    between atoms: O_15  and  C_42
REMARK    7  A    between atoms: C_22  and  C_26
REMARK    8  A    between atoms: C_29  and  C_32
REMARK                            x       y       z     vdW  Elec       q    Type
REMARK                         _______ _______ _______ _____ _____    ______ ____
ROOT
ATOM      1  O   UNL     1     111.214 128.406 136.636  0.00  0.00    +0.000 OA
ENDROOT
BRANCH   1   5
ATOM      2  O   UNL     1     112.836 126.988 136.286  0.00  0.00    +0.000 OA
ATOM      3  O   UNL     1     110.455 126.978 136.963  0.00  0.00    +0.000 OA
ATOM      4  O   UNL     1     110.463 125.540 137.074  0.00  0.00    +0.000 OA
ATOM      5  C   UNL     1     111.628 127.695 136.574  0.00  0.00    +0.000 A 
ATOM      6  C   UNL     1     112.422 127.699 136.348  0.00  0.00    +0.000 A 
ATOM      7  C   UNL     1     111.249 126.982 136.737  0.00  0.00    +0.000 A 
ATOM      8  C   UNL     1     111.663 126.271 136.675  0.00  0.00    +0.000 A 
ATOM      9  C   UNL     1     112.456 126.274 136.449  0.00  0.00    +0.000 A 
ATOM     10  C   UNL     1     111.257 125.533 136.848  0.00  0.00    +0.000 A 
ATOM     11  C   UNL     1     112.899 125.540 136.381  0.00  0.00    +0.000 A 
ATOM     12  C   UNL     1     111.683 124.790 136.785  0.00  0.00    +0.000 A 
ATOM     13  C   UNL     1     112.509 124.793 136.550  0.00  0.00    +0.000 A 
BRANCH   6  14
ATOM     14  C   UNL     1     112.801 128.412 136.184  0.00  0.00    +0.000 A 
ATOM     15  C   UNL     1     113.272 128.771 136.759  0.00  0.00    +0.000 A 
ATOM     16  C   UNL     1     112.711 128.769 135.445  0.00  0.00    +0.000 A 
ATOM     17  C   UNL     1     113.652 129.485 136.596  0.00  0.00    +0.000 A 
ATOM     18  C   UNL     1     113.090 129.482 135.282  0.00  0.00    +0.000 A 
ATOM     19  C   UNL     1     113.561 129.840 135.857  0.00  0.00    +0.000 A 
BRANCH  19  20
ATOM     20  O   UNL     1     113.941 130.555 135.693  0.00  0.00    +0.000 OA
ATOM     21  C   UNL     1     114.763 130.604 135.737  0.00  0.00    +0.000 C 
ENDBRANCH  19  20
ENDBRANCH   6  14
BRANCH  13  22
ATOM     22  O   UNL     1     112.926 124.083 136.487  0.00  0.00    +0.000 OA
ATOM     23  C   UNL     1     113.458 123.864 137.077  0.00  0.00    +0.000 C 
ENDBRANCH  13  22
ENDBRANCH   1   5
BRANCH   1  30
ATOM     24  O   UNL     1     111.209 128.457 138.064  0.00  0.00    +0.000 OA
ATOM     25  O   UNL     1     108.960 129.489 138.019  0.00  0.00    +0.000 OA
ATOM     26  O   UNL     1     109.704 129.195 139.461  0.00  0.00    +0.000 OA
ATOM     27  C   UNL     1     110.087 128.948 137.327  0.00  0.00    +0.000 C 
ATOM     28  C   UNL     1     109.709 129.145 138.034  0.00  0.00    +0.000 C 
ATOM     29  C   UNL     1     110.081 128.998 138.755  0.00  0.00    +0.000 C 
ATOM     30  C   UNL     1     110.836 128.604 137.342  0.00  0.00    +0.000 C 
ATOM     31  C   UNL     1     110.831 128.654 138.770  0.00  0.00    +0.000 C 
BRANCH  31  33
ATOM     32  O   UNL     1     111.923 128.872 139.665  0.00  0.00    +0.000 OA
ATOM     33  C   UNL     1     111.203 128.507 139.491  0.00  0.00    +0.000 C 
ENDBRANCH  31  33
BRANCH  27  34
ATOM     34  O   UNL     1     109.715 129.094 136.606  0.00  0.00    +0.000 OA
BRANCH  34  39
ATOM     35  O   UNL     1     110.132 130.460 136.646  0.00  0.00    +0.000 OA
ATOM     36  O   UNL     1     108.684 129.446 135.367  0.00  0.00    +0.000 OA
ATOM     37  O   UNL     1     108.586 130.988 134.788  0.00  0.00    +0.000 OA
ATOM     38  O   UNL     1     109.520 132.178 135.448  0.00  0.00    +0.000 OA
ATOM     39  C   UNL     1     109.666 129.865 136.316  0.00  0.00    +0.000 C 
ATOM     40  C   UNL     1     109.150 130.042 135.696  0.00  0.00    +0.000 C 
ATOM     41  C   UNL     1     109.101 130.813 135.407  0.00  0.00    +0.000 C 
ATOM     42  C   UNL     1     109.568 131.407 135.737  0.00  0.00    +0.000 C 
ATOM     43  C   UNL     1     110.084 131.231 136.356  0.00  0.00    +0.000 C 
ATOM     44  C   UNL     1     110.551 131.826 136.687  0.00  0.00    +0.000 C 
ENDBRANCH  34  39
ENDBRANCH  27  34
ENDBRANCH   1  30
TORSDOF 8
ENDMDL
MODEL 6
REMARK VINA RESULT:      -9.1      1.595      4.557
REMARK  Name = 44259573
REMARK  8 active torsions:
REMARK  status: ('A' for Active; 'I' for Inactive)
REMARK    1  A    between atoms: O_1  and  C_16
REMARK    2  A    between atoms: O_1  and  C_19
REMARK    3  A    between atoms: O_5  and  C_20
REMARK    4  A    between atoms: O_5  and  C_28
REMARK    5  A    between atoms: O_14  and  C_39
REMARK    6  A    between atoms: O_15  and  C_42
REMARK    7  A    between atoms: C_22  and  C_26
REMARK    8  A    between atoms: C_29  and  C_32
REMARK                            x       y       z     vdW  Elec       q    Type
REMARK                         _______ _______ _______ _____ _____    ______ ____
ROOT
ATOM      1  O   UNL     1     111.632 126.462 139.023  0.00  0.00    +0.000 OA
ENDROOT
BRANCH   1   5
ATOM      2  O   UNL     1     113.768 126.220 138.649  0.00  0.00    +0.000 OA
ATOM      3  O   UNL     1     111.608 125.399 137.761  0.00  0.00    +0.000 OA
ATOM      4  O   UNL     1     112.286 124.593 136.776  0.00  0.00    +0.000 OA
ATOM      5  C   UNL     1     112.340 126.204 138.688  0.00  0.00    +0.000 A 
ATOM      6  C   UNL     1     113.060 126.478 138.984  0.00  0.00    +0.000 A 
ATOM      7  C   UNL     1     112.328 125.673 138.057  0.00  0.00    +0.000 A 
ATOM      8  C   UNL     1     113.036 125.415 137.722  0.00  0.00    +0.000 A 
ATOM      9  C   UNL     1     113.756 125.688 138.017  0.00  0.00    +0.000 A 
ATOM     10  C   UNL     1     113.011 124.861 137.065  0.00  0.00    +0.000 A 
ATOM     11  C   UNL     1     114.501 125.427 137.677  0.00  0.00    +0.000 A 
ATOM     12  C   UNL     1     113.746 124.589 136.712  0.00  0.00    +0.000 A 
ATOM     13  C   UNL     1     114.496 124.874 137.019  0.00  0.00    +0.000 A 
BRANCH   6  14
ATOM     14  C   UNL     1     113.072 127.009 139.614  0.00  0.00    +0.000 A 
ATOM     15  C   UNL     1     113.159 127.817 139.471  0.00  0.00    +0.000 A 
ATOM     16  C   UNL     1     112.997 126.733 140.389  0.00  0.00    +0.000 A 
ATOM     17  C   UNL     1     113.171 128.349 140.103  0.00  0.00    +0.000 A 
ATOM     18  C   UNL     1     113.009 127.264 141.019  0.00  0.00    +0.000 A 
ATOM     19  C   UNL     1     113.096 128.072 140.876  0.00  0.00    +0.000 A 
BRANCH  19  20
ATOM     20  O   UNL     1     113.108 128.604 141.507  0.00  0.00    +0.000 OA
ATOM     21  C   UNL     1     112.814 129.368 141.408  0.00  0.00    +0.000 C 
ENDBRANCH  19  20
ENDBRANCH   6  14
BRANCH  13  22
ATOM     22  O   UNL     1     115.206 124.617 136.686  0.00  0.00    +0.000 OA
ATOM     23  C   UNL     1     115.486 124.967 135.993  0.00  0.00    +0.000 C 
ENDBRANCH  13  22
ENDBRANCH   1   5
BRANCH   1  30
ATOM     24  O   UNL     1     111.258 127.320 137.943  0.00  0.00    +0.000 OA
ATOM     25  O   UNL     1     108.877 126.763 138.326  0.00  0.00    +0.000 OA
ATOM     26  O   UNL     1     109.297 127.806 137.119  0.00  0.00    +0.000 OA
ATOM     27  C   UNL     1     110.254 126.612 138.675  0.00  0.00    +0.000 C 
ATOM     28  C   UNL     1     109.670 126.949 138.198  0.00  0.00    +0.000 C 
ATOM     29  C   UNL     1     109.880 127.470 137.595  0.00  0.00    +0.000 C 
ATOM     30  C   UNL     1     111.048 126.798 138.547  0.00  0.00    +0.000 C 
ATOM     31  C   UNL     1     110.674 127.655 137.467  0.00  0.00    +0.000 C 
BRANCH  31  33
ATOM     32  O   UNL     1     111.282 128.877 137.044  0.00  0.00    +0.000 OA
ATOM     33  C   UNL     1     110.884 128.177 136.864  0.00  0.00    +0.000 C 
ENDBRANCH  31  33
BRANCH  27  34
ATOM     34  O   UNL     1     110.044 126.091 139.278  0.00  0.00    +0.000 OA
BRANCH  34  39
ATOM     35  O   UNL     1     109.718 127.192 140.130  0.00  0.00    +0.000 OA
ATOM     36  O   UNL     1     109.392 125.048 140.378  0.00  0.00    +0.000 OA
ATOM     37  O   UNL     1     108.740 125.628 141.779  0.00  0.00    +0.000 OA
ATOM     38  O   UNL     1     108.741 127.250 142.080  0.00  0.00    +0.000 OA
ATOM     39  C   UNL     1     109.719 126.381 139.979  0.00  0.00    +0.000 C 
ATOM     40  C   UNL     1     109.392 125.859 140.529  0.00  0.00    +0.000 C 
ATOM     41  C   UNL     1     109.066 126.149 141.230  0.00  0.00    +0.000 C 
ATOM     42  C   UNL     1     109.067 126.960 141.379  0.00  0.00    +0.000 C 
ATOM     43  C   UNL     1     109.392 127.481 140.830  0.00  0.00    +0.000 C 
ATOM     44  C   UNL     1     109.393 128.293 140.980  0.00  0.00    +0.000 C 
ENDBRANCH  34  39
ENDBRANCH  27  34
ENDBRANCH   1  30
TORSDOF 8
ENDMDL
MODEL 7
REMARK VINA RESULT:      -9.1      2.211      4.095
REMARK  Name = 44259573
REMARK  8 active torsions:
REMARK  status: ('A' for Active; 'I' for Inactive)
REMARK    1  A    between atoms: O_1  and  C_16
REMARK    2  A    between atoms: O_1  and  C_19
REMARK    3  A    between atoms: O_5  and  C_20
REMARK    4  A    between atoms: O_5  and  C_28
REMARK    5  A    between atoms: O_14  and  C_39
REMARK    6  A    between atoms: O_15  and  C_42
REMARK    7  A    between atoms: C_22  and  C_26
REMARK    8  A    between atoms: C_29  and  C_32
REMARK                            x       y       z     vdW  Elec       q    Type
REMARK                         _______ _______ _______ _____ _____    ______ ____
ROOT
ATOM      1  O   UNL     1     111.492 127.953 136.544  0.00  0.00    +0.000 OA
ENDROOT
BRANCH   1   5
ATOM      2  O   UNL     1     110.970 129.769 135.452  0.00  0.00    +0.000 OA
ATOM      3  O   UNL     1     109.872 128.043 136.846  0.00  0.00    +0.000 OA
ATOM      4  O   UNL     1     108.593 128.695 136.698  0.00  0.00    +0.000 OA
ATOM      5  C   UNL     1     111.048 128.573 136.230  0.00  0.00    +0.000 A 
ATOM      6  C   UNL     1     111.414 129.148 135.766  0.00  0.00    +0.000 A 
ATOM      7  C   UNL     1     110.238 128.618 136.381  0.00  0.00    +0.000 A 
ATOM      8  C   UNL     1     109.794 129.238 136.068  0.00  0.00    +0.000 A 
ATOM      9  C   UNL     1     110.159 129.814 135.603  0.00  0.00    +0.000 A 
ATOM     10  C   UNL     1     108.951 129.275 136.232  0.00  0.00    +0.000 A 
ATOM     11  C   UNL     1     109.708 130.465 135.270  0.00  0.00    +0.000 A 
ATOM     12  C   UNL     1     108.483 129.919 135.908  0.00  0.00    +0.000 A 
ATOM     13  C   UNL     1     108.864 130.518 135.424  0.00  0.00    +0.000 A 
BRANCH   6  14
ATOM     14  C   UNL     1     112.223 129.103 135.615  0.00  0.00    +0.000 A 
ATOM     15  C   UNL     1     112.493 128.775 134.908  0.00  0.00    +0.000 A 
ATOM     16  C   UNL     1     112.764 129.386 136.171  0.00  0.00    +0.000 A 
ATOM     17  C   UNL     1     113.303 128.730 134.756  0.00  0.00    +0.000 A 
ATOM     18  C   UNL     1     113.573 129.341 136.020  0.00  0.00    +0.000 A 
ATOM     19  C   UNL     1     113.843 129.013 135.312  0.00  0.00    +0.000 A 
BRANCH  19  20
ATOM     20  O   UNL     1     114.653 128.968 135.161  0.00  0.00    +0.000 OA
ATOM     21  C   UNL     1     115.025 129.560 134.723  0.00  0.00    +0.000 C 
ENDBRANCH  19  20
ENDBRANCH   6  14
BRANCH  13  22
ATOM     22  O   UNL     1     108.422 131.140 135.109  0.00  0.00    +0.000 OA
ATOM     23  C   UNL     1     108.377 131.859 135.511  0.00  0.00    +0.000 C 
ENDBRANCH  13  22
ENDBRANCH   1   5
BRANCH   1  30
ATOM     24  O   UNL     1     110.990 126.958 135.649  0.00  0.00    +0.000 OA
ATOM     25  O   UNL     1     111.181 125.255 137.434  0.00  0.00    +0.000 OA
ATOM     26  O   UNL     1     110.617 124.829 135.944  0.00  0.00    +0.000 OA
ATOM     27  C   UNL     1     111.337 126.604 136.990  0.00  0.00    +0.000 C 
ATOM     28  C   UNL     1     111.118 125.822 136.839  0.00  0.00    +0.000 C 
ATOM     29  C   UNL     1     110.835 125.609 136.094  0.00  0.00    +0.000 C 
ATOM     30  C   UNL     1     111.273 127.171 136.395  0.00  0.00    +0.000 C 
ATOM     31  C   UNL     1     110.772 126.177 135.499  0.00  0.00    +0.000 C 
BRANCH  31  33
ATOM     32  O   UNL     1     109.676 125.940 134.613  0.00  0.00    +0.000 OA
ATOM     33  C   UNL     1     110.490 125.964 134.754  0.00  0.00    +0.000 C 
ENDBRANCH  31  33
BRANCH  27  34
ATOM     34  O   UNL     1     111.619 126.817 137.734  0.00  0.00    +0.000 OA
BRANCH  34  39
ATOM     35  O   UNL     1     112.902 126.272 137.419  0.00  0.00    +0.000 OA
ATOM     36  O   UNL     1     112.078 126.983 139.311  0.00  0.00    +0.000 OA
ATOM     37  O   UNL     1     113.589 126.521 139.783  0.00  0.00    +0.000 OA
ATOM     38  O   UNL     1     114.643 125.893 138.679  0.00  0.00    +0.000 OA
ATOM     39  C   UNL     1     112.375 126.586 137.970  0.00  0.00    +0.000 C 
ATOM     40  C   UNL     1     112.605 126.669 138.759  0.00  0.00    +0.000 C 
ATOM     41  C   UNL     1     113.360 126.438 138.995  0.00  0.00    +0.000 C 
ATOM     42  C   UNL     1     113.887 126.124 138.443  0.00  0.00    +0.000 C 
ATOM     43  C   UNL     1     113.658 126.041 137.655  0.00  0.00    +0.000 C 
ATOM     44  C   UNL     1     114.184 125.726 137.103  0.00  0.00    +0.000 C 
ENDBRANCH  34  39
ENDBRANCH  27  34
ENDBRANCH   1  30
TORSDOF 8
ENDMDL
MODEL 8
REMARK VINA RESULT:      -9.0      1.811      3.561
REMARK  Name = 44259573
REMARK  8 active torsions:
REMARK  status: ('A' for Active; 'I' for Inactive)
REMARK    1  A    between atoms: O_1  and  C_16
REMARK    2  A    between atoms: O_1  and  C_19
REMARK    3  A    between atoms: O_5  and  C_20
REMARK    4  A    between atoms: O_5  and  C_28
REMARK    5  A    between atoms: O_14  and  C_39
REMARK    6  A    between atoms: O_15  and  C_42
REMARK    7  A    between atoms: C_22  and  C_26
REMARK    8  A    between atoms: C_29  and  C_32
REMARK                            x       y       z     vdW  Elec       q    Type
REMARK                         _______ _______ _______ _____ _____    ______ ____
ROOT
ATOM      1  O   UNL     1     111.906 127.976 137.626  0.00  0.00    +0.000 OA
ENDROOT
BRANCH   1   5
ATOM      2  O   UNL     1     113.386 127.927 136.022  0.00  0.00    +0.000 OA
ATOM      3  O   UNL     1     112.486 129.519 137.690  0.00  0.00    +0.000 OA
ATOM      4  O   UNL     1     113.365 130.560 137.213  0.00  0.00    +0.000 OA
ATOM      5  C   UNL     1     112.496 128.217 137.102  0.00  0.00    +0.000 A 
ATOM      6  C   UNL     1     112.796 127.686 136.546  0.00  0.00    +0.000 A 
ATOM      7  C   UNL     1     112.786 128.988 137.134  0.00  0.00    +0.000 A 
ATOM      8  C   UNL     1     113.376 129.229 136.610  0.00  0.00    +0.000 A 
ATOM      9  C   UNL     1     113.676 128.699 136.054  0.00  0.00    +0.000 A 
ATOM     10  C   UNL     1     113.671 130.036 136.654  0.00  0.00    +0.000 A 
ATOM     11  C   UNL     1     114.291 128.937 135.503  0.00  0.00    +0.000 A 
ATOM     12  C   UNL     1     114.285 130.292 136.111  0.00  0.00    +0.000 A 
ATOM     13  C   UNL     1     114.598 129.740 135.531  0.00  0.00    +0.000 A 
BRANCH   6  14
ATOM     14  C   UNL     1     112.506 126.915 136.514  0.00  0.00    +0.000 A 
ATOM     15  C   UNL     1     112.813 126.337 137.017  0.00  0.00    +0.000 A 
ATOM     16  C   UNL     1     111.909 126.719 135.978  0.00  0.00    +0.000 A 
ATOM     17  C   UNL     1     112.522 125.565 136.985  0.00  0.00    +0.000 A 
ATOM     18  C   UNL     1     111.619 125.948 135.946  0.00  0.00    +0.000 A 
ATOM     19  C   UNL     1     111.926 125.371 136.449  0.00  0.00    +0.000 A 
BRANCH  19  20
ATOM     20  O   UNL     1     111.636 124.599 136.417  0.00  0.00    +0.000 OA
ATOM     21  C   UNL     1     111.746 124.089 137.056  0.00  0.00    +0.000 C 
ENDBRANCH  19  20
ENDBRANCH   6  14
BRANCH  13  22
ATOM     22  O   UNL     1     115.188 129.978 135.006  0.00  0.00    +0.000 OA
ATOM     23  C   UNL     1     115.277 130.777 134.822  0.00  0.00    +0.000 C 
ENDBRANCH  13  22
ENDBRANCH   1   5
BRANCH   1  30
ATOM     24  O   UNL     1     110.847 128.687 136.982  0.00  0.00    +0.000 OA
ATOM     25  O   UNL     1     109.771 129.070 139.178  0.00  0.00    +0.000 OA
ATOM     26  O   UNL     1     109.071 129.654 137.803  0.00  0.00    +0.000 OA
ATOM     27  C   UNL     1     110.838 128.523 138.402  0.00  0.00    +0.000 C 
ATOM     28  C   UNL     1     110.129 128.943 138.446  0.00  0.00    +0.000 C 
ATOM     29  C   UNL     1     109.779 129.234 137.759  0.00  0.00    +0.000 C 
ATOM     30  C   UNL     1     111.197 128.395 137.671  0.00  0.00    +0.000 C 
ATOM     31  C   UNL     1     110.138 129.107 137.027  0.00  0.00    +0.000 C 
BRANCH  31  33
ATOM     32  O   UNL     1     109.527 128.875 135.756  0.00  0.00    +0.000 OA
ATOM     33  C   UNL     1     109.788 129.398 136.339  0.00  0.00    +0.000 C 
ENDBRANCH  31  33
BRANCH  27  34
ATOM     34  O   UNL     1     111.188 128.231 139.089  0.00  0.00    +0.000 OA
BRANCH  34  39
ATOM     35  O   UNL     1     110.277 127.131 139.087  0.00  0.00    +0.000 OA
ATOM     36  O   UNL     1     111.877 127.657 140.474  0.00  0.00    +0.000 OA
ATOM     37  O   UNL     1     111.310 126.269 141.164  0.00  0.00    +0.000 OA
ATOM     38  O   UNL     1     110.053 125.457 140.469  0.00  0.00    +0.000 OA
ATOM     39  C   UNL     1     110.905 127.538 139.434  0.00  0.00    +0.000 C 
ATOM     40  C   UNL     1     111.249 127.250 140.127  0.00  0.00    +0.000 C 
ATOM     41  C   UNL     1     110.965 126.556 140.472  0.00  0.00    +0.000 C 
ATOM     42  C   UNL     1     110.337 126.150 140.124  0.00  0.00    +0.000 C 
ATOM     43  C   UNL     1     109.993 126.437 139.432  0.00  0.00    +0.000 C 
ATOM     44  C   UNL     1     109.364 126.031 139.084  0.00  0.00    +0.000 C 
ENDBRANCH  34  39
ENDBRANCH  27  34
ENDBRANCH   1  30
TORSDOF 8
ENDMDL
MODEL 9
REMARK VINA RESULT:      -9.0      1.856      5.162
REMARK  Name = 44259573
REMARK  8 active torsions:
REMARK  status: ('A' for Active; 'I' for Inactive)
REMARK    1  A    between atoms: O_1  and  C_16
REMARK    2  A    between atoms: O_1  and  C_19
REMARK    3  A    between atoms: O_5  and  C_20
REMARK    4  A    between atoms: O_5  and  C_28
REMARK    5  A    between atoms: O_14  and  C_39
REMARK    6  A    between atoms: O_15  and  C_42
REMARK    7  A    between atoms: C_22  and  C_26
REMARK    8  A    between atoms: C_29  and  C_32
REMARK                            x       y       z     vdW  Elec       q    Type
REMARK                         _______ _______ _______ _____ _____    ______ ____
ROOT
ATOM      1  O   UNL     1     110.874 128.531 137.524  0.00  0.00    +0.000 OA
ENDROOT
BRANCH   1   5
ATOM      2  O   UNL     1     112.502 127.135 137.122  0.00  0.00    +0.000 OA
ATOM      3  O   UNL     1     110.029 127.199 137.040  0.00  0.00    +0.000 OA
ATOM      4  O   UNL     1     109.980 125.833 136.579  0.00  0.00    +0.000 OA
ATOM      5  C   UNL     1     111.276 127.844 137.309  0.00  0.00    +0.000 A 
ATOM      6  C   UNL     1     112.100 127.823 137.337  0.00  0.00    +0.000 A 
ATOM      7  C   UNL     1     110.854 127.178 137.068  0.00  0.00    +0.000 A 
ATOM      8  C   UNL     1     111.256 126.490 136.853  0.00  0.00    +0.000 A 
ATOM      9  C   UNL     1     112.080 126.468 136.880  0.00  0.00    +0.000 A 
ATOM     10  C   UNL     1     110.805 125.802 136.603  0.00  0.00    +0.000 A 
ATOM     11  C   UNL     1     112.511 125.759 136.659  0.00  0.00    +0.000 A 
ATOM     12  C   UNL     1     111.218 125.083 136.378  0.00  0.00    +0.000 A 
ATOM     13  C   UNL     1     112.077 125.061 136.407  0.00  0.00    +0.000 A 
BRANCH   6  14
ATOM     14  C   UNL     1     112.522 128.489 137.578  0.00  0.00    +0.000 A 
ATOM     15  C   UNL     1     112.838 129.003 137.016  0.00  0.00    +0.000 A 
ATOM     16  C   UNL     1     112.629 128.641 138.382  0.00  0.00    +0.000 A 
ATOM     17  C   UNL     1     113.261 129.670 137.257  0.00  0.00    +0.000 A 
ATOM     18  C   UNL     1     113.051 129.307 138.623  0.00  0.00    +0.000 A 
ATOM     19  C   UNL     1     113.367 129.821 138.061  0.00  0.00    +0.000 A 
BRANCH  19  20
ATOM     20  O   UNL     1     113.790 130.488 138.302  0.00  0.00    +0.000 OA
ATOM     21  C   UNL     1     114.065 130.543 139.078  0.00  0.00    +0.000 C 
ENDBRANCH  19  20
ENDBRANCH   6  14
BRANCH  13  22
ATOM     22  O   UNL     1     112.481 124.374 136.193  0.00  0.00    +0.000 OA
ATOM     23  C   UNL     1     112.765 123.864 136.776  0.00  0.00    +0.000 C 
ENDBRANCH  13  22
ENDBRANCH   1   5
BRANCH   1  30
ATOM     24  O   UNL     1     110.509 128.912 136.196  0.00  0.00    +0.000 OA
ATOM     25  O   UNL     1     108.373 129.830 137.045  0.00  0.00    +0.000 OA
ATOM     26  O   UNL     1     108.721 129.905 135.434  0.00  0.00    +0.000 OA
ATOM     27  C   UNL     1     109.623 129.181 137.285  0.00  0.00    +0.000 C 
ATOM     28  C   UNL     1     109.085 129.524 136.762  0.00  0.00    +0.000 C 
ATOM     29  C   UNL     1     109.259 129.562 135.957  0.00  0.00    +0.000 C 
ATOM     30  C   UNL     1     110.335 128.875 137.002  0.00  0.00    +0.000 C 
ATOM     31  C   UNL     1     109.971 129.256 135.674  0.00  0.00    +0.000 C 
BRANCH  31  33
ATOM     32  O   UNL     1     110.829 129.678 134.612  0.00  0.00    +0.000 OA
ATOM     33  C   UNL     1     110.145 129.293 134.868  0.00  0.00    +0.000 C 
ENDBRANCH  31  33
BRANCH  27  34
ATOM     34  O   UNL     1     109.449 129.143 138.090  0.00  0.00    +0.000 OA
BRANCH  34  39
ATOM     35  O   UNL     1     109.880 130.496 138.252  0.00  0.00    +0.000 OA
ATOM     36  O   UNL     1     108.927 129.122 139.655  0.00  0.00    +0.000 OA
ATOM     37  O   UNL     1     109.098 130.465 140.599  0.00  0.00    +0.000 OA
ATOM     38  O   UNL     1     109.790 131.828 139.978  0.00  0.00    +0.000 OA
ATOM     39  C   UNL     1     109.535 129.814 138.562  0.00  0.00    +0.000 C 
ATOM     40  C   UNL     1     109.273 129.804 139.345  0.00  0.00    +0.000 C 
ATOM     41  C   UNL     1     109.359 130.475 139.817  0.00  0.00    +0.000 C 
ATOM     42  C   UNL     1     109.705 131.157 139.506  0.00  0.00    +0.000 C 
ATOM     43  C   UNL     1     109.966 131.167 138.724  0.00  0.00    +0.000 C 
ATOM     44  C   UNL     1     110.312 131.848 138.413  0.00  0.00    +0.000 C 
ENDBRANCH  34  39
ENDBRANCH  27  34
ENDBRANCH   1  30
TORSDOF 8
ENDMDL
MODEL 10
REMARK VINA RESULT:      -9.0      1.772      3.901
REMARK  Name = 44259573
REMARK  8 active torsions:
REMARK  status: ('A' for Active; 'I' for Inactive)
REMARK    1  A    between atoms: O_1  and  C_16
REMARK    2  A    between atoms: O_1  and  C_19
REMARK    3  A    between atoms: O_5  and  C_20
REMARK    4  A    between atoms: O_5  and  C_28
REMARK    5  A    between atoms: O_14  and  C_39
REMARK    6  A    between atoms: O_15  and  C_42
REMARK    7  A    between atoms: C_22  and  C_26
REMARK    8  A    between atoms: C_29  and  C_32
REMARK                            x       y       z     vdW  Elec       q    Type
REMARK                         _______ _______ _______ _____ _____    ______ ____
ROOT
ATOM      1  O   UNL     1     112.466 127.898 137.038  0.00  0.00    +0.000 OA
ENDROOT
BRANCH   1   5
ATOM      2  O   UNL     1     113.779 129.615 137.334  0.00  0.00    +0.000 OA
ATOM      3  O   UNL     1     113.147 128.031 135.541  0.00  0.00    +0.000 OA
ATOM      4  O   UNL     1     114.040 128.681 134.612  0.00  0.00    +0.000 OA
ATOM      5  C   UNL     1     113.017 128.492 136.887  0.00  0.00    +0.000 A 
ATOM      6  C   UNL     1     113.228 129.020 137.485  0.00  0.00    +0.000 A 
ATOM      7  C   UNL     1     113.357 128.559 136.139  0.00  0.00    +0.000 A 
ATOM      8  C   UNL     1     113.909 129.154 135.988  0.00  0.00    +0.000 A 
ATOM      9  C   UNL     1     114.120 129.682 136.585  0.00  0.00    +0.000 A 
ATOM     10  C   UNL     1     114.257 129.214 135.204  0.00  0.00    +0.000 A 
ATOM     11  C   UNL     1     114.692 130.306 136.441  0.00  0.00    +0.000 A 
ATOM     12  C   UNL     1     114.831 129.831 135.041  0.00  0.00    +0.000 A 
ATOM     13  C   UNL     1     115.051 130.381 135.664  0.00  0.00    +0.000 A 
BRANCH   6  14
ATOM     14  C   UNL     1     112.888 128.954 138.233  0.00  0.00    +0.000 A 
ATOM     15  C   UNL     1     113.283 128.545 138.831  0.00  0.00    +0.000 A 
ATOM     16  C   UNL     1     112.152 129.296 138.385  0.00  0.00    +0.000 A 
ATOM     17  C   UNL     1     112.942 128.478 139.580  0.00  0.00    +0.000 A 
ATOM     18  C   UNL     1     111.812 129.230 139.133  0.00  0.00    +0.000 A 
ATOM     19  C   UNL     1     112.207 128.821 139.731  0.00  0.00    +0.000 A 
BRANCH  19  20
ATOM     20  O   UNL     1     111.867 128.754 140.480  0.00  0.00    +0.000 OA
ATOM     21  C   UNL     1     112.271 129.033 141.143  0.00  0.00    +0.000 C 
ENDBRANCH  19  20
ENDBRANCH   6  14
BRANCH  13  22
ATOM     22  O   UNL     1     115.602 130.977 135.516  0.00  0.00    +0.000 OA
ATOM     23  C   UNL     1     115.572 131.400 134.808  0.00  0.00    +0.000 C 
ENDBRANCH  13  22
ENDBRANCH   1   5
BRANCH   1  30
ATOM     24  O   UNL     1     113.404 126.820 137.070  0.00  0.00    +0.000 OA
ATOM     25  O   UNL     1     111.726 125.329 136.028  0.00  0.00    +0.000 OA
ATOM     26  O   UNL     1     113.222 124.748 136.408  0.00  0.00    +0.000 OA
ATOM     27  C   UNL     1     112.095 126.613 136.533  0.00  0.00    +0.000 C 
ATOM     28  C   UNL     1     112.285 125.826 136.375  0.00  0.00    +0.000 C 
ATOM     29  C   UNL     1     113.033 125.535 136.565  0.00  0.00    +0.000 C 
ATOM     30  C   UNL     1     112.654 127.110 136.880  0.00  0.00    +0.000 C 
ATOM     31  C   UNL     1     113.592 126.032 136.912  0.00  0.00    +0.000 C 
BRANCH  31  33
ATOM     32  O   UNL     1     114.557 125.647 137.894  0.00  0.00    +0.000 OA
ATOM     33  C   UNL     1     114.341 125.743 137.103  0.00  0.00    +0.000 C 
ENDBRANCH  31  33
BRANCH  27  34
ATOM     34  O   UNL     1     111.347 126.903 136.343  0.00  0.00    +0.000 OA
BRANCH  34  39
ATOM     35  O   UNL     1     110.826 126.369 137.562  0.00  0.00    +0.000 OA
ATOM     36  O   UNL     1     109.824 127.344 135.885  0.00  0.00    +0.000 OA
ATOM     37  O   UNL     1     108.542 127.030 136.875  0.00  0.00    +0.000 OA
ATOM     38  O   UNL     1     108.783 126.275 138.323  0.00  0.00    +0.000 OA
ATOM     39  C   UNL     1     110.706 126.746 136.838  0.00  0.00    +0.000 C 
ATOM     40  C   UNL     1     109.944 126.967 136.609  0.00  0.00    +0.000 C 
ATOM     41  C   UNL     1     109.303 126.810 137.104  0.00  0.00    +0.000 C 
ATOM     42  C   UNL     1     109.424 126.432 137.828  0.00  0.00    +0.000 C 
ATOM     43  C   UNL     1     110.185 126.212 138.057  0.00  0.00    +0.000 C 
ATOM     44  C   UNL     1     110.306 125.835 138.781  0.00  0.00    +0.000 C 
ENDBRANCH  34  39
ENDBRANCH  27  34
ENDBRANCH   1  30
TORSDOF 8
ENDMDL
