MODEL 1
REMARK VINA RESULT:      -8.9      0.000      0.000
REMARK  Name = 
REMARK  4 active torsions:
REMARK  status: ('A' for Active; 'I' for Inactive)
REMARK    1  A    between atoms: C_1  and  O_18
REMARK    2  A    between atoms: C_9  and  C_11
REMARK    3  A    between atoms: O_18  and  C_26
REMARK    4  A    between atoms: C_22  and  C_31
REMARK                            x       y       z     vdW  Elec       q    Type
REMARK                         _______ _______ _______ _____ _____    ______ ____
ROOT
ATOM      1  C   UNL     1     104.973 128.223 143.076  0.00  0.00    +0.000 A 
ATOM      2  C   UNL     1     104.950 127.691 142.227  0.00  0.00    +0.000 A 
ATOM      3  C   UNL     1     104.401 128.009 141.453  0.00  0.00    +0.000 A 
ATOM      4  C   UNL     1     104.450 129.069 143.151  0.00  0.00    +0.000 A 
ATOM      5  C   UNL     1     103.901 129.390 142.382  0.00  0.00    +0.000 A 
ATOM      6  C   UNL     1     103.878 128.857 141.531  0.00  0.00    +0.000 A 
ATOM      7  C   UNL     1     103.331 129.173 140.758  0.00  0.00    +0.000 C 
ATOM      8  C   UNL     1     102.803 130.023 140.828  0.00  0.00    +0.000 C 
ATOM      9  C   UNL     1     102.826 130.556 141.679  0.00  0.00    +0.000 C 
ATOM     10  O   UNL     1     103.377 130.239 142.459  0.00  0.00    +0.000 OA
ATOM     11  O   UNL     1     104.376 127.480 140.605  0.00  0.00    +0.000 OA
ATOM     12  O   UNL     1     103.309 128.641 139.912  0.00  0.00    +0.000 OA
ATOM     13  O   UNL     1     102.256 130.339 140.054  0.00  0.00    +0.000 OA
ENDROOT
BRANCH   9  14
ATOM     14  C   UNL     1     102.302 131.401 141.749  0.00  0.00    +0.000 A 
ATOM     15  C   UNL     1     102.705 132.270 141.463  0.00  0.00    +0.000 A 
ATOM     16  C   UNL     1     102.175 133.113 141.536  0.00  0.00    +0.000 A 
ATOM     17  C   UNL     1     101.243 133.087 141.895  0.00  0.00    +0.000 A 
ATOM     18  C   UNL     1     100.843 132.211 142.182  0.00  0.00    +0.000 A 
ATOM     19  C   UNL     1     101.375 131.373 142.107  0.00  0.00    +0.000 A 
ATOM     20  O   UNL     1     100.710 133.929 141.969  0.00  0.00    +0.000 OA
ENDBRANCH   9  14
BRANCH   1  21
ATOM     21  O   UNL     1     105.521 127.905 143.849  0.00  0.00    +0.000 OA
BRANCH  21  26
ATOM     22  C   UNL     1     106.461 126.350 145.762  0.00  0.00    +0.000 C 
ATOM     23  C   UNL     1     107.157 126.944 146.166  0.00  0.00    +0.000 C 
ATOM     24  C   UNL     1     107.305 127.857 145.797  0.00  0.00    +0.000 C 
ATOM     25  C   UNL     1     106.765 128.182 145.027  0.00  0.00    +0.000 C 
ATOM     26  C   UNL     1     106.069 127.588 144.622  0.00  0.00    +0.000 C 
ATOM     27  O   UNL     1     105.913 126.669 144.987  0.00  0.00    +0.000 OA
ATOM     28  O   UNL     1     107.700 126.616 146.940  0.00  0.00    +0.000 OA
ATOM     29  O   UNL     1     108.005 128.444 146.209  0.00  0.00    +0.000 OA
ATOM     30  O   UNL     1     106.917 129.100 144.659  0.00  0.00    +0.000 OA
BRANCH  22  31
ATOM     31  C   UNL     1     106.312 125.432 146.132  0.00  0.00    +0.000 C 
ATOM     32  O   UNL     1     106.345 124.636 145.527  0.00  0.00    +0.000 OA
ENDBRANCH  22  31
ENDBRANCH  21  26
ENDBRANCH   1  21
TORSDOF 4
ENDMDL
MODEL 2
REMARK VINA RESULT:      -8.8      1.624      2.703
REMARK  Name = 
REMARK  4 active torsions:
REMARK  status: ('A' for Active; 'I' for Inactive)
REMARK    1  A    between atoms: C_1  and  O_18
REMARK    2  A    between atoms: C_9  and  C_11
REMARK    3  A    between atoms: O_18  and  C_26
REMARK    4  A    between atoms: C_22  and  C_31
REMARK                            x       y       z     vdW  Elec       q    Type
REMARK                         _______ _______ _______ _____ _____    ______ ____
ROOT
ATOM      1  C   UNL     1     106.039 127.310 144.210  0.00  0.00    +0.000 A 
ATOM      2  C   UNL     1     106.821 127.423 143.594  0.00  0.00    +0.000 A 
ATOM      3  C   UNL     1     106.771 128.082 142.841  0.00  0.00    +0.000 A 
ATOM      4  C   UNL     1     105.212 127.851 144.077  0.00  0.00    +0.000 A 
ATOM      5  C   UNL     1     105.158 128.508 143.329  0.00  0.00    +0.000 A 
ATOM      6  C   UNL     1     105.941 128.623 142.711  0.00  0.00    +0.000 A 
ATOM      7  C   UNL     1     105.893 129.280 141.960  0.00  0.00    +0.000 C 
ATOM      8  C   UNL     1     105.063 129.827 141.821  0.00  0.00    +0.000 C 
ATOM      9  C   UNL     1     104.280 129.712 142.440  0.00  0.00    +0.000 C 
ATOM     10  O   UNL     1     104.327 129.051 143.196  0.00  0.00    +0.000 OA
ATOM     11  O   UNL     1     107.548 128.199 142.224  0.00  0.00    +0.000 OA
ATOM     12  O   UNL     1     106.673 129.393 141.345  0.00  0.00    +0.000 OA
ATOM     13  O   UNL     1     105.016 130.484 141.070  0.00  0.00    +0.000 OA
ENDROOT
BRANCH   9  14
ATOM     14  C   UNL     1     103.456 130.255 142.302  0.00  0.00    +0.000 A 
ATOM     15  C   UNL     1     102.838 130.051 141.542  0.00  0.00    +0.000 A 
ATOM     16  C   UNL     1     102.014 130.599 141.410  0.00  0.00    +0.000 A 
ATOM     17  C   UNL     1     101.807 131.349 142.037  0.00  0.00    +0.000 A 
ATOM     18  C   UNL     1     102.431 131.550 142.798  0.00  0.00    +0.000 A 
ATOM     19  C   UNL     1     103.252 131.001 142.927  0.00  0.00    +0.000 A 
ATOM     20  O   UNL     1     100.983 131.899 141.906  0.00  0.00    +0.000 OA
ENDBRANCH   9  14
BRANCH   1  21
ATOM     21  O   UNL     1     106.089 126.651 144.962  0.00  0.00    +0.000 OA
BRANCH  21  26
ATOM     22  C   UNL     1     106.957 125.383 147.106  0.00  0.00    +0.000 C 
ATOM     23  C   UNL     1     106.249 124.685 147.215  0.00  0.00    +0.000 C 
ATOM     24  C   UNL     1     105.489 124.644 146.572  0.00  0.00    +0.000 C 
ATOM     25  C   UNL     1     105.431 125.295 145.820  0.00  0.00    +0.000 C 
ATOM     26  C   UNL     1     106.139 125.994 145.712  0.00  0.00    +0.000 C 
ATOM     27  O   UNL     1     106.905 126.041 146.353  0.00  0.00    +0.000 OA
ATOM     28  O   UNL     1     106.309 124.031 147.970  0.00  0.00    +0.000 OA
ATOM     29  O   UNL     1     104.785 123.941 146.689  0.00  0.00    +0.000 OA
ATOM     30  O   UNL     1     104.666 125.251 145.177  0.00  0.00    +0.000 OA
BRANCH  22  31
ATOM     31  C   UNL     1     107.720 125.424 147.752  0.00  0.00    +0.000 C 
ATOM     32  O   UNL     1     108.660 125.483 147.414  0.00  0.00    +0.000 OA
ENDBRANCH  22  31
ENDBRANCH  21  26
ENDBRANCH   1  21
TORSDOF 4
ENDMDL
MODEL 3
REMARK VINA RESULT:      -8.7      7.923      9.809
REMARK  Name = 
REMARK  4 active torsions:
REMARK  status: ('A' for Active; 'I' for Inactive)
REMARK    1  A    between atoms: C_1  and  O_18
REMARK    2  A    between atoms: C_9  and  C_11
REMARK    3  A    between atoms: O_18  and  C_26
REMARK    4  A    between atoms: C_22  and  C_31
REMARK                            x       y       z     vdW  Elec       q    Type
REMARK                         _______ _______ _______ _____ _____    ______ ____
ROOT
ATOM      1  C   UNL     1     112.893 128.179 140.723  0.00  0.00    +0.000 A 
ATOM      2  C   UNL     1     113.771 127.701 140.799  0.00  0.00    +0.000 A 
ATOM      3  C   UNL     1     114.049 127.052 140.089  0.00  0.00    +0.000 A 
ATOM      4  C   UNL     1     112.296 128.011 139.942  0.00  0.00    +0.000 A 
ATOM      5  C   UNL     1     112.569 127.365 139.232  0.00  0.00    +0.000 A 
ATOM      6  C   UNL     1     113.448 126.885 139.308  0.00  0.00    +0.000 A 
ATOM      7  C   UNL     1     113.727 126.238 138.600  0.00  0.00    +0.000 C 
ATOM      8  C   UNL     1     113.130 126.064 137.813  0.00  0.00    +0.000 C 
ATOM      9  C   UNL     1     112.251 126.544 137.737  0.00  0.00    +0.000 C 
ATOM     10  O   UNL     1     111.969 127.196 138.448  0.00  0.00    +0.000 OA
ATOM     11  O   UNL     1     114.923 126.574 140.162  0.00  0.00    +0.000 OA
ATOM     12  O   UNL     1     114.603 125.761 138.677  0.00  0.00    +0.000 OA
ATOM     13  O   UNL     1     113.410 125.416 137.105  0.00  0.00    +0.000 OA
ENDROOT
BRANCH   9  14
ATOM     14  C   UNL     1     111.658 126.372 136.955  0.00  0.00    +0.000 A 
ATOM     15  C   UNL     1     111.722 126.946 136.138  0.00  0.00    +0.000 A 
ATOM     16  C   UNL     1     111.125 126.768 135.358  0.00  0.00    +0.000 A 
ATOM     17  C   UNL     1     110.465 126.018 135.393  0.00  0.00    +0.000 A 
ATOM     18  C   UNL     1     110.406 125.445 136.216  0.00  0.00    +0.000 A 
ATOM     19  C   UNL     1     111.003 125.626 136.992  0.00  0.00    +0.000 A 
ATOM     20  O   UNL     1     109.867 125.839 134.613  0.00  0.00    +0.000 OA
ENDBRANCH   9  14
BRANCH   1  21
ATOM     21  O   UNL     1     112.616 128.827 141.432  0.00  0.00    +0.000 OA
BRANCH  21  26
ATOM     22  C   UNL     1     111.682 129.777 143.709  0.00  0.00    +0.000 C 
ATOM     23  C   UNL     1     111.783 130.761 143.562  0.00  0.00    +0.000 C 
ATOM     24  C   UNL     1     112.161 131.098 142.704  0.00  0.00    +0.000 C 
ATOM     25  C   UNL     1     112.440 130.460 141.992  0.00  0.00    +0.000 C 
ATOM     26  C   UNL     1     112.339 129.475 142.140  0.00  0.00    +0.000 C 
ATOM     27  O   UNL     1     111.960 129.129 142.999  0.00  0.00    +0.000 OA
ATOM     28  O   UNL     1     111.502 131.401 144.278  0.00  0.00    +0.000 OA
ATOM     29  O   UNL     1     112.258 132.085 142.566  0.00  0.00    +0.000 OA
ATOM     30  O   UNL     1     112.819 130.802 141.133  0.00  0.00    +0.000 OA
BRANCH  22  31
ATOM     31  C   UNL     1     111.302 129.438 144.571  0.00  0.00    +0.000 C 
ATOM     32  O   UNL     1     111.656 128.595 144.978  0.00  0.00    +0.000 OA
ENDBRANCH  22  31
ENDBRANCH  21  26
ENDBRANCH   1  21
TORSDOF 4
ENDMDL
MODEL 4
REMARK VINA RESULT:      -8.7      1.763      3.110
REMARK  Name = 
REMARK  4 active torsions:
REMARK  status: ('A' for Active; 'I' for Inactive)
REMARK    1  A    between atoms: C_1  and  O_18
REMARK    2  A    between atoms: C_9  and  C_11
REMARK    3  A    between atoms: O_18  and  C_26
REMARK    4  A    between atoms: C_22  and  C_31
REMARK                            x       y       z     vdW  Elec       q    Type
REMARK                         _______ _______ _______ _____ _____    ______ ____
ROOT
ATOM      1  C   UNL     1     105.906 126.329 144.697  0.00  0.00    +0.000 A 
ATOM      2  C   UNL     1     106.139 125.835 143.857  0.00  0.00    +0.000 A 
ATOM      3  C   UNL     1     105.954 126.251 142.966  0.00  0.00    +0.000 A 
ATOM      4  C   UNL     1     105.490 127.234 144.648  0.00  0.00    +0.000 A 
ATOM      5  C   UNL     1     105.304 127.653 143.762  0.00  0.00    +0.000 A 
ATOM      6  C   UNL     1     105.537 127.159 142.920  0.00  0.00    +0.000 A 
ATOM      7  C   UNL     1     105.352 127.572 142.030  0.00  0.00    +0.000 C 
ATOM      8  C   UNL     1     104.934 128.483 141.974  0.00  0.00    +0.000 C 
ATOM      9  C   UNL     1     104.701 128.977 142.817  0.00  0.00    +0.000 C 
ATOM     10  O   UNL     1     104.886 128.562 143.714  0.00  0.00    +0.000 OA
ATOM     11  O   UNL     1     106.184 125.762 142.126  0.00  0.00    +0.000 OA
ATOM     12  O   UNL     1     105.585 127.079 141.192  0.00  0.00    +0.000 OA
ATOM     13  O   UNL     1     104.750 128.896 141.084  0.00  0.00    +0.000 OA
ENDROOT
BRANCH   9  14
ATOM     14  C   UNL     1     104.286 129.881 142.762  0.00  0.00    +0.000 A 
ATOM     15  C   UNL     1     104.858 130.702 142.780  0.00  0.00    +0.000 A 
ATOM     16  C   UNL     1     104.435 131.604 142.725  0.00  0.00    +0.000 A 
ATOM     17  C   UNL     1     103.442 131.688 142.652  0.00  0.00    +0.000 A 
ATOM     18  C   UNL     1     102.872 130.861 142.635  0.00  0.00    +0.000 A 
ATOM     19  C   UNL     1     103.297 129.962 142.690  0.00  0.00    +0.000 A 
ATOM     20  O   UNL     1     103.018 132.591 142.597  0.00  0.00    +0.000 OA
ENDBRANCH   9  14
BRANCH   1  21
ATOM     21  O   UNL     1     106.091 125.913 145.588  0.00  0.00    +0.000 OA
BRANCH  21  26
ATOM     22  C   UNL     1     107.404 125.053 147.708  0.00  0.00    +0.000 C 
ATOM     23  C   UNL     1     106.657 124.671 148.254  0.00  0.00    +0.000 C 
ATOM     24  C   UNL     1     105.724 124.704 147.908  0.00  0.00    +0.000 C 
ATOM     25  C   UNL     1     105.529 125.116 147.022  0.00  0.00    +0.000 C 
ATOM     26  C   UNL     1     106.277 125.498 146.477  0.00  0.00    +0.000 C 
ATOM     27  O   UNL     1     107.217 125.469 146.817  0.00  0.00    +0.000 OA
ATOM     28  O   UNL     1     106.855 124.258 149.143  0.00  0.00    +0.000 OA
ATOM     29  O   UNL     1     104.983 124.319 148.461  0.00  0.00    +0.000 OA
ATOM     30  O   UNL     1     104.590 125.147 146.679  0.00  0.00    +0.000 OA
BRANCH  22  31
ATOM     31  C   UNL     1     108.342 125.020 148.055  0.00  0.00    +0.000 C 
ATOM     32  O   UNL     1     109.114 125.069 147.419  0.00  0.00    +0.000 OA
ENDBRANCH  22  31
ENDBRANCH  21  26
ENDBRANCH   1  21
TORSDOF 4
ENDMDL
MODEL 5
REMARK VINA RESULT:      -8.6      6.022      8.822
REMARK  Name = 
REMARK  4 active torsions:
REMARK  status: ('A' for Active; 'I' for Inactive)
REMARK    1  A    between atoms: C_1  and  O_18
REMARK    2  A    between atoms: C_9  and  C_11
REMARK    3  A    between atoms: O_18  and  C_26
REMARK    4  A    between atoms: C_22  and  C_31
REMARK                            x       y       z     vdW  Elec       q    Type
REMARK                         _______ _______ _______ _____ _____    ______ ____
ROOT
ATOM      1  C   UNL     1     111.089 130.068 142.715  0.00  0.00    +0.000 A 
ATOM      2  C   UNL     1     111.123 130.841 142.079  0.00  0.00    +0.000 A 
ATOM      3  C   UNL     1     111.367 131.753 142.414  0.00  0.00    +0.000 A 
ATOM      4  C   UNL     1     111.298 130.204 143.681  0.00  0.00    +0.000 A 
ATOM      5  C   UNL     1     111.541 131.110 144.019  0.00  0.00    +0.000 A 
ATOM      6  C   UNL     1     111.575 131.885 143.382  0.00  0.00    +0.000 A 
ATOM      7  C   UNL     1     111.818 132.795 143.714  0.00  0.00    +0.000 C 
ATOM      8  C   UNL     1     112.028 132.938 144.685  0.00  0.00    +0.000 C 
ATOM      9  C   UNL     1     111.994 132.162 145.322  0.00  0.00    +0.000 C 
ATOM     10  O   UNL     1     111.750 131.245 144.989  0.00  0.00    +0.000 OA
ATOM     11  O   UNL     1     111.402 132.526 141.782  0.00  0.00    +0.000 OA
ATOM     12  O   UNL     1     111.851 133.566 143.078  0.00  0.00    +0.000 OA
ATOM     13  O   UNL     1     112.271 133.848 145.017  0.00  0.00    +0.000 OA
ENDROOT
BRANCH   9  14
ATOM     14  C   UNL     1     112.203 132.303 146.286  0.00  0.00    +0.000 A 
ATOM     15  C   UNL     1     111.538 132.748 146.887  0.00  0.00    +0.000 A 
ATOM     16  C   UNL     1     111.754 132.886 147.852  0.00  0.00    +0.000 A 
ATOM     17  C   UNL     1     112.632 132.580 148.216  0.00  0.00    +0.000 A 
ATOM     18  C   UNL     1     113.296 132.134 147.609  0.00  0.00    +0.000 A 
ATOM     19  C   UNL     1     113.077 131.998 146.647  0.00  0.00    +0.000 A 
ATOM     20  O   UNL     1     112.849 132.718 149.182  0.00  0.00    +0.000 OA
ENDBRANCH   9  14
BRANCH   1  21
ATOM     21  O   UNL     1     110.846 129.157 142.381  0.00  0.00    +0.000 OA
BRANCH  21  26
ATOM     22  C   UNL     1     109.398 127.060 141.701  0.00  0.00    +0.000 C 
ATOM     23  C   UNL     1     110.109 126.432 141.380  0.00  0.00    +0.000 C 
ATOM     24  C   UNL     1     111.063 126.716 141.394  0.00  0.00    +0.000 C 
ATOM     25  C   UNL     1     111.315 127.621 141.725  0.00  0.00    +0.000 C 
ATOM     26  C   UNL     1     110.603 128.248 142.046  0.00  0.00    +0.000 C 
ATOM     27  O   UNL     1     109.643 127.971 142.036  0.00  0.00    +0.000 OA
ATOM     28  O   UNL     1     109.854 125.524 141.047  0.00  0.00    +0.000 OA
ATOM     29  O   UNL     1     111.767 126.081 141.070  0.00  0.00    +0.000 OA
ATOM     30  O   UNL     1     112.275 127.901 141.738  0.00  0.00    +0.000 OA
BRANCH  22  31
ATOM     31  C   UNL     1     108.439 126.775 141.687  0.00  0.00    +0.000 C 
ATOM     32  O   UNL     1     107.732 127.379 142.059  0.00  0.00    +0.000 OA
ENDBRANCH  22  31
ENDBRANCH  21  26
ENDBRANCH   1  21
TORSDOF 4
ENDMDL
MODEL 6
REMARK VINA RESULT:      -8.5      5.328      8.446
REMARK  Name = 
REMARK  4 active torsions:
REMARK  status: ('A' for Active; 'I' for Inactive)
REMARK    1  A    between atoms: C_1  and  O_18
REMARK    2  A    between atoms: C_9  and  C_11
REMARK    3  A    between atoms: O_18  and  C_26
REMARK    4  A    between atoms: C_22  and  C_31
REMARK                            x       y       z     vdW  Elec       q    Type
REMARK                         _______ _______ _______ _____ _____    ______ ____
ROOT
ATOM      1  C   UNL     1     109.838 130.703 142.909  0.00  0.00    +0.000 A 
ATOM      2  C   UNL     1     110.521 130.924 142.211  0.00  0.00    +0.000 A 
ATOM      3  C   UNL     1     111.366 131.394 142.471  0.00  0.00    +0.000 A 
ATOM      4  C   UNL     1     109.996 130.950 143.863  0.00  0.00    +0.000 A 
ATOM      5  C   UNL     1     110.837 131.419 144.126  0.00  0.00    +0.000 A 
ATOM      6  C   UNL     1     111.522 131.640 143.427  0.00  0.00    +0.000 A 
ATOM      7  C   UNL     1     112.366 132.109 143.684  0.00  0.00    +0.000 C 
ATOM      8  C   UNL     1     112.530 132.360 144.642  0.00  0.00    +0.000 C 
ATOM      9  C   UNL     1     111.844 132.139 145.341  0.00  0.00    +0.000 C 
ATOM     10  O   UNL     1     110.995 131.667 145.083  0.00  0.00    +0.000 OA
ATOM     11  O   UNL     1     112.051 131.615 141.777  0.00  0.00    +0.000 OA
ATOM     12  O   UNL     1     113.048 132.329 142.986  0.00  0.00    +0.000 OA
ATOM     13  O   UNL     1     113.374 132.829 144.898  0.00  0.00    +0.000 OA
ENDROOT
BRANCH   9  14
ATOM     14  C   UNL     1     112.008 132.388 146.292  0.00  0.00    +0.000 A 
ATOM     15  C   UNL     1     111.430 133.071 146.741  0.00  0.00    +0.000 A 
ATOM     16  C   UNL     1     111.599 133.316 147.694  0.00  0.00    +0.000 A 
ATOM     17  C   UNL     1     112.343 132.880 148.197  0.00  0.00    +0.000 A 
ATOM     18  C   UNL     1     112.920 132.195 147.742  0.00  0.00    +0.000 A 
ATOM     19  C   UNL     1     112.749 131.953 146.791  0.00  0.00    +0.000 A 
ATOM     20  O   UNL     1     112.514 133.124 149.151  0.00  0.00    +0.000 OA
ENDBRANCH   9  14
BRANCH   1  21
ATOM     21  O   UNL     1     108.994 130.233 142.650  0.00  0.00    +0.000 OA
BRANCH  21  26
ATOM     22  C   UNL     1     107.248 128.301 142.231  0.00  0.00    +0.000 C 
ATOM     23  C   UNL     1     106.470 128.819 141.874  0.00  0.00    +0.000 C 
ATOM     24  C   UNL     1     106.537 129.808 141.776  0.00  0.00    +0.000 C 
ATOM     25  C   UNL     1     107.373 130.284 142.032  0.00  0.00    +0.000 C 
ATOM     26  C   UNL     1     108.151 129.765 142.390  0.00  0.00    +0.000 C 
ATOM     27  O   UNL     1     108.092 128.771 142.491  0.00  0.00    +0.000 OA
ATOM     28  O   UNL     1     105.631 128.339 141.617  0.00  0.00    +0.000 OA
ATOM     29  O   UNL     1     105.753 130.318 141.417  0.00  0.00    +0.000 OA
ATOM     30  O   UNL     1     107.435 131.277 141.933  0.00  0.00    +0.000 OA
BRANCH  22  31
ATOM     31  C   UNL     1     107.182 127.307 142.330  0.00  0.00    +0.000 C 
ATOM     32  O   UNL     1     107.817 126.819 142.930  0.00  0.00    +0.000 OA
ENDBRANCH  22  31
ENDBRANCH  21  26
ENDBRANCH   1  21
TORSDOF 4
ENDMDL
MODEL 7
REMARK VINA RESULT:      -8.5      7.496      9.678
REMARK  Name = 
REMARK  4 active torsions:
REMARK  status: ('A' for Active; 'I' for Inactive)
REMARK    1  A    between atoms: C_1  and  O_18
REMARK    2  A    between atoms: C_9  and  C_11
REMARK    3  A    between atoms: O_18  and  C_26
REMARK    4  A    between atoms: C_22  and  C_31
REMARK                            x       y       z     vdW  Elec       q    Type
REMARK                         _______ _______ _______ _____ _____    ______ ____
ROOT
ATOM      1  C   UNL     1     111.070 128.415 140.667  0.00  0.00    +0.000 A 
ATOM      2  C   UNL     1     110.144 128.100 140.451  0.00  0.00    +0.000 A 
ATOM      3  C   UNL     1     109.999 127.453 139.700  0.00  0.00    +0.000 A 
ATOM      4  C   UNL     1     111.848 128.086 140.137  0.00  0.00    +0.000 A 
ATOM      5  C   UNL     1     111.709 127.442 139.389  0.00  0.00    +0.000 A 
ATOM      6  C   UNL     1     110.781 127.125 139.171  0.00  0.00    +0.000 A 
ATOM      7  C   UNL     1     110.635 126.480 138.423  0.00  0.00    +0.000 C 
ATOM      8  C   UNL     1     111.414 126.146 137.886  0.00  0.00    +0.000 C 
ATOM      9  C   UNL     1     112.342 126.463 138.104  0.00  0.00    +0.000 C 
ATOM     10  O   UNL     1     112.491 127.112 138.857  0.00  0.00    +0.000 OA
ATOM     11  O   UNL     1     109.077 127.137 139.482  0.00  0.00    +0.000 OA
ATOM     12  O   UNL     1     109.710 126.167 138.208  0.00  0.00    +0.000 OA
ATOM     13  O   UNL     1     111.267 125.501 137.138  0.00  0.00    +0.000 OA
ENDROOT
BRANCH   9  14
ATOM     14  C   UNL     1     113.116 126.131 137.571  0.00  0.00    +0.000 A 
ATOM     15  C   UNL     1     113.603 125.302 137.850  0.00  0.00    +0.000 A 
ATOM     16  C   UNL     1     114.378 124.976 137.312  0.00  0.00    +0.000 A 
ATOM     17  C   UNL     1     114.666 125.476 136.497  0.00  0.00    +0.000 A 
ATOM     18  C   UNL     1     114.175 126.307 136.221  0.00  0.00    +0.000 A 
ATOM     19  C   UNL     1     113.402 126.630 136.761  0.00  0.00    +0.000 A 
ATOM     20  O   UNL     1     115.442 125.150 135.957  0.00  0.00    +0.000 OA
ENDBRANCH   9  14
BRANCH   1  21
ATOM     21  O   UNL     1     111.215 129.061 141.417  0.00  0.00    +0.000 OA
BRANCH  21  26
ATOM     22  C   UNL     1     111.597 130.004 143.851  0.00  0.00    +0.000 C 
ATOM     23  C   UNL     1     111.646 130.987 143.670  0.00  0.00    +0.000 C 
ATOM     24  C   UNL     1     111.551 131.324 142.737  0.00  0.00    +0.000 C 
ATOM     25  C   UNL     1     111.408 130.689 141.984  0.00  0.00    +0.000 C 
ATOM     26  C   UNL     1     111.358 129.706 142.166  0.00  0.00    +0.000 C 
ATOM     27  O   UNL     1     111.453 129.359 143.099  0.00  0.00    +0.000 OA
ATOM     28  O   UNL     1     111.791 131.624 144.427  0.00  0.00    +0.000 OA
ATOM     29  O   UNL     1     111.602 132.310 142.566  0.00  0.00    +0.000 OA
ATOM     30  O   UNL     1     111.313 131.032 141.050  0.00  0.00    +0.000 OA
BRANCH  22  31
ATOM     31  C   UNL     1     111.692 129.664 144.787  0.00  0.00    +0.000 C 
ATOM     32  O   UNL     1     111.681 128.680 144.967  0.00  0.00    +0.000 OA
ENDBRANCH  22  31
ENDBRANCH  21  26
ENDBRANCH   1  21
TORSDOF 4
ENDMDL
MODEL 8
REMARK VINA RESULT:      -8.5      3.871      6.957
REMARK  Name = 
REMARK  4 active torsions:
REMARK  status: ('A' for Active; 'I' for Inactive)
REMARK    1  A    between atoms: C_1  and  O_18
REMARK    2  A    between atoms: C_9  and  C_11
REMARK    3  A    between atoms: O_18  and  C_26
REMARK    4  A    between atoms: C_22  and  C_31
REMARK                            x       y       z     vdW  Elec       q    Type
REMARK                         _______ _______ _______ _____ _____    ______ ____
ROOT
ATOM      1  C   UNL     1     107.037 127.456 142.799  0.00  0.00    +0.000 A 
ATOM      2  C   UNL     1     106.547 126.784 142.240  0.00  0.00    +0.000 A 
ATOM      3  C   UNL     1     106.111 125.996 142.676  0.00  0.00    +0.000 A 
ATOM      4  C   UNL     1     107.092 127.342 143.789  0.00  0.00    +0.000 A 
ATOM      5  C   UNL     1     106.658 126.558 144.227  0.00  0.00    +0.000 A 
ATOM      6  C   UNL     1     106.167 125.884 143.668  0.00  0.00    +0.000 A 
ATOM      7  C   UNL     1     105.731 125.097 144.101  0.00  0.00    +0.000 C 
ATOM      8  C   UNL     1     105.782 124.977 145.096  0.00  0.00    +0.000 C 
ATOM      9  C   UNL     1     106.273 125.651 145.655  0.00  0.00    +0.000 C 
ATOM     10  O   UNL     1     106.713 126.444 145.220  0.00  0.00    +0.000 OA
ATOM     11  O   UNL     1     105.621 125.324 142.122  0.00  0.00    +0.000 OA
ATOM     12  O   UNL     1     105.242 124.427 143.543  0.00  0.00    +0.000 OA
ATOM     13  O   UNL     1     105.346 124.189 145.529  0.00  0.00    +0.000 OA
ENDROOT
BRANCH   9  14
ATOM     14  C   UNL     1     106.325 125.532 146.643  0.00  0.00    +0.000 A 
ATOM     15  C   UNL     1     105.567 125.826 147.227  0.00  0.00    +0.000 A 
ATOM     16  C   UNL     1     105.625 125.704 148.216  0.00  0.00    +0.000 A 
ATOM     17  C   UNL     1     106.438 125.289 148.622  0.00  0.00    +0.000 A 
ATOM     18  C   UNL     1     107.196 124.996 148.032  0.00  0.00    +0.000 A 
ATOM     19  C   UNL     1     107.135 125.119 147.045  0.00  0.00    +0.000 A 
ATOM     20  O   UNL     1     106.498 125.167 149.612  0.00  0.00    +0.000 OA
ENDBRANCH   9  14
BRANCH   1  21
ATOM     21  O   UNL     1     107.473 128.244 142.364  0.00  0.00    +0.000 OA
BRANCH  21  26
ATOM     22  C   UNL     1     109.337 129.930 141.563  0.00  0.00    +0.000 C 
ATOM     23  C   UNL     1     108.787 130.600 141.063  0.00  0.00    +0.000 C 
ATOM     24  C   UNL     1     107.801 130.482 140.998  0.00  0.00    +0.000 C 
ATOM     25  C   UNL     1     107.358 129.701 141.428  0.00  0.00    +0.000 C 
ATOM     26  C   UNL     1     107.909 129.031 141.929  0.00  0.00    +0.000 C 
ATOM     27  O   UNL     1     108.900 129.142 141.998  0.00  0.00    +0.000 OA
ATOM     28  O   UNL     1     109.234 131.384 140.631  0.00  0.00    +0.000 OA
ATOM     29  O   UNL     1     107.258 131.158 140.495  0.00  0.00    +0.000 OA
ATOM     30  O   UNL     1     106.367 129.586 141.361  0.00  0.00    +0.000 OA
BRANCH  22  31
ATOM     31  C   UNL     1     110.329 130.049 141.628  0.00  0.00    +0.000 C 
ATOM     32  O   UNL     1     110.879 129.391 142.146  0.00  0.00    +0.000 OA
ENDBRANCH  22  31
ENDBRANCH  21  26
ENDBRANCH   1  21
TORSDOF 4
ENDMDL
MODEL 9
REMARK VINA RESULT:      -8.4      7.658      9.244
REMARK  Name = 
REMARK  4 active torsions:
REMARK  status: ('A' for Active; 'I' for Inactive)
REMARK    1  A    between atoms: C_1  and  O_18
REMARK    2  A    between atoms: C_9  and  C_11
REMARK    3  A    between atoms: O_18  and  C_26
REMARK    4  A    between atoms: C_22  and  C_31
REMARK                            x       y       z     vdW  Elec       q    Type
REMARK                         _______ _______ _______ _____ _____    ______ ____
ROOT
ATOM      1  C   UNL     1     111.775 130.492 143.429  0.00  0.00    +0.000 A 
ATOM      2  C   UNL     1     111.592 129.515 143.554  0.00  0.00    +0.000 A 
ATOM      3  C   UNL     1     111.718 128.882 142.788  0.00  0.00    +0.000 A 
ATOM      4  C   UNL     1     112.082 130.836 142.544  0.00  0.00    +0.000 A 
ATOM      5  C   UNL     1     112.208 130.209 141.779  0.00  0.00    +0.000 A 
ATOM      6  C   UNL     1     112.026 129.230 141.903  0.00  0.00    +0.000 A 
ATOM      7  C   UNL     1     112.151 128.597 141.141  0.00  0.00    +0.000 C 
ATOM      8  C   UNL     1     112.459 128.938 140.249  0.00  0.00    +0.000 C 
ATOM      9  C   UNL     1     112.642 129.917 140.125  0.00  0.00    +0.000 C 
ATOM     10  O   UNL     1     112.516 130.555 140.891  0.00  0.00    +0.000 OA
ATOM     11  O   UNL     1     111.537 127.907 142.909  0.00  0.00    +0.000 OA
ATOM     12  O   UNL     1     111.968 127.622 141.267  0.00  0.00    +0.000 OA
ATOM     13  O   UNL     1     112.584 128.304 139.487  0.00  0.00    +0.000 OA
ENDROOT
BRANCH   9  14
ATOM     14  C   UNL     1     112.948 130.256 139.239  0.00  0.00    +0.000 A 
ATOM     15  C   UNL     1     112.281 130.526 138.544  0.00  0.00    +0.000 A 
ATOM     16  C   UNL     1     112.595 130.864 137.659  0.00  0.00    +0.000 A 
ATOM     17  C   UNL     1     113.573 130.933 137.468  0.00  0.00    +0.000 A 
ATOM     18  C   UNL     1     114.238 130.661 138.169  0.00  0.00    +0.000 A 
ATOM     19  C   UNL     1     113.922 130.323 139.051  0.00  0.00    +0.000 A 
ATOM     20  O   UNL     1     113.889 131.272 136.582  0.00  0.00    +0.000 OA
ENDBRANCH   9  14
BRANCH   1  21
ATOM     21  O   UNL     1     111.649 131.125 144.193  0.00  0.00    +0.000 OA
BRANCH  21  26
ATOM     22  C   UNL     1     112.094 132.432 146.441  0.00  0.00    +0.000 C 
ATOM     23  C   UNL     1     111.283 133.015 146.487  0.00  0.00    +0.000 C 
ATOM     24  C   UNL     1     110.595 132.966 145.768  0.00  0.00    +0.000 C 
ATOM     25  C   UNL     1     110.711 132.340 145.003  0.00  0.00    +0.000 C 
ATOM     26  C   UNL     1     111.524 131.756 144.957  0.00  0.00    +0.000 C 
ATOM     27  O   UNL     1     112.218 131.800 145.675  0.00  0.00    +0.000 OA
ATOM     28  O   UNL     1     111.168 133.644 147.257  0.00  0.00    +0.000 OA
ATOM     29  O   UNL     1     109.786 133.554 145.823  0.00  0.00    +0.000 OA
ATOM     30  O   UNL     1     110.019 132.294 144.283  0.00  0.00    +0.000 OA
BRANCH  22  31
ATOM     31  C   UNL     1     112.785 132.481 147.163  0.00  0.00    +0.000 C 
ATOM     32  O   UNL     1     113.702 132.110 147.007  0.00  0.00    +0.000 OA
ENDBRANCH  22  31
ENDBRANCH  21  26
ENDBRANCH   1  21
TORSDOF 4
ENDMDL
MODEL 10
REMARK VINA RESULT:      -8.4      8.097     10.181
REMARK  Name = 
REMARK  4 active torsions:
REMARK  status: ('A' for Active; 'I' for Inactive)
REMARK    1  A    between atoms: C_1  and  O_18
REMARK    2  A    between atoms: C_9  and  C_11
REMARK    3  A    between atoms: O_18  and  C_26
REMARK    4  A    between atoms: C_22  and  C_31
REMARK                            x       y       z     vdW  Elec       q    Type
REMARK                         _______ _______ _______ _____ _____    ______ ____
ROOT
ATOM      1  C   UNL     1     112.640 129.424 140.171  0.00  0.00    +0.000 A 
ATOM      2  C   UNL     1     113.081 130.100 139.576  0.00  0.00    +0.000 A 
ATOM      3  C   UNL     1     113.316 129.858 138.634  0.00  0.00    +0.000 A 
ATOM      4  C   UNL     1     112.435 128.511 139.826  0.00  0.00    +0.000 A 
ATOM      5  C   UNL     1     112.668 128.265 138.888  0.00  0.00    +0.000 A 
ATOM      6  C   UNL     1     113.109 128.942 138.291  0.00  0.00    +0.000 A 
ATOM      7  C   UNL     1     113.344 128.702 137.351  0.00  0.00    +0.000 C 
ATOM      8  C   UNL     1     113.140 127.785 136.999  0.00  0.00    +0.000 C 
ATOM      9  C   UNL     1     112.698 127.108 137.595  0.00  0.00    +0.000 C 
ATOM     10  O   UNL     1     112.461 127.348 138.543  0.00  0.00    +0.000 OA
ATOM     11  O   UNL     1     113.755 130.529 138.038  0.00  0.00    +0.000 OA
ATOM     12  O   UNL     1     113.783 129.377 136.758  0.00  0.00    +0.000 OA
ATOM     13  O   UNL     1     113.375 127.545 136.058  0.00  0.00    +0.000 OA
ENDROOT
BRANCH   9  14
ATOM     14  C   UNL     1     112.496 126.197 137.246  0.00  0.00    +0.000 A 
ATOM     15  C   UNL     1     113.166 125.460 137.340  0.00  0.00    +0.000 A 
ATOM     16  C   UNL     1     112.956 124.549 136.988  0.00  0.00    +0.000 A 
ATOM     17  C   UNL     1     112.079 124.375 136.543  0.00  0.00    +0.000 A 
ATOM     18  C   UNL     1     111.410 125.119 136.452  0.00  0.00    +0.000 A 
ATOM     19  C   UNL     1     111.622 126.026 136.804  0.00  0.00    +0.000 A 
ATOM     20  O   UNL     1     111.868 123.464 136.190  0.00  0.00    +0.000 OA
ENDBRANCH   9  14
BRANCH   1  21
ATOM     21  O   UNL     1     112.406 129.666 141.112  0.00  0.00    +0.000 OA
BRANCH  21  26
ATOM     22  C   UNL     1     111.897 131.117 143.256  0.00  0.00    +0.000 C 
ATOM     23  C   UNL     1     111.704 130.402 143.929  0.00  0.00    +0.000 C 
ATOM     24  C   UNL     1     111.745 129.444 143.661  0.00  0.00    +0.000 C 
ATOM     25  C   UNL     1     111.978 129.193 142.726  0.00  0.00    +0.000 C 
ATOM     26  C   UNL     1     112.171 129.908 142.053  0.00  0.00    +0.000 C 
ATOM     27  O   UNL     1     112.132 130.873 142.314  0.00  0.00    +0.000 OA
ATOM     28  O   UNL     1     111.470 130.657 144.868  0.00  0.00    +0.000 OA
ATOM     29  O   UNL     1     111.550 128.736 144.342  0.00  0.00    +0.000 OA
ATOM     30  O   UNL     1     112.019 128.230 142.461  0.00  0.00    +0.000 OA
BRANCH  22  31
ATOM     31  C   UNL     1     111.856 132.080 143.525  0.00  0.00    +0.000 C 
ATOM     32  O   UNL     1     111.761 132.792 142.828  0.00  0.00    +0.000 OA
ENDBRANCH  22  31
ENDBRANCH  21  26
ENDBRANCH   1  21
TORSDOF 4
ENDMDL
