MODEL 1
REMARK VINA RESULT:     -10.2      0.000      0.000
REMARK  Name = 131752854
REMARK  7 active torsions:
REMARK  status: ('A' for Active; 'I' for Inactive)
REMARK    1  A    between atoms: O_2  and  C_20
REMARK    2  A    between atoms: O_2  and  C_26
REMARK    3  A    between atoms: O_7  and  C_27
REMARK    4  A    between atoms: O_7  and  C_35
REMARK    5  A    between atoms: C_21  and  C_29
REMARK    6  A    between atoms: C_25  and  C_31
REMARK    7  A    between atoms: C_28  and  C_34
REMARK                            x       y       z     vdW  Elec       q    Type
REMARK                         _______ _______ _______ _____ _____    ______ ____
ROOT
ATOM      1  O   UNL     1     113.508 126.240 138.673  0.00  0.00    +0.000 OA
ATOM      2  O   UNL     1     111.108 125.800 138.252  0.00  0.00    +0.000 OA
ATOM      3  O   UNL     1     110.749 126.386 139.521  0.00  0.00    +0.000 OA
ATOM      4  C   UNL     1     112.472 125.728 137.831  0.00  0.00    +0.000 C 
ATOM      5  C   UNL     1     113.272 125.875 137.972  0.00  0.00    +0.000 C 
ATOM      6  C   UNL     1     111.909 125.947 138.392  0.00  0.00    +0.000 C 
ATOM      7  C   UNL     1     112.145 126.313 139.093  0.00  0.00    +0.000 A 
ATOM      8  C   UNL     1     112.944 126.459 139.233  0.00  0.00    +0.000 A 
ATOM      9  C   UNL     1     112.620 127.070 140.548  0.00  0.00    +0.000 A 
ATOM     10  C   UNL     1     113.202 126.839 139.959  0.00  0.00    +0.000 A 
ATOM     11  C   UNL     1     111.547 126.536 139.670  0.00  0.00    +0.000 A 
ATOM     12  C   UNL     1     111.786 126.917 140.402  0.00  0.00    +0.000 A 
ENDROOT
BRANCH   5  14
ATOM     13  O   UNL     1     115.526 124.995 135.728  0.00  0.00    +0.000 OA
ATOM     14  C   UNL     1     113.836 125.655 137.411  0.00  0.00    +0.000 A 
ATOM     15  C   UNL     1     114.168 126.224 136.914  0.00  0.00    +0.000 A 
ATOM     16  C   UNL     1     114.068 124.865 137.346  0.00  0.00    +0.000 A 
ATOM     17  C   UNL     1     114.731 126.004 136.353  0.00  0.00    +0.000 A 
ATOM     18  C   UNL     1     114.631 124.646 136.785  0.00  0.00    +0.000 A 
ATOM     19  C   UNL     1     114.963 125.215 136.288  0.00  0.00    +0.000 A 
ENDBRANCH   5  14
BRANCH   4  20
ATOM     20  O   UNL     1     112.236 125.362 137.130  0.00  0.00    +0.000 OA
BRANCH  20  28
ATOM     21  O   UNL     1     111.728 126.569 136.559  0.00  0.00    +0.000 OA
ATOM     22  O   UNL     1     110.123 125.254 135.210  0.00  0.00    +0.000 OA
ATOM     23  O   UNL     1     111.166 124.485 136.231  0.00  0.00    +0.000 OA
ATOM     24  O   UNL     1     110.149 126.900 135.088  0.00  0.00    +0.000 OA
ATOM     25  C   UNL     1     110.658 125.692 135.660  0.00  0.00    +0.000 C 
ATOM     26  C   UNL     1     111.180 125.308 136.171  0.00  0.00    +0.000 C 
ATOM     27  C   UNL     1     110.671 126.515 135.599  0.00  0.00    +0.000 C 
ATOM     28  C   UNL     1     111.715 125.746 136.620  0.00  0.00    +0.000 C 
ATOM     29  C   UNL     1     111.206 126.953 136.049  0.00  0.00    +0.000 C 
BRANCH  29  31
ATOM     30  O   UNL     1     111.891 128.159 135.704  0.00  0.00    +0.000 OA
ATOM     31  C   UNL     1     111.219 127.776 135.988  0.00  0.00    +0.000 C 
ENDBRANCH  29  31
ENDBRANCH  20  28
ENDBRANCH   4  20
BRANCH   9  32
ATOM     32  O   UNL     1     112.859 127.436 141.248  0.00  0.00    +0.000 OA
BRANCH  32  41
ATOM     33  O   UNL     1     113.229 128.718 140.736  0.00  0.00    +0.000 OA
ATOM     34  O   UNL     1     112.063 129.808 142.628  0.00  0.00    +0.000 OA
ATOM     35  O   UNL     1     112.821 130.727 141.486  0.00  0.00    +0.000 OA
ATOM     36  O   UNL     1     112.081 128.163 142.509  0.00  0.00    +0.000 OA
ATOM     37  C   UNL     1     112.451 129.445 141.997  0.00  0.00    +0.000 C 
ATOM     38  C   UNL     1     112.831 129.904 141.426  0.00  0.00    +0.000 C 
ATOM     39  C   UNL     1     112.461 128.622 141.938  0.00  0.00    +0.000 C 
ATOM     40  C   UNL     1     113.219 129.541 140.796  0.00  0.00    +0.000 C 
ATOM     41  C   UNL     1     112.849 128.259 141.307  0.00  0.00    +0.000 C 
BRANCH  40  43
ATOM     42  O   UNL     1     114.401 129.889 140.073  0.00  0.00    +0.000 OA
ATOM     43  C   UNL     1     113.598 130.000 140.226  0.00  0.00    +0.000 C 
ENDBRANCH  40  43
ENDBRANCH  32  41
ENDBRANCH   9  32
TORSDOF 7
ENDMDL
MODEL 2
REMARK VINA RESULT:     -10.0      1.228      2.621
REMARK  Name = 131752854
REMARK  7 active torsions:
REMARK  status: ('A' for Active; 'I' for Inactive)
REMARK    1  A    between atoms: O_2  and  C_20
REMARK    2  A    between atoms: O_2  and  C_26
REMARK    3  A    between atoms: O_7  and  C_27
REMARK    4  A    between atoms: O_7  and  C_35
REMARK    5  A    between atoms: C_21  and  C_29
REMARK    6  A    between atoms: C_25  and  C_31
REMARK    7  A    between atoms: C_28  and  C_34
REMARK                            x       y       z     vdW  Elec       q    Type
REMARK                         _______ _______ _______ _____ _____    ______ ____
ROOT
ATOM      1  O   UNL     1     113.013 128.221 138.294  0.00  0.00    +0.000 OA
ATOM      2  O   UNL     1     112.113 125.994 138.891  0.00  0.00    +0.000 OA
ATOM      3  O   UNL     1     112.521 126.165 140.264  0.00  0.00    +0.000 OA
ATOM      4  C   UNL     1     112.356 127.010 137.916  0.00  0.00    +0.000 C 
ATOM      5  C   UNL     1     112.656 127.753 137.717  0.00  0.00    +0.000 C 
ATOM      6  C   UNL     1     112.413 126.737 138.692  0.00  0.00    +0.000 C 
ATOM      7  C   UNL     1     112.770 127.205 139.269  0.00  0.00    +0.000 A 
ATOM      8  C   UNL     1     113.070 127.947 139.071  0.00  0.00    +0.000 A 
ATOM      9  C   UNL     1     113.508 128.166 140.473  0.00  0.00    +0.000 A 
ATOM     10  C   UNL     1     113.445 128.444 139.663  0.00  0.00    +0.000 A 
ATOM     11  C   UNL     1     112.824 126.909 140.074  0.00  0.00    +0.000 A 
ATOM     12  C   UNL     1     113.195 127.392 140.680  0.00  0.00    +0.000 A 
ENDROOT
BRANCH   5  14
ATOM     13  O   UNL     1     112.424 128.845 134.613  0.00  0.00    +0.000 OA
ATOM     14  C   UNL     1     112.599 128.026 136.941  0.00  0.00    +0.000 A 
ATOM     15  C   UNL     1     113.272 128.067 136.466  0.00  0.00    +0.000 A 
ATOM     16  C   UNL     1     111.866 128.258 136.639  0.00  0.00    +0.000 A 
ATOM     17  C   UNL     1     113.213 128.340 135.690  0.00  0.00    +0.000 A 
ATOM     18  C   UNL     1     111.809 128.532 135.863  0.00  0.00    +0.000 A 
ATOM     19  C   UNL     1     112.482 128.572 135.388  0.00  0.00    +0.000 A 
ENDBRANCH   5  14
BRANCH   4  20
ATOM     20  O   UNL     1     111.998 126.541 137.339  0.00  0.00    +0.000 OA
BRANCH  20  28
ATOM     21  O   UNL     1     113.100 125.638 137.222  0.00  0.00    +0.000 OA
ATOM     22  O   UNL     1     111.537 123.808 136.643  0.00  0.00    +0.000 OA
ATOM     23  O   UNL     1     110.957 125.321 136.952  0.00  0.00    +0.000 OA
ATOM     24  O   UNL     1     113.159 123.515 136.719  0.00  0.00    +0.000 OA
ATOM     25  C   UNL     1     112.058 124.418 136.836  0.00  0.00    +0.000 C 
ATOM     26  C   UNL     1     111.768 125.175 136.991  0.00  0.00    +0.000 C 
ATOM     27  C   UNL     1     112.869 124.272 136.874  0.00  0.00    +0.000 C 
ATOM     28  C   UNL     1     112.289 125.785 137.184  0.00  0.00    +0.000 C 
ATOM     29  C   UNL     1     113.390 124.882 137.067  0.00  0.00    +0.000 C 
BRANCH  29  31
ATOM     30  O   UNL     1     114.718 125.140 136.608  0.00  0.00    +0.000 OA
ATOM     31  C   UNL     1     114.201 124.735 137.105  0.00  0.00    +0.000 C 
ENDBRANCH  29  31
ENDBRANCH  20  28
ENDBRANCH   4  20
BRANCH   9  32
ATOM     32  O   UNL     1     113.865 128.636 141.048  0.00  0.00    +0.000 OA
BRANCH  32  41
ATOM     33  O   UNL     1     112.727 129.225 141.681  0.00  0.00    +0.000 OA
ATOM     34  O   UNL     1     113.793 131.453 141.525  0.00  0.00    +0.000 OA
ATOM     35  O   UNL     1     112.300 131.300 142.209  0.00  0.00    +0.000 OA
ATOM     36  O   UNL     1     114.576 130.122 140.944  0.00  0.00    +0.000 OA
ATOM     37  C   UNL     1     113.437 130.711 141.577  0.00  0.00    +0.000 C 
ATOM     38  C   UNL     1     112.691 130.633 141.919  0.00  0.00    +0.000 C 
ATOM     39  C   UNL     1     113.829 130.045 141.286  0.00  0.00    +0.000 C 
ATOM     40  C   UNL     1     112.336 129.891 141.971  0.00  0.00    +0.000 C 
ATOM     41  C   UNL     1     113.474 129.302 141.339  0.00  0.00    +0.000 C 
BRANCH  40  43
ATOM     42  O   UNL     1     111.446 129.212 142.859  0.00  0.00    +0.000 OA
ATOM     43  C   UNL     1     111.589 129.814 142.313  0.00  0.00    +0.000 C 
ENDBRANCH  40  43
ENDBRANCH  32  41
ENDBRANCH   9  32
TORSDOF 7
ENDMDL
MODEL 3
REMARK VINA RESULT:     -10.0      1.718      5.885
REMARK  Name = 131752854
REMARK  7 active torsions:
REMARK  status: ('A' for Active; 'I' for Inactive)
REMARK    1  A    between atoms: O_2  and  C_20
REMARK    2  A    between atoms: O_2  and  C_26
REMARK    3  A    between atoms: O_7  and  C_27
REMARK    4  A    between atoms: O_7  and  C_35
REMARK    5  A    between atoms: C_21  and  C_29
REMARK    6  A    between atoms: C_25  and  C_31
REMARK    7  A    between atoms: C_28  and  C_34
REMARK                            x       y       z     vdW  Elec       q    Type
REMARK                         _______ _______ _______ _____ _____    ______ ____
ROOT
ATOM      1  O   UNL     1     112.626 128.595 138.310  0.00  0.00    +0.000 OA
ATOM      2  O   UNL     1     114.164 128.697 140.248  0.00  0.00    +0.000 OA
ATOM      3  O   UNL     1     113.968 127.293 140.513  0.00  0.00    +0.000 OA
ATOM      4  C   UNL     1     113.501 129.343 139.159  0.00  0.00    +0.000 C 
ATOM      5  C   UNL     1     112.988 129.309 138.513  0.00  0.00    +0.000 C 
ATOM      6  C   UNL     1     113.651 128.663 139.602  0.00  0.00    +0.000 C 
ATOM      7  C   UNL     1     113.289 127.950 139.399  0.00  0.00    +0.000 A 
ATOM      8  C   UNL     1     112.777 127.916 138.754  0.00  0.00    +0.000 A 
ATOM      9  C   UNL     1     112.547 126.468 138.990  0.00  0.00    +0.000 A 
ATOM     10  C   UNL     1     112.395 127.179 138.533  0.00  0.00    +0.000 A 
ATOM     11  C   UNL     1     113.455 127.249 139.869  0.00  0.00    +0.000 A 
ATOM     12  C   UNL     1     113.081 126.503 139.663  0.00  0.00    +0.000 A 
ENDROOT
BRANCH   5  14
ATOM     13  O   UNL     1     112.389 132.027 136.741  0.00  0.00    +0.000 OA
ATOM     14  C   UNL     1     112.838 129.988 138.070  0.00  0.00    +0.000 A 
ATOM     15  C   UNL     1     112.107 130.367 138.129  0.00  0.00    +0.000 A 
ATOM     16  C   UNL     1     113.419 130.290 137.568  0.00  0.00    +0.000 A 
ATOM     17  C   UNL     1     111.958 131.046 137.686  0.00  0.00    +0.000 A 
ATOM     18  C   UNL     1     113.269 130.969 137.125  0.00  0.00    +0.000 A 
ATOM     19  C   UNL     1     112.538 131.348 137.184  0.00  0.00    +0.000 A 
ENDBRANCH   5  14
BRANCH   4  20
ATOM     20  O   UNL     1     113.862 130.056 139.362  0.00  0.00    +0.000 OA
BRANCH  20  28
ATOM     21  O   UNL     1     113.022 130.303 140.491  0.00  0.00    +0.000 OA
ATOM     22  O   UNL     1     114.885 131.476 141.622  0.00  0.00    +0.000 OA
ATOM     23  O   UNL     1     115.104 130.838 140.116  0.00  0.00    +0.000 OA
ATOM     24  O   UNL     1     113.423 131.331 142.374  0.00  0.00    +0.000 OA
ATOM     25  C   UNL     1     114.264 131.085 141.245  0.00  0.00    +0.000 C 
ATOM     26  C   UNL     1     114.373 130.766 140.491  0.00  0.00    +0.000 C 
ATOM     27  C   UNL     1     113.533 131.012 141.620  0.00  0.00    +0.000 C 
ATOM     28  C   UNL     1     113.752 130.375 140.114  0.00  0.00    +0.000 C 
ATOM     29  C   UNL     1     112.912 130.621 141.243  0.00  0.00    +0.000 C 
BRANCH  29  31
ATOM     30  O   UNL     1     111.514 130.916 141.301  0.00  0.00    +0.000 OA
ATOM     31  C   UNL     1     112.181 130.550 141.620  0.00  0.00    +0.000 C 
ENDBRANCH  29  31
ENDBRANCH  20  28
ENDBRANCH   4  20
BRANCH   9  32
ATOM     32  O   UNL     1     112.184 125.756 138.785  0.00  0.00    +0.000 OA
BRANCH  32  41
ATOM     33  O   UNL     1     113.243 125.300 137.940  0.00  0.00    +0.000 OA
ATOM     34  O   UNL     1     111.592 124.173 136.481  0.00  0.00    +0.000 OA
ATOM     35  O   UNL     1     113.200 124.092 136.122  0.00  0.00    +0.000 OA
ATOM     36  O   UNL     1     111.084 125.005 137.812  0.00  0.00    +0.000 OA
ATOM     37  C   UNL     1     112.142 124.549 136.967  0.00  0.00    +0.000 C 
ATOM     38  C   UNL     1     112.946 124.509 136.788  0.00  0.00    +0.000 C 
ATOM     39  C   UNL     1     111.888 124.965 137.633  0.00  0.00    +0.000 C 
ATOM     40  C   UNL     1     113.496 124.884 137.274  0.00  0.00    +0.000 C 
ATOM     41  C   UNL     1     112.438 125.340 138.119  0.00  0.00    +0.000 C 
BRANCH  40  43
ATOM     42  O   UNL     1     114.835 124.566 137.658  0.00  0.00    +0.000 OA
ATOM     43  C   UNL     1     114.300 124.844 137.095  0.00  0.00    +0.000 C 
ENDBRANCH  40  43
ENDBRANCH  32  41
ENDBRANCH   9  32
TORSDOF 7
ENDMDL
MODEL 4
REMARK VINA RESULT:      -9.9      2.034      4.814
REMARK  Name = 131752854
REMARK  7 active torsions:
REMARK  status: ('A' for Active; 'I' for Inactive)
REMARK    1  A    between atoms: O_2  and  C_20
REMARK    2  A    between atoms: O_2  and  C_26
REMARK    3  A    between atoms: O_7  and  C_27
REMARK    4  A    between atoms: O_7  and  C_35
REMARK    5  A    between atoms: C_21  and  C_29
REMARK    6  A    between atoms: C_25  and  C_31
REMARK    7  A    between atoms: C_28  and  C_34
REMARK                            x       y       z     vdW  Elec       q    Type
REMARK                         _______ _______ _______ _____ _____    ______ ____
ROOT
ATOM      1  O   UNL     1     112.026 128.265 138.276  0.00  0.00    +0.000 OA
ATOM      2  O   UNL     1     113.767 127.225 136.856  0.00  0.00    +0.000 OA
ATOM      3  O   UNL     1     113.623 128.265 135.867  0.00  0.00    +0.000 OA
ATOM      4  C   UNL     1     112.978 127.223 138.048  0.00  0.00    +0.000 C 
ATOM      5  C   UNL     1     112.397 127.570 138.521  0.00  0.00    +0.000 C 
ATOM      6  C   UNL     1     113.186 127.572 137.330  0.00  0.00    +0.000 C 
ATOM      7  C   UNL     1     112.815 128.266 137.084  0.00  0.00    +0.000 A 
ATOM      8  C   UNL     1     112.235 128.612 137.557  0.00  0.00    +0.000 A 
ATOM      9  C   UNL     1     112.053 129.703 136.566  0.00  0.00    +0.000 A 
ATOM     10  C   UNL     1     111.840 129.335 137.313  0.00  0.00    +0.000 A 
ATOM     11  C   UNL     1     113.041 128.619 136.334  0.00  0.00    +0.000 A 
ATOM     12  C   UNL     1     112.658 129.342 136.073  0.00  0.00    +0.000 A 
ENDROOT
BRANCH   5  14
ATOM     13  O   UNL     1     111.563 126.176 141.393  0.00  0.00    +0.000 OA
ATOM     14  C   UNL     1     112.189 127.222 139.239  0.00  0.00    +0.000 A 
ATOM     15  C   UNL     1     112.711 127.248 139.878  0.00  0.00    +0.000 A 
ATOM     16  C   UNL     1     111.458 126.847 139.319  0.00  0.00    +0.000 A 
ATOM     17  C   UNL     1     112.502 126.899 140.596  0.00  0.00    +0.000 A 
ATOM     18  C   UNL     1     111.250 126.498 140.037  0.00  0.00    +0.000 A 
ATOM     19  C   UNL     1     111.772 126.524 140.675  0.00  0.00    +0.000 A 
ENDBRANCH   5  14
BRANCH   4  20
ATOM     20  O   UNL     1     113.350 126.529 138.293  0.00  0.00    +0.000 OA
BRANCH  20  28
ATOM     21  O   UNL     1     112.644 125.686 137.380  0.00  0.00    +0.000 OA
ATOM     22  O   UNL     1     114.604 124.179 137.256  0.00  0.00    +0.000 OA
ATOM     23  O   UNL     1     114.656 125.524 138.210  0.00  0.00    +0.000 OA
ATOM     24  O   UNL     1     113.245 123.838 136.385  0.00  0.00    +0.000 OA
ATOM     25  C   UNL     1     113.950 124.681 137.297  0.00  0.00    +0.000 C 
ATOM     26  C   UNL     1     113.977 125.355 137.775  0.00  0.00    +0.000 C 
ATOM     27  C   UNL     1     113.271 124.512 136.862  0.00  0.00    +0.000 C 
ATOM     28  C   UNL     1     113.323 125.857 137.816  0.00  0.00    +0.000 C 
ATOM     29  C   UNL     1     112.617 125.014 136.904  0.00  0.00    +0.000 C 
BRANCH  29  31
ATOM     30  O   UNL     1     111.224 124.700 136.854  0.00  0.00    +0.000 OA
ATOM     31  C   UNL     1     111.938 124.843 136.468  0.00  0.00    +0.000 C 
ENDBRANCH  29  31
ENDBRANCH  20  28
ENDBRANCH   4  20
BRANCH   9  32
ATOM     32  O   UNL     1     111.679 130.398 136.323  0.00  0.00    +0.000 OA
BRANCH  32  41
ATOM     33  O   UNL     1     110.704 129.799 135.468  0.00  0.00    +0.000 OA
ATOM     34  O   UNL     1     109.016 131.430 136.251  0.00  0.00    +0.000 OA
ATOM     35  O   UNL     1     108.602 130.288 135.134  0.00  0.00    +0.000 OA
ATOM     36  O   UNL     1     110.554 131.485 136.845  0.00  0.00    +0.000 OA
ATOM     37  C   UNL     1     109.578 130.886 135.990  0.00  0.00    +0.000 C 
ATOM     38  C   UNL     1     109.372 130.315 135.431  0.00  0.00    +0.000 C 
ATOM     39  C   UNL     1     110.347 130.914 136.287  0.00  0.00    +0.000 C 
ATOM     40  C   UNL     1     109.934 129.772 135.171  0.00  0.00    +0.000 C 
ATOM     41  C   UNL     1     110.910 130.370 136.026  0.00  0.00    +0.000 C 
BRANCH  40  43
ATOM     42  O   UNL     1     109.765 128.400 134.808  0.00  0.00    +0.000 OA
ATOM     43  C   UNL     1     109.728 129.200 134.613  0.00  0.00    +0.000 C 
ENDBRANCH  40  43
ENDBRANCH  32  41
ENDBRANCH   9  32
TORSDOF 7
ENDMDL
MODEL 5
REMARK VINA RESULT:      -9.8      7.102      9.468
REMARK  Name = 131752854
REMARK  7 active torsions:
REMARK  status: ('A' for Active; 'I' for Inactive)
REMARK    1  A    between atoms: O_2  and  C_20
REMARK    2  A    between atoms: O_2  and  C_26
REMARK    3  A    between atoms: O_7  and  C_27
REMARK    4  A    between atoms: O_7  and  C_35
REMARK    5  A    between atoms: C_21  and  C_29
REMARK    6  A    between atoms: C_25  and  C_31
REMARK    7  A    between atoms: C_28  and  C_34
REMARK                            x       y       z     vdW  Elec       q    Type
REMARK                         _______ _______ _______ _____ _____    ______ ____
ROOT
ATOM      1  O   UNL     1     105.021 127.560 142.724  0.00  0.00    +0.000 OA
ATOM      2  O   UNL     1     107.295 128.236 142.015  0.00  0.00    +0.000 OA
ATOM      3  O   UNL     1     107.840 126.977 142.464  0.00  0.00    +0.000 OA
ATOM      4  C   UNL     1     105.901 128.525 142.143  0.00  0.00    +0.000 C 
ATOM      5  C   UNL     1     105.143 128.299 142.380  0.00  0.00    +0.000 C 
ATOM      6  C   UNL     1     106.536 128.010 142.252  0.00  0.00    +0.000 C 
ATOM      7  C   UNL     1     106.414 127.270 142.596  0.00  0.00    +0.000 A 
ATOM      8  C   UNL     1     105.657 127.046 142.832  0.00  0.00    +0.000 A 
ATOM      9  C   UNL     1     106.175 125.738 143.308  0.00  0.00    +0.000 A 
ATOM     10  C   UNL     1     105.518 126.278 143.192  0.00  0.00    +0.000 A 
ATOM     11  C   UNL     1     107.085 126.744 142.704  0.00  0.00    +0.000 A 
ATOM     12  C   UNL     1     106.965 125.972 143.062  0.00  0.00    +0.000 A 
ENDROOT
BRANCH   5  14
ATOM     13  O   UNL     1     102.602 130.358 141.943  0.00  0.00    +0.000 OA
ATOM     14  C   UNL     1     104.508 128.814 142.271  0.00  0.00    +0.000 A 
ATOM     15  C   UNL     1     104.209 129.243 142.910  0.00  0.00    +0.000 A 
ATOM     16  C   UNL     1     104.170 128.900 141.522  0.00  0.00    +0.000 A 
ATOM     17  C   UNL     1     103.574 129.758 142.800  0.00  0.00    +0.000 A 
ATOM     18  C   UNL     1     103.535 129.415 141.414  0.00  0.00    +0.000 A 
ATOM     19  C   UNL     1     103.237 129.844 142.053  0.00  0.00    +0.000 A 
ENDBRANCH   5  14
BRANCH   4  20
ATOM     20  O   UNL     1     106.023 129.265 141.799  0.00  0.00    +0.000 OA
BRANCH  20  28
ATOM     21  O   UNL     1     106.640 129.845 142.949  0.00  0.00    +0.000 OA
ATOM     22  O   UNL     1     108.053 131.251 141.483  0.00  0.00    +0.000 OA
ATOM     23  O   UNL     1     106.965 130.202 140.821  0.00  0.00    +0.000 OA
ATOM     24  O   UNL     1     108.198 131.363 143.123  0.00  0.00    +0.000 OA
ATOM     25  C   UNL     1     107.582 130.783 141.972  0.00  0.00    +0.000 C 
ATOM     26  C   UNL     1     107.037 130.257 141.641  0.00  0.00    +0.000 C 
ATOM     27  C   UNL     1     107.654 130.838 142.791  0.00  0.00    +0.000 C 
ATOM     28  C   UNL     1     106.566 129.789 142.129  0.00  0.00    +0.000 C 
ATOM     29  C   UNL     1     107.183 130.369 143.280  0.00  0.00    +0.000 C 
BRANCH  29  31
ATOM     30  O   UNL     1     106.613 130.665 144.557  0.00  0.00    +0.000 OA
ATOM     31  C   UNL     1     107.256 130.426 144.100  0.00  0.00    +0.000 C 
ENDBRANCH  29  31
ENDBRANCH  20  28
ENDBRANCH   4  20
BRANCH   9  32
ATOM     32  O   UNL     1     106.050 124.999 143.653  0.00  0.00    +0.000 OA
BRANCH  32  41
ATOM     33  O   UNL     1     106.358 125.371 144.998  0.00  0.00    +0.000 OA
ATOM     34  O   UNL     1     104.536 123.909 145.818  0.00  0.00    +0.000 OA
ATOM     35  O   UNL     1     105.450 124.768 146.890  0.00  0.00    +0.000 OA
ATOM     36  O   UNL     1     104.836 124.024 144.200  0.00  0.00    +0.000 OA
ATOM     37  C   UNL     1     105.143 124.397 145.545  0.00  0.00    +0.000 C 
ATOM     38  C   UNL     1     105.600 124.826 146.081  0.00  0.00    +0.000 C 
ATOM     39  C   UNL     1     105.293 124.454 144.736  0.00  0.00    +0.000 C 
ATOM     40  C   UNL     1     106.207 125.313 145.808  0.00  0.00    +0.000 C 
ATOM     41  C   UNL     1     105.900 124.941 144.462  0.00  0.00    +0.000 C 
BRANCH  40  43
ATOM     42  O   UNL     1     107.481 125.633 146.369  0.00  0.00    +0.000 OA
ATOM     43  C   UNL     1     106.664 125.742 146.343  0.00  0.00    +0.000 C 
ENDBRANCH  40  43
ENDBRANCH  32  41
ENDBRANCH   9  32
TORSDOF 7
ENDMDL
MODEL 6
REMARK VINA RESULT:      -9.8      2.038      4.914
REMARK  Name = 131752854
REMARK  7 active torsions:
REMARK  status: ('A' for Active; 'I' for Inactive)
REMARK    1  A    between atoms: O_2  and  C_20
REMARK    2  A    between atoms: O_2  and  C_26
REMARK    3  A    between atoms: O_7  and  C_27
REMARK    4  A    between atoms: O_7  and  C_35
REMARK    5  A    between atoms: C_21  and  C_29
REMARK    6  A    between atoms: C_25  and  C_31
REMARK    7  A    between atoms: C_28  and  C_34
REMARK                            x       y       z     vdW  Elec       q    Type
REMARK                         _______ _______ _______ _____ _____    ______ ____
ROOT
ATOM      1  O   UNL     1     112.455 127.484 136.714  0.00  0.00    +0.000 OA
ATOM      2  O   UNL     1     112.788 128.521 138.937  0.00  0.00    +0.000 OA
ATOM      3  O   UNL     1     112.118 129.725 138.508  0.00  0.00    +0.000 OA
ATOM      4  C   UNL     1     112.955 127.412 138.051  0.00  0.00    +0.000 C 
ATOM      5  C   UNL     1     112.844 127.067 137.309  0.00  0.00    +0.000 C 
ATOM      6  C   UNL     1     112.677 128.175 138.195  0.00  0.00    +0.000 C 
ATOM      7  C   UNL     1     112.288 128.593 137.600  0.00  0.00    +0.000 A 
ATOM      8  C   UNL     1     112.177 128.247 136.859  0.00  0.00    +0.000 A 
ATOM      9  C   UNL     1     111.481 129.466 136.375  0.00  0.00    +0.000 A 
ATOM     10  C   UNL     1     111.773 128.672 136.231  0.00  0.00    +0.000 A 
ATOM     11  C   UNL     1     112.003 129.387 137.763  0.00  0.00    +0.000 A 
ATOM     12  C   UNL     1     111.597 129.827 137.148  0.00  0.00    +0.000 A 
ENDROOT
BRANCH   5  14
ATOM     13  O   UNL     1     113.955 124.014 136.732  0.00  0.00    +0.000 OA
ATOM     14  C   UNL     1     113.122 126.304 137.165  0.00  0.00    +0.000 A 
ATOM     15  C   UNL     1     113.931 126.169 137.077  0.00  0.00    +0.000 A 
ATOM     16  C   UNL     1     112.590 125.675 137.108  0.00  0.00    +0.000 A 
ATOM     17  C   UNL     1     114.209 125.405 136.933  0.00  0.00    +0.000 A 
ATOM     18  C   UNL     1     112.869 124.912 136.964  0.00  0.00    +0.000 A 
ATOM     19  C   UNL     1     113.678 124.777 136.876  0.00  0.00    +0.000 A 
ENDBRANCH   5  14
BRANCH   4  20
ATOM     20  O   UNL     1     113.345 126.995 138.647  0.00  0.00    +0.000 OA
BRANCH  20  28
ATOM     21  O   UNL     1     112.160 126.689 139.385  0.00  0.00    +0.000 OA
ATOM     22  O   UNL     1     113.452 126.779 141.494  0.00  0.00    +0.000 OA
ATOM     23  O   UNL     1     114.206 127.055 140.053  0.00  0.00    +0.000 OA
ATOM     24  O   UNL     1     111.837 126.443 141.530  0.00  0.00    +0.000 OA
ATOM     25  C   UNL     1     113.022 126.749 140.791  0.00  0.00    +0.000 C 
ATOM     26  C   UNL     1     113.399 126.887 140.070  0.00  0.00    +0.000 C 
ATOM     27  C   UNL     1     112.214 126.581 140.808  0.00  0.00    +0.000 C 
ATOM     28  C   UNL     1     112.968 126.857 139.367  0.00  0.00    +0.000 C 
ATOM     29  C   UNL     1     111.784 126.551 140.105  0.00  0.00    +0.000 C 
BRANCH  29  31
ATOM     30  O   UNL     1     110.686 125.707 139.750  0.00  0.00    +0.000 OA
ATOM     31  C   UNL     1     110.976 126.382 140.124  0.00  0.00    +0.000 C 
ENDBRANCH  29  31
ENDBRANCH  20  28
ENDBRANCH   4  20
BRANCH   9  32
ATOM     32  O   UNL     1     111.092 129.881 135.778  0.00  0.00    +0.000 OA
BRANCH  32  41
ATOM     33  O   UNL     1     109.848 129.178 135.784  0.00  0.00    +0.000 OA
ATOM     34  O   UNL     1     108.633 131.326 135.595  0.00  0.00    +0.000 OA
ATOM     35  O   UNL     1     107.793 129.907 135.664  0.00  0.00    +0.000 OA
ATOM     36  O   UNL     1     110.281 131.313 135.651  0.00  0.00    +0.000 OA
ATOM     37  C   UNL     1     109.038 130.610 135.658  0.00  0.00    +0.000 C 
ATOM     38  C   UNL     1     108.618 129.900 135.693  0.00  0.00    +0.000 C 
ATOM     39  C   UNL     1     109.862 130.604 135.686  0.00  0.00    +0.000 C 
ATOM     40  C   UNL     1     109.023 129.185 135.756  0.00  0.00    +0.000 C 
ATOM     41  C   UNL     1     110.267 129.888 135.749  0.00  0.00    +0.000 C 
BRANCH  40  43
ATOM     42  O   UNL     1     108.656 127.997 136.461  0.00  0.00    +0.000 OA
ATOM     43  C   UNL     1     108.603 128.475 135.791  0.00  0.00    +0.000 C 
ENDBRANCH  40  43
ENDBRANCH  32  41
ENDBRANCH   9  32
TORSDOF 7
ENDMDL
MODEL 7
REMARK VINA RESULT:      -9.7      2.912      5.094
REMARK  Name = 131752854
REMARK  7 active torsions:
REMARK  status: ('A' for Active; 'I' for Inactive)
REMARK    1  A    between atoms: O_2  and  C_20
REMARK    2  A    between atoms: O_2  and  C_26
REMARK    3  A    between atoms: O_7  and  C_27
REMARK    4  A    between atoms: O_7  and  C_35
REMARK    5  A    between atoms: C_21  and  C_29
REMARK    6  A    between atoms: C_25  and  C_31
REMARK    7  A    between atoms: C_28  and  C_34
REMARK                            x       y       z     vdW  Elec       q    Type
REMARK                         _______ _______ _______ _____ _____    ______ ____
ROOT
ATOM      1  O   UNL     1     111.984 129.362 135.567  0.00  0.00    +0.000 OA
ATOM      2  O   UNL     1     111.777 126.991 136.250  0.00  0.00    +0.000 OA
ATOM      3  O   UNL     1     110.338 127.061 136.160  0.00  0.00    +0.000 OA
ATOM      4  C   UNL     1     112.591 128.128 135.957  0.00  0.00    +0.000 C 
ATOM      5  C   UNL     1     112.660 128.918 135.729  0.00  0.00    +0.000 C 
ATOM      6  C   UNL     1     111.846 127.782 136.022  0.00  0.00    +0.000 C 
ATOM      7  C   UNL     1     111.169 128.225 135.860  0.00  0.00    +0.000 A 
ATOM      8  C   UNL     1     111.238 129.014 135.633  0.00  0.00    +0.000 A 
ATOM      9  C   UNL     1     109.762 129.132 135.527  0.00  0.00    +0.000 A 
ATOM     10  C   UNL     1     110.541 129.486 135.461  0.00  0.00    +0.000 A 
ATOM     11  C   UNL     1     110.398 127.852 135.932  0.00  0.00    +0.000 A 
ATOM     12  C   UNL     1     109.689 128.308 135.764  0.00  0.00    +0.000 A 
ENDROOT
BRANCH   5  14
ATOM     13  O   UNL     1     115.644 130.302 135.467  0.00  0.00    +0.000 OA
ATOM     14  C   UNL     1     113.406 129.264 135.664  0.00  0.00    +0.000 A 
ATOM     15  C   UNL     1     113.662 129.806 136.232  0.00  0.00    +0.000 A 
ATOM     16  C   UNL     1     113.898 129.069 135.030  0.00  0.00    +0.000 A 
ATOM     17  C   UNL     1     114.408 130.151 136.166  0.00  0.00    +0.000 A 
ATOM     18  C   UNL     1     114.643 129.415 134.965  0.00  0.00    +0.000 A 
ATOM     19  C   UNL     1     114.899 129.956 135.533  0.00  0.00    +0.000 A 
ENDBRANCH   5  14
BRANCH   4  20
ATOM     20  O   UNL     1     113.268 127.685 136.120  0.00  0.00    +0.000 OA
BRANCH  20  28
ATOM     21  O   UNL     1     113.087 127.693 137.537  0.00  0.00    +0.000 OA
ATOM     22  O   UNL     1     114.147 125.462 137.687  0.00  0.00    +0.000 OA
ATOM     23  O   UNL     1     113.975 126.197 136.219  0.00  0.00    +0.000 OA
ATOM     24  O   UNL     1     113.613 126.215 139.054  0.00  0.00    +0.000 OA
ATOM     25  C   UNL     1     113.794 126.206 137.637  0.00  0.00    +0.000 C 
ATOM     26  C   UNL     1     113.707 126.574 136.903  0.00  0.00    +0.000 C 
ATOM     27  C   UNL     1     113.526 126.583 138.320  0.00  0.00    +0.000 C 
ATOM     28  C   UNL     1     113.354 127.318 136.853  0.00  0.00    +0.000 C 
ATOM     29  C   UNL     1     113.173 127.326 138.270  0.00  0.00    +0.000 C 
BRANCH  29  31
ATOM     30  O   UNL     1     113.221 128.431 139.175  0.00  0.00    +0.000 OA
ATOM     31  C   UNL     1     112.906 127.702 138.955  0.00  0.00    +0.000 C 
ENDBRANCH  29  31
ENDBRANCH  20  28
ENDBRANCH   4  20
BRANCH   9  32
ATOM     32  O   UNL     1     109.087 129.577 135.364  0.00  0.00    +0.000 OA
BRANCH  32  41
ATOM     33  O   UNL     1     108.988 130.152 136.668  0.00  0.00    +0.000 OA
ATOM     34  O   UNL     1     108.059 132.225 135.684  0.00  0.00    +0.000 OA
ATOM     35  O   UNL     1     108.270 132.110 137.316  0.00  0.00    +0.000 OA
ATOM     36  O   UNL     1     108.467 130.959 134.707  0.00  0.00    +0.000 OA
ATOM     37  C   UNL     1     108.369 131.534 136.012  0.00  0.00    +0.000 C 
ATOM     38  C   UNL     1     108.474 131.476 136.828  0.00  0.00    +0.000 C 
ATOM     39  C   UNL     1     108.573 130.901 135.524  0.00  0.00    +0.000 C 
ATOM     40  C   UNL     1     108.783 130.786 137.156  0.00  0.00    +0.000 C 
ATOM     41  C   UNL     1     108.882 130.210 135.852  0.00  0.00    +0.000 C 
BRANCH  40  43
ATOM     42  O   UNL     1     108.608 130.067 138.379  0.00  0.00    +0.000 OA
ATOM     43  C   UNL     1     108.889 130.728 137.972  0.00  0.00    +0.000 C 
ENDBRANCH  40  43
ENDBRANCH  32  41
ENDBRANCH   9  32
TORSDOF 7
ENDMDL
MODEL 8
REMARK VINA RESULT:      -9.7      2.775      5.129
REMARK  Name = 131752854
REMARK  7 active torsions:
REMARK  status: ('A' for Active; 'I' for Inactive)
REMARK    1  A    between atoms: O_2  and  C_20
REMARK    2  A    between atoms: O_2  and  C_26
REMARK    3  A    between atoms: O_7  and  C_27
REMARK    4  A    between atoms: O_7  and  C_35
REMARK    5  A    between atoms: C_21  and  C_29
REMARK    6  A    between atoms: C_25  and  C_31
REMARK    7  A    between atoms: C_28  and  C_34
REMARK                            x       y       z     vdW  Elec       q    Type
REMARK                         _______ _______ _______ _____ _____    ______ ____
ROOT
ATOM      1  O   UNL     1     113.570 128.476 136.926  0.00  0.00    +0.000 OA
ATOM      2  O   UNL     1     111.813 129.678 138.191  0.00  0.00    +0.000 OA
ATOM      3  O   UNL     1     111.444 128.467 138.884  0.00  0.00    +0.000 OA
ATOM      4  C   UNL     1     112.864 129.684 137.222  0.00  0.00    +0.000 C 
ATOM      5  C   UNL     1     113.450 129.283 136.801  0.00  0.00    +0.000 C 
ATOM      6  C   UNL     1     112.399 129.277 137.769  0.00  0.00    +0.000 C 
ATOM      7  C   UNL     1     112.519 128.471 137.894  0.00  0.00    +0.000 A 
ATOM      8  C   UNL     1     113.104 128.071 137.473  0.00  0.00    +0.000 A 
ATOM      9  C   UNL     1     112.758 126.802 138.163  0.00  0.00    +0.000 A 
ATOM     10  C   UNL     1     113.239 127.231 137.595  0.00  0.00    +0.000 A 
ATOM     11  C   UNL     1     112.027 128.059 138.467  0.00  0.00    +0.000 A 
ATOM     12  C   UNL     1     112.147 127.219 138.602  0.00  0.00    +0.000 A 
ENDROOT
BRANCH   5  14
ATOM     13  O   UNL     1     115.309 130.909 134.613  0.00  0.00    +0.000 OA
ATOM     14  C   UNL     1     113.915 129.690 136.254  0.00  0.00    +0.000 A 
ATOM     15  C   UNL     1     114.481 130.230 136.515  0.00  0.00    +0.000 A 
ATOM     16  C   UNL     1     113.813 129.556 135.446  0.00  0.00    +0.000 A 
ATOM     17  C   UNL     1     114.946 130.636 135.967  0.00  0.00    +0.000 A 
ATOM     18  C   UNL     1     114.278 129.962 134.899  0.00  0.00    +0.000 A 
ATOM     19  C   UNL     1     114.844 130.503 135.160  0.00  0.00    +0.000 A 
ENDBRANCH   5  14
BRANCH   4  20
ATOM     20  O   UNL     1     112.744 130.490 137.097  0.00  0.00    +0.000 OA
BRANCH  20  28
ATOM     21  O   UNL     1     111.539 130.311 136.350  0.00  0.00    +0.000 OA
ATOM     22  O   UNL     1     110.709 132.496 137.164  0.00  0.00    +0.000 OA
ATOM     23  O   UNL     1     112.191 131.947 137.640  0.00  0.00    +0.000 OA
ATOM     24  O   UNL     1     109.781 131.589 136.145  0.00  0.00    +0.000 OA
ATOM     25  C   UNL     1     110.986 131.768 136.892  0.00  0.00    +0.000 C 
ATOM     26  C   UNL     1     111.727 131.493 137.131  0.00  0.00    +0.000 C 
ATOM     27  C   UNL     1     110.522 131.314 136.383  0.00  0.00    +0.000 C 
ATOM     28  C   UNL     1     112.004 130.764 136.859  0.00  0.00    +0.000 C 
ATOM     29  C   UNL     1     110.799 130.585 136.112  0.00  0.00    +0.000 C 
BRANCH  29  31
ATOM     30  O   UNL     1     110.618 129.927 134.857  0.00  0.00    +0.000 OA
ATOM     31  C   UNL     1     110.334 130.132 135.603  0.00  0.00    +0.000 C 
ENDBRANCH  29  31
ENDBRANCH  20  28
ENDBRANCH   4  20
BRANCH   9  32
ATOM     32  O   UNL     1     112.880 125.995 138.286  0.00  0.00    +0.000 OA
BRANCH  32  41
ATOM     33  O   UNL     1     111.850 125.495 137.431  0.00  0.00    +0.000 OA
ATOM     34  O   UNL     1     113.373 123.712 136.639  0.00  0.00    +0.000 OA
ATOM     35  O   UNL     1     111.836 123.806 136.048  0.00  0.00    +0.000 OA
ATOM     36  O   UNL     1     113.895 124.807 137.758  0.00  0.00    +0.000 OA
ATOM     37  C   UNL     1     112.865 124.307 136.903  0.00  0.00    +0.000 C 
ATOM     38  C   UNL     1     112.096 124.354 136.608  0.00  0.00    +0.000 C 
ATOM     39  C   UNL     1     113.127 124.854 137.463  0.00  0.00    +0.000 C 
ATOM     40  C   UNL     1     111.589 124.947 136.872  0.00  0.00    +0.000 C 
ATOM     41  C   UNL     1     112.619 125.448 137.727  0.00  0.00    +0.000 C 
BRANCH  40  43
ATOM     42  O   UNL     1     110.601 125.629 136.097  0.00  0.00    +0.000 OA
ATOM     43  C   UNL     1     110.820 124.995 136.576  0.00  0.00    +0.000 C 
ENDBRANCH  40  43
ENDBRANCH  32  41
ENDBRANCH   9  32
TORSDOF 7
ENDMDL
MODEL 9
REMARK VINA RESULT:      -9.6      2.293      5.555
REMARK  Name = 131752854
REMARK  7 active torsions:
REMARK  status: ('A' for Active; 'I' for Inactive)
REMARK    1  A    between atoms: O_2  and  C_20
REMARK    2  A    between atoms: O_2  and  C_26
REMARK    3  A    between atoms: O_7  and  C_27
REMARK    4  A    between atoms: O_7  and  C_35
REMARK    5  A    between atoms: C_21  and  C_29
REMARK    6  A    between atoms: C_25  and  C_31
REMARK    7  A    between atoms: C_28  and  C_34
REMARK                            x       y       z     vdW  Elec       q    Type
REMARK                         _______ _______ _______ _____ _____    ______ ____
ROOT
ATOM      1  O   UNL     1     113.062 128.139 138.545  0.00  0.00    +0.000 OA
ATOM      2  O   UNL     1     112.119 129.750 136.918  0.00  0.00    +0.000 OA
ATOM      3  O   UNL     1     112.387 128.847 135.826  0.00  0.00    +0.000 OA
ATOM      4  C   UNL     1     112.452 129.401 138.264  0.00  0.00    +0.000 C 
ATOM      5  C   UNL     1     112.767 128.864 138.806  0.00  0.00    +0.000 C 
ATOM      6  C   UNL     1     112.433 129.213 137.461  0.00  0.00    +0.000 C 
ATOM      7  C   UNL     1     112.729 128.488 137.200  0.00  0.00    +0.000 A 
ATOM      8  C   UNL     1     113.043 127.952 137.742  0.00  0.00    +0.000 A 
ATOM      9  C   UNL     1     113.337 126.991 136.648  0.00  0.00    +0.000 A 
ATOM     10  C   UNL     1     113.353 127.194 137.483  0.00  0.00    +0.000 A 
ATOM     11  C   UNL     1     112.703 128.304 136.361  0.00  0.00    +0.000 A 
ATOM     12  C   UNL     1     113.009 127.551 136.083  0.00  0.00    +0.000 A 
ENDROOT
BRANCH   5  14
ATOM     13  O   UNL     1     112.839 129.618 142.017  0.00  0.00    +0.000 OA
ATOM     14  C   UNL     1     112.785 129.053 139.609  0.00  0.00    +0.000 A 
ATOM     15  C   UNL     1     113.326 129.609 139.890  0.00  0.00    +0.000 A 
ATOM     16  C   UNL     1     112.262 128.685 140.131  0.00  0.00    +0.000 A 
ATOM     17  C   UNL     1     113.343 129.797 140.693  0.00  0.00    +0.000 A 
ATOM     18  C   UNL     1     112.281 128.874 140.934  0.00  0.00    +0.000 A 
ATOM     19  C   UNL     1     112.821 129.430 141.215  0.00  0.00    +0.000 A 
ENDBRANCH   5  14
BRANCH   4  20
ATOM     20  O   UNL     1     112.157 130.126 138.525  0.00  0.00    +0.000 OA
BRANCH  20  28
ATOM     21  O   UNL     1     110.784 129.760 138.370  0.00  0.00    +0.000 OA
ATOM     22  O   UNL     1     110.213 132.114 137.863  0.00  0.00    +0.000 OA
ATOM     23  O   UNL     1     111.776 131.696 138.187  0.00  0.00    +0.000 OA
ATOM     24  O   UNL     1     109.031 130.964 137.878  0.00  0.00    +0.000 OA
ATOM     25  C   UNL     1     110.404 131.330 138.032  0.00  0.00    +0.000 C 
ATOM     26  C   UNL     1     111.186 131.120 138.194  0.00  0.00    +0.000 C 
ATOM     27  C   UNL     1     109.813 130.754 138.039  0.00  0.00    +0.000 C 
ATOM     28  C   UNL     1     111.376 130.335 138.363  0.00  0.00    +0.000 C 
ATOM     29  C   UNL     1     110.003 129.969 138.208  0.00  0.00    +0.000 C 
BRANCH  29  31
ATOM     30  O   UNL     1     109.262 128.963 138.902  0.00  0.00    +0.000 OA
ATOM     31  C   UNL     1     109.411 129.394 138.216  0.00  0.00    +0.000 C 
ENDBRANCH  29  31
ENDBRANCH  20  28
ENDBRANCH   4  20
BRANCH   9  32
ATOM     32  O   UNL     1     113.633 126.266 136.390  0.00  0.00    +0.000 OA
BRANCH  32  41
ATOM     33  O   UNL     1     112.382 125.582 136.287  0.00  0.00    +0.000 OA
ATOM     34  O   UNL     1     113.438 123.520 137.158  0.00  0.00    +0.000 OA
ATOM     35  O   UNL     1     111.836 123.523 136.765  0.00  0.00    +0.000 OA
ATOM     36  O   UNL     1     114.337 124.891 136.971  0.00  0.00    +0.000 OA
ATOM     37  C   UNL     1     113.086 124.207 136.868  0.00  0.00    +0.000 C 
ATOM     38  C   UNL     1     112.285 124.209 136.671  0.00  0.00    +0.000 C 
ATOM     39  C   UNL     1     113.535 124.893 136.774  0.00  0.00    +0.000 C 
ATOM     40  C   UNL     1     111.933 124.896 136.381  0.00  0.00    +0.000 C 
ATOM     41  C   UNL     1     113.183 125.580 136.484  0.00  0.00    +0.000 C 
BRANCH  40  43
ATOM     42  O   UNL     1     110.894 125.114 135.425  0.00  0.00    +0.000 OA
ATOM     43  C   UNL     1     111.132 124.897 136.185  0.00  0.00    +0.000 C 
ENDBRANCH  40  43
ENDBRANCH  32  41
ENDBRANCH   9  32
TORSDOF 7
ENDMDL
MODEL 10
REMARK VINA RESULT:      -9.6      1.583      2.736
REMARK  Name = 131752854
REMARK  7 active torsions:
REMARK  status: ('A' for Active; 'I' for Inactive)
REMARK    1  A    between atoms: O_2  and  C_20
REMARK    2  A    between atoms: O_2  and  C_26
REMARK    3  A    between atoms: O_7  and  C_27
REMARK    4  A    between atoms: O_7  and  C_35
REMARK    5  A    between atoms: C_21  and  C_29
REMARK    6  A    between atoms: C_25  and  C_31
REMARK    7  A    between atoms: C_28  and  C_34
REMARK                            x       y       z     vdW  Elec       q    Type
REMARK                         _______ _______ _______ _____ _____    ______ ____
ROOT
ATOM      1  O   UNL     1     113.054 126.426 138.743  0.00  0.00    +0.000 OA
ATOM      2  O   UNL     1     113.255 128.725 137.847  0.00  0.00    +0.000 OA
ATOM      3  O   UNL     1     112.902 129.286 139.129  0.00  0.00    +0.000 OA
ATOM      4  C   UNL     1     113.331 127.311 137.655  0.00  0.00    +0.000 C 
ATOM      5  C   UNL     1     113.264 126.544 137.954  0.00  0.00    +0.000 C 
ATOM      6  C   UNL     1     113.188 127.958 138.146  0.00  0.00    +0.000 C 
ATOM      7  C   UNL     1     112.979 127.840 138.935  0.00  0.00    +0.000 A 
ATOM      8  C   UNL     1     112.912 127.074 139.234  0.00  0.00    +0.000 A 
ATOM      9  C   UNL     1     112.545 127.608 140.570  0.00  0.00    +0.000 A 
ATOM     10  C   UNL     1     112.694 126.938 140.054  0.00  0.00    +0.000 A 
ATOM     11  C   UNL     1     112.833 128.523 139.436  0.00  0.00    +0.000 A 
ATOM     12  C   UNL     1     112.614 128.407 140.259  0.00  0.00    +0.000 A 
ENDROOT
BRANCH   5  14
ATOM     13  O   UNL     1     113.832 123.954 135.991  0.00  0.00    +0.000 OA
ATOM     14  C   UNL     1     113.406 125.897 137.463  0.00  0.00    +0.000 A 
ATOM     15  C   UNL     1     114.179 125.706 137.245  0.00  0.00    +0.000 A 
ATOM     16  C   UNL     1     112.775 125.439 137.191  0.00  0.00    +0.000 A 
ATOM     17  C   UNL     1     114.320 125.058 136.754  0.00  0.00    +0.000 A 
ATOM     18  C   UNL     1     112.918 124.792 136.700  0.00  0.00    +0.000 A 
ATOM     19  C   UNL     1     113.690 124.601 136.481  0.00  0.00    +0.000 A 
ENDBRANCH   5  14
BRANCH   4  20
ATOM     20  O   UNL     1     113.540 127.429 136.866  0.00  0.00    +0.000 OA
BRANCH  20  28
ATOM     21  O   UNL     1     112.227 127.802 136.443  0.00  0.00    +0.000 OA
ATOM     22  O   UNL     1     113.205 129.300 134.732  0.00  0.00    +0.000 OA
ATOM     23  O   UNL     1     114.192 128.428 135.726  0.00  0.00    +0.000 OA
ATOM     24  O   UNL     1     111.566 129.174 134.879  0.00  0.00    +0.000 OA
ATOM     25  C   UNL     1     112.879 128.801 135.302  0.00  0.00    +0.000 C 
ATOM     26  C   UNL     1     113.373 128.364 135.800  0.00  0.00    +0.000 C 
ATOM     27  C   UNL     1     112.060 128.737 135.376  0.00  0.00    +0.000 C 
ATOM     28  C   UNL     1     113.047 127.865 136.370  0.00  0.00    +0.000 C 
ATOM     29  C   UNL     1     111.734 128.238 135.946  0.00  0.00    +0.000 C 
BRANCH  29  31
ATOM     30  O   UNL     1     110.545 127.446 135.915  0.00  0.00    +0.000 OA
ATOM     31  C   UNL     1     110.915 128.176 136.019  0.00  0.00    +0.000 C 
ENDBRANCH  29  31
ENDBRANCH  20  28
ENDBRANCH   4  20
BRANCH   9  32
ATOM     32  O   UNL     1     112.335 127.487 141.359  0.00  0.00    +0.000 OA
BRANCH  32  41
ATOM     33  O   UNL     1     111.006 126.982 141.220  0.00  0.00    +0.000 OA
ATOM     34  O   UNL     1     110.228 128.553 142.967  0.00  0.00    +0.000 OA
ATOM     35  O   UNL     1     109.157 127.525 142.247  0.00  0.00    +0.000 OA
ATOM     36  O   UNL     1     111.817 128.534 142.523  0.00  0.00    +0.000 OA
ATOM     37  C   UNL     1     110.487 128.029 142.385  0.00  0.00    +0.000 C 
ATOM     38  C   UNL     1     109.952 127.515 142.025  0.00  0.00    +0.000 C 
ATOM     39  C   UNL     1     111.282 128.020 142.163  0.00  0.00    +0.000 C 
ATOM     40  C   UNL     1     110.211 126.992 141.443  0.00  0.00    +0.000 C 
ATOM     41  C   UNL     1     111.541 127.496 141.581  0.00  0.00    +0.000 C 
BRANCH  40  43
ATOM     42  O   UNL     1     109.796 125.663 141.122  0.00  0.00    +0.000 OA
ATOM     43  C   UNL     1     109.676 126.478 141.083  0.00  0.00    +0.000 C 
ENDBRANCH  40  43
ENDBRANCH  32  41
ENDBRANCH   9  32
TORSDOF 7
ENDMDL
