MODEL 1
REMARK VINA RESULT:      -8.0      0.000      0.000
REMARK  Name = 131836528
REMARK  3 active torsions:
REMARK  status: ('A' for Active; 'I' for Inactive)
REMARK    1  A    between atoms: O_3  and  C_16
REMARK    2  A    between atoms: O_4  and  C_20
REMARK    3  A    between atoms: C_6  and  C_10
REMARK                            x       y       z     vdW  Elec       q    Type
REMARK                         _______ _______ _______ _____ _____    ______ ____
ROOT
ATOM      1  O   UNL     1     103.033 124.940 146.986  0.00  0.00    +0.000 OA
ATOM      2  O   UNL     1     104.743 123.379 146.111  0.00  0.00    +0.000 OA
ATOM      3  O   UNL     1     100.916 123.133 146.128  0.00  0.00    +0.000 OA
ATOM      4  C   UNL     1     104.404 124.607 146.761  0.00  0.00    +0.000 C 
ATOM      5  C   UNL     1     104.173 123.900 146.403  0.00  0.00    +0.000 C 
ATOM      6  C   UNL     1     103.834 125.126 147.052  0.00  0.00    +0.000 C 
ATOM      7  C   UNL     1     103.372 123.714 146.337  0.00  0.00    +0.000 A 
ATOM      8  C   UNL     1     102.803 124.233 146.628  0.00  0.00    +0.000 A 
ATOM      9  C   UNL     1     103.145 122.974 145.961  0.00  0.00    +0.000 A 
ATOM     10  C   UNL     1     101.964 124.051 146.565  0.00  0.00    +0.000 A 
ATOM     11  C   UNL     1     102.312 122.774 145.889  0.00  0.00    +0.000 A 
ATOM     12  C   UNL     1     101.718 123.317 146.193  0.00  0.00    +0.000 A 
ENDROOT
BRANCH   4  13
ATOM     13  C   UNL     1     105.205 124.793 146.827  0.00  0.00    +0.000 A 
ATOM     14  C   UNL     1     105.599 125.146 146.194  0.00  0.00    +0.000 A 
ATOM     15  C   UNL     1     105.611 124.625 147.525  0.00  0.00    +0.000 A 
ATOM     16  C   UNL     1     106.400 125.332 146.260  0.00  0.00    +0.000 A 
ATOM     17  C   UNL     1     106.413 124.811 147.591  0.00  0.00    +0.000 A 
ATOM     18  C   UNL     1     106.807 125.165 146.958  0.00  0.00    +0.000 A 
BRANCH  16  19
ATOM     19  O   UNL     1     106.795 125.686 145.626  0.00  0.00    +0.000 OA
ATOM     20  C   UNL     1     106.385 126.181 145.111  0.00  0.00    +0.000 C 
ENDBRANCH  16  19
BRANCH  18  21
ATOM     21  O   UNL     1     107.609 125.351 147.023  0.00  0.00    +0.000 OA
ATOM     22  C   UNL     1     108.014 125.189 147.723  0.00  0.00    +0.000 C 
ENDBRANCH  18  21
ENDBRANCH   4  13
TORSDOF 3
ENDMDL
MODEL 2
REMARK VINA RESULT:      -7.7      7.993      9.409
REMARK  Name = 131836528
REMARK  3 active torsions:
REMARK  status: ('A' for Active; 'I' for Inactive)
REMARK    1  A    between atoms: O_3  and  C_16
REMARK    2  A    between atoms: O_4  and  C_20
REMARK    3  A    between atoms: C_6  and  C_10
REMARK                            x       y       z     vdW  Elec       q    Type
REMARK                         _______ _______ _______ _____ _____    ______ ____
ROOT
ATOM      1  O   UNL     1     101.047 132.037 141.905  0.00  0.00    +0.000 OA
ATOM      2  O   UNL     1     103.391 132.060 141.110  0.00  0.00    +0.000 OA
ATOM      3  O   UNL     1     100.957 134.945 141.787  0.00  0.00    +0.000 OA
ATOM      4  C   UNL     1     102.236 131.334 141.538  0.00  0.00    +0.000 C 
ATOM      5  C   UNL     1     102.609 132.052 141.375  0.00  0.00    +0.000 C 
ATOM      6  C   UNL     1     101.456 131.326 141.803  0.00  0.00    +0.000 C 
ATOM      7  C   UNL     1     102.201 132.761 141.477  0.00  0.00    +0.000 A 
ATOM      8  C   UNL     1     101.421 132.754 141.742  0.00  0.00    +0.000 A 
ATOM      9  C   UNL     1     102.601 133.503 141.304  0.00  0.00    +0.000 A 
ATOM     10  C   UNL     1     100.984 133.487 141.852  0.00  0.00    +0.000 A 
ATOM     11  C   UNL     1     102.182 134.245 141.408  0.00  0.00    +0.000 A 
ATOM     12  C   UNL     1     101.367 134.237 141.684  0.00  0.00    +0.000 A 
ENDROOT
BRANCH   4  13
ATOM     13  C   UNL     1     102.644 130.625 141.436  0.00  0.00    +0.000 A 
ATOM     14  C   UNL     1     102.574 130.207 140.727  0.00  0.00    +0.000 A 
ATOM     15  C   UNL     1     103.123 130.333 142.041  0.00  0.00    +0.000 A 
ATOM     16  C   UNL     1     102.982 129.498 140.625  0.00  0.00    +0.000 A 
ATOM     17  C   UNL     1     103.532 129.623 141.939  0.00  0.00    +0.000 A 
ATOM     18  C   UNL     1     103.461 129.206 141.231  0.00  0.00    +0.000 A 
BRANCH  16  19
ATOM     19  O   UNL     1     102.912 129.080 139.917  0.00  0.00    +0.000 OA
ATOM     20  C   UNL     1     102.210 129.114 139.486  0.00  0.00    +0.000 C 
ENDBRANCH  16  19
BRANCH  18  21
ATOM     21  O   UNL     1     103.870 128.496 141.128  0.00  0.00    +0.000 OA
ATOM     22  C   UNL     1     104.460 128.279 141.662  0.00  0.00    +0.000 C 
ENDBRANCH  18  21
ENDBRANCH   4  13
TORSDOF 3
ENDMDL
MODEL 3
REMARK VINA RESULT:      -7.7      0.991      4.437
REMARK  Name = 131836528
REMARK  3 active torsions:
REMARK  status: ('A' for Active; 'I' for Inactive)
REMARK    1  A    between atoms: O_3  and  C_16
REMARK    2  A    between atoms: O_4  and  C_20
REMARK    3  A    between atoms: C_6  and  C_10
REMARK                            x       y       z     vdW  Elec       q    Type
REMARK                         _______ _______ _______ _____ _____    ______ ____
ROOT
ATOM      1  O   UNL     1     106.022 125.335 146.368  0.00  0.00    +0.000 OA
ATOM      2  O   UNL     1     105.012 124.231 148.340  0.00  0.00    +0.000 OA
ATOM      3  O   UNL     1     108.618 125.362 147.689  0.00  0.00    +0.000 OA
ATOM      4  C   UNL     1     104.882 124.779 147.025  0.00  0.00    +0.000 C 
ATOM      5  C   UNL     1     105.348 124.599 147.683  0.00  0.00    +0.000 C 
ATOM      6  C   UNL     1     105.218 125.146 146.369  0.00  0.00    +0.000 C 
ATOM      7  C   UNL     1     106.151 124.788 147.681  0.00  0.00    +0.000 A 
ATOM      8  C   UNL     1     106.488 125.155 147.025  0.00  0.00    +0.000 A 
ATOM      9  C   UNL     1     106.627 124.595 148.372  0.00  0.00    +0.000 A 
ATOM     10  C   UNL     1     107.324 125.357 147.012  0.00  0.00    +0.000 A 
ATOM     11  C   UNL     1     107.463 124.789 148.377  0.00  0.00    +0.000 A 
ATOM     12  C   UNL     1     107.815 125.172 147.692  0.00  0.00    +0.000 A 
ENDROOT
BRANCH   4  13
ATOM     13  C   UNL     1     104.079 124.590 147.027  0.00  0.00    +0.000 A 
ATOM     14  C   UNL     1     103.813 123.918 146.627  0.00  0.00    +0.000 A 
ATOM     15  C   UNL     1     103.542 125.072 147.427  0.00  0.00    +0.000 A 
ATOM     16  C   UNL     1     103.010 123.730 146.629  0.00  0.00    +0.000 A 
ATOM     17  C   UNL     1     102.738 124.883 147.428  0.00  0.00    +0.000 A 
ATOM     18  C   UNL     1     102.473 124.212 147.029  0.00  0.00    +0.000 A 
BRANCH  16  19
ATOM     19  O   UNL     1     102.744 123.058 146.229  0.00  0.00    +0.000 OA
ATOM     20  C   UNL     1     103.191 122.739 145.615  0.00  0.00    +0.000 C 
ENDBRANCH  16  19
BRANCH  18  21
ATOM     21  O   UNL     1     101.669 124.023 147.030  0.00  0.00    +0.000 OA
ATOM     22  C   UNL     1     101.167 124.358 147.592  0.00  0.00    +0.000 C 
ENDBRANCH  18  21
ENDBRANCH   4  13
TORSDOF 3
ENDMDL
MODEL 4
REMARK VINA RESULT:      -7.4     10.002     12.666
REMARK  Name = 131836528
REMARK  3 active torsions:
REMARK  status: ('A' for Active; 'I' for Inactive)
REMARK    1  A    between atoms: O_3  and  C_16
REMARK    2  A    between atoms: O_4  and  C_20
REMARK    3  A    between atoms: C_6  and  C_10
REMARK                            x       y       z     vdW  Elec       q    Type
REMARK                         _______ _______ _______ _____ _____    ______ ____
ROOT
ATOM      1  O   UNL     1     112.251 124.266 136.960  0.00  0.00    +0.000 OA
ATOM      2  O   UNL     1     112.187 126.729 136.725  0.00  0.00    +0.000 OA
ATOM      3  O   UNL     1     115.153 124.343 137.184  0.00  0.00    +0.000 OA
ATOM      4  C   UNL     1     111.507 125.474 136.788  0.00  0.00    +0.000 C 
ATOM      5  C   UNL     1     112.209 125.908 136.803  0.00  0.00    +0.000 C 
ATOM      6  C   UNL     1     111.528 124.654 136.866  0.00  0.00    +0.000 C 
ATOM      7  C   UNL     1     112.931 125.521 136.897  0.00  0.00    +0.000 A 
ATOM      8  C   UNL     1     112.952 124.701 136.975  0.00  0.00    +0.000 A 
ATOM      9  C   UNL     1     113.655 125.985 136.911  0.00  0.00    +0.000 A 
ATOM     10  C   UNL     1     113.699 124.285 137.074  0.00  0.00    +0.000 A 
ATOM     11  C   UNL     1     114.410 125.588 137.009  0.00  0.00    +0.000 A 
ATOM     12  C   UNL     1     114.432 124.732 137.090  0.00  0.00    +0.000 A 
ENDROOT
BRANCH   4  13
ATOM     13  C   UNL     1     110.785 125.861 136.694  0.00  0.00    +0.000 A 
ATOM     14  C   UNL     1     110.343 126.075 137.358  0.00  0.00    +0.000 A 
ATOM     15  C   UNL     1     110.504 126.034 135.938  0.00  0.00    +0.000 A 
ATOM     16  C   UNL     1     109.620 126.462 137.264  0.00  0.00    +0.000 A 
ATOM     17  C   UNL     1     109.781 126.422 135.845  0.00  0.00    +0.000 A 
ATOM     18  C   UNL     1     109.340 126.636 136.508  0.00  0.00    +0.000 A 
BRANCH  16  19
ATOM     19  O   UNL     1     109.178 126.677 137.928  0.00  0.00    +0.000 OA
ATOM     20  C   UNL     1     109.379 126.380 138.670  0.00  0.00    +0.000 C 
ENDBRANCH  16  19
BRANCH  18  21
ATOM     21  O   UNL     1     108.617 127.024 136.415  0.00  0.00    +0.000 OA
ATOM     22  C   UNL     1     108.458 127.439 135.720  0.00  0.00    +0.000 C 
ENDBRANCH  18  21
ENDBRANCH   4  13
TORSDOF 3
ENDMDL
MODEL 5
REMARK VINA RESULT:      -7.4      2.449      4.128
REMARK  Name = 131836528
REMARK  3 active torsions:
REMARK  status: ('A' for Active; 'I' for Inactive)
REMARK    1  A    between atoms: O_3  and  C_16
REMARK    2  A    between atoms: O_4  and  C_20
REMARK    3  A    between atoms: C_6  and  C_10
REMARK                            x       y       z     vdW  Elec       q    Type
REMARK                         _______ _______ _______ _____ _____    ______ ____
ROOT
ATOM      1  O   UNL     1     105.643 124.984 147.562  0.00  0.00    +0.000 OA
ATOM      2  O   UNL     1     107.486 125.965 146.232  0.00  0.00    +0.000 OA
ATOM      3  O   UNL     1     107.537 124.152 149.611  0.00  0.00    +0.000 OA
ATOM      4  C   UNL     1     106.095 125.677 146.397  0.00  0.00    +0.000 C 
ATOM      5  C   UNL     1     106.871 125.638 146.675  0.00  0.00    +0.000 C 
ATOM      6  C   UNL     1     105.481 125.350 146.839  0.00  0.00    +0.000 C 
ATOM      7  C   UNL     1     107.032 125.272 147.397  0.00  0.00    +0.000 A 
ATOM      8  C   UNL     1     106.418 124.946 147.840  0.00  0.00    +0.000 A 
ATOM      9  C   UNL     1     107.845 125.238 147.676  0.00  0.00    +0.000 A 
ATOM     10  C   UNL     1     106.573 124.562 148.594  0.00  0.00    +0.000 A 
ATOM     11  C   UNL     1     108.019 124.859 148.427  0.00  0.00    +0.000 A 
ATOM     12  C   UNL     1     107.378 124.518 148.889  0.00  0.00    +0.000 A 
ENDROOT
BRANCH   4  13
ATOM     13  C   UNL     1     105.935 126.042 145.675  0.00  0.00    +0.000 A 
ATOM     14  C   UNL     1     105.871 125.588 144.988  0.00  0.00    +0.000 A 
ATOM     15  C   UNL     1     105.838 126.861 145.639  0.00  0.00    +0.000 A 
ATOM     16  C   UNL     1     105.710 125.954 144.266  0.00  0.00    +0.000 A 
ATOM     17  C   UNL     1     105.677 127.226 144.916  0.00  0.00    +0.000 A 
ATOM     18  C   UNL     1     105.613 126.772 144.231  0.00  0.00    +0.000 A 
BRANCH  16  19
ATOM     19  O   UNL     1     105.647 125.500 143.580  0.00  0.00    +0.000 OA
ATOM     20  C   UNL     1     105.689 124.678 143.623  0.00  0.00    +0.000 C 
ENDBRANCH  16  19
BRANCH  18  21
ATOM     21  O   UNL     1     105.453 127.138 143.508  0.00  0.00    +0.000 OA
ATOM     22  C   UNL     1     105.301 127.948 143.480  0.00  0.00    +0.000 C 
ENDBRANCH  18  21
ENDBRANCH   4  13
TORSDOF 3
ENDMDL
MODEL 6
REMARK VINA RESULT:      -7.4      7.136      8.735
REMARK  Name = 131836528
REMARK  3 active torsions:
REMARK  status: ('A' for Active; 'I' for Inactive)
REMARK    1  A    between atoms: O_3  and  C_16
REMARK    2  A    between atoms: O_4  and  C_20
REMARK    3  A    between atoms: C_6  and  C_10
REMARK                            x       y       z     vdW  Elec       q    Type
REMARK                         _______ _______ _______ _____ _____    ______ ____
ROOT
ATOM      1  O   UNL     1     103.279 129.318 140.681  0.00  0.00    +0.000 OA
ATOM      2  O   UNL     1     103.498 130.637 142.764  0.00  0.00    +0.000 OA
ATOM      3  O   UNL     1     105.019 127.258 141.780  0.00  0.00    +0.000 OA
ATOM      4  C   UNL     1     102.961 130.481 141.448  0.00  0.00    +0.000 C 
ATOM      5  C   UNL     1     103.425 130.197 142.070  0.00  0.00    +0.000 C 
ATOM      6  C   UNL     1     102.888 130.042 140.755  0.00  0.00    +0.000 C 
ATOM      7  C   UNL     1     103.815 129.475 141.996  0.00  0.00    +0.000 A 
ATOM      8  C   UNL     1     103.743 129.036 141.302  0.00  0.00    +0.000 A 
ATOM      9  C   UNL     1     104.296 129.191 142.650  0.00  0.00    +0.000 A 
ATOM     10  C   UNL     1     104.145 128.281 141.213  0.00  0.00    +0.000 A 
ATOM     11  C   UNL     1     104.705 128.439 142.580  0.00  0.00    +0.000 A 
ATOM     12  C   UNL     1     104.629 127.981 141.856  0.00  0.00    +0.000 A 
ENDROOT
BRANCH   4  13
ATOM     13  C   UNL     1     102.570 131.203 141.522  0.00  0.00    +0.000 A 
ATOM     14  C   UNL     1     102.901 131.886 141.196  0.00  0.00    +0.000 A 
ATOM     15  C   UNL     1     101.850 131.245 141.923  0.00  0.00    +0.000 A 
ATOM     16  C   UNL     1     102.510 132.609 141.270  0.00  0.00    +0.000 A 
ATOM     17  C   UNL     1     101.459 131.968 141.997  0.00  0.00    +0.000 A 
ATOM     18  C   UNL     1     101.790 132.650 141.670  0.00  0.00    +0.000 A 
BRANCH  16  19
ATOM     19  O   UNL     1     102.840 133.291 140.943  0.00  0.00    +0.000 OA
ATOM     20  C   UNL     1     103.601 133.270 140.625  0.00  0.00    +0.000 C 
ENDBRANCH  16  19
BRANCH  18  21
ATOM     21  O   UNL     1     101.399 133.374 141.744  0.00  0.00    +0.000 OA
ATOM     22  C   UNL     1     100.718 133.429 142.205  0.00  0.00    +0.000 C 
ENDBRANCH  18  21
ENDBRANCH   4  13
TORSDOF 3
ENDMDL
MODEL 7
REMARK VINA RESULT:      -7.3     12.494     13.477
REMARK  Name = 131836528
REMARK  3 active torsions:
REMARK  status: ('A' for Active; 'I' for Inactive)
REMARK    1  A    between atoms: O_3  and  C_16
REMARK    2  A    between atoms: O_4  and  C_20
REMARK    3  A    between atoms: C_6  and  C_10
REMARK                            x       y       z     vdW  Elec       q    Type
REMARK                         _______ _______ _______ _____ _____    ______ ____
ROOT
ATOM      1  O   UNL     1     111.708 126.108 136.289  0.00  0.00    +0.000 OA
ATOM      2  O   UNL     1     114.106 126.434 136.809  0.00  0.00    +0.000 OA
ATOM      3  O   UNL     1     112.000 123.233 136.649  0.00  0.00    +0.000 OA
ATOM      4  C   UNL     1     112.830 126.976 136.459  0.00  0.00    +0.000 C 
ATOM      5  C   UNL     1     113.307 126.325 136.636  0.00  0.00    +0.000 C 
ATOM      6  C   UNL     1     112.032 126.867 136.287  0.00  0.00    +0.000 C 
ATOM      7  C   UNL     1     112.983 125.566 136.638  0.00  0.00    +0.000 A 
ATOM      8  C   UNL     1     112.184 125.458 136.465  0.00  0.00    +0.000 A 
ATOM      9  C   UNL     1     113.490 124.897 136.823  0.00  0.00    +0.000 A 
ATOM     10  C   UNL     1     111.835 124.672 136.465  0.00  0.00    +0.000 A 
ATOM     11  C   UNL     1     113.159 124.104 136.828  0.00  0.00    +0.000 A 
ATOM     12  C   UNL     1     112.326 123.991 136.647  0.00  0.00    +0.000 A 
ENDROOT
BRANCH   4  13
ATOM     13  C   UNL     1     113.154 127.734 136.457  0.00  0.00    +0.000 A 
ATOM     14  C   UNL     1     113.086 128.214 137.126  0.00  0.00    +0.000 A 
ATOM     15  C   UNL     1     113.545 128.014 135.787  0.00  0.00    +0.000 A 
ATOM     16  C   UNL     1     113.409 128.973 137.123  0.00  0.00    +0.000 A 
ATOM     17  C   UNL     1     113.869 128.774 135.784  0.00  0.00    +0.000 A 
ATOM     18  C   UNL     1     113.801 129.252 136.453  0.00  0.00    +0.000 A 
BRANCH  16  19
ATOM     19  O   UNL     1     113.341 129.452 137.792  0.00  0.00    +0.000 OA
ATOM     20  C   UNL     1     112.778 129.279 138.368  0.00  0.00    +0.000 C 
ENDBRANCH  16  19
BRANCH  18  21
ATOM     21  O   UNL     1     114.125 130.012 136.451  0.00  0.00    +0.000 OA
ATOM     22  C   UNL     1     114.581 130.264 135.811  0.00  0.00    +0.000 C 
ENDBRANCH  18  21
ENDBRANCH   4  13
TORSDOF 3
ENDMDL
MODEL 8
REMARK VINA RESULT:      -7.3     10.463     12.205
REMARK  Name = 131836528
REMARK  3 active torsions:
REMARK  status: ('A' for Active; 'I' for Inactive)
REMARK    1  A    between atoms: O_3  and  C_16
REMARK    2  A    between atoms: O_4  and  C_20
REMARK    3  A    between atoms: C_6  and  C_10
REMARK                            x       y       z     vdW  Elec       q    Type
REMARK                         _______ _______ _______ _____ _____    ______ ____
ROOT
ATOM      1  O   UNL     1     113.845 126.414 138.596  0.00  0.00    +0.000 OA
ATOM      2  O   UNL     1     111.406 126.093 138.869  0.00  0.00    +0.000 OA
ATOM      3  O   UNL     1     114.062 127.285 141.366  0.00  0.00    +0.000 OA
ATOM      4  C   UNL     1     112.578 126.040 138.052  0.00  0.00    +0.000 C 
ATOM      5  C   UNL     1     112.219 126.200 138.778  0.00  0.00    +0.000 C 
ATOM      6  C   UNL     1     113.390 126.147 137.961  0.00  0.00    +0.000 C 
ATOM      7  C   UNL     1     112.674 126.466 139.412  0.00  0.00    +0.000 A 
ATOM      8  C   UNL     1     113.486 126.573 139.321  0.00  0.00    +0.000 A 
ATOM      9  C   UNL     1     112.289 126.629 140.164  0.00  0.00    +0.000 A 
ATOM     10  C   UNL     1     113.972 126.850 139.975  0.00  0.00    +0.000 A 
ATOM     11  C   UNL     1     112.757 126.907 140.828  0.00  0.00    +0.000 A 
ATOM     12  C   UNL     1     113.605 127.018 140.733  0.00  0.00    +0.000 A 
ENDROOT
BRANCH   4  13
ATOM     13  C   UNL     1     112.122 125.774 137.418  0.00  0.00    +0.000 A 
ATOM     14  C   UNL     1     112.084 124.967 137.248  0.00  0.00    +0.000 A 
ATOM     15  C   UNL     1     111.705 126.313 136.953  0.00  0.00    +0.000 A 
ATOM     16  C   UNL     1     111.629 124.700 136.614  0.00  0.00    +0.000 A 
ATOM     17  C   UNL     1     111.250 126.046 136.319  0.00  0.00    +0.000 A 
ATOM     18  C   UNL     1     111.212 125.240 136.149  0.00  0.00    +0.000 A 
BRANCH  16  19
ATOM     19  O   UNL     1     111.591 123.893 136.444  0.00  0.00    +0.000 OA
ATOM     20  C   UNL     1     112.030 123.357 136.890  0.00  0.00    +0.000 C 
ENDBRANCH  16  19
BRANCH  18  21
ATOM     21  O   UNL     1     110.756 124.973 135.515  0.00  0.00    +0.000 OA
ATOM     22  C   UNL     1     110.286 125.503 135.093  0.00  0.00    +0.000 C 
ENDBRANCH  18  21
ENDBRANCH   4  13
TORSDOF 3
ENDMDL
