MODEL 1
REMARK VINA RESULT:      -9.2      0.000      0.000
REMARK  Name = 44258546
REMARK  6 active torsions:
REMARK  status: ('A' for Active; 'I' for Inactive)
REMARK    1  A    between atoms: O_2  and  C_18
REMARK    2  A    between atoms: O_2  and  C_20
REMARK    3  A    between atoms: O_10  and  C_31
REMARK    4  A    between atoms: O_11  and  C_33
REMARK    5  A    between atoms: C_17  and  C_19
REMARK    6  A    between atoms: C_21  and  C_23
REMARK                            x       y       z     vdW  Elec       q    Type
REMARK                         _______ _______ _______ _____ _____    ______ ____
ROOT
ATOM      1  O   UNL     1     111.108 124.622 136.055  0.00  0.00    +0.000 OA
ATOM      2  C   UNL     1     110.957 126.726 135.496  0.00  0.00    +0.000 A 
ATOM      3  C   UNL     1     111.181 126.039 135.896  0.00  0.00    +0.000 A 
ATOM      4  C   UNL     1     110.437 126.681 134.858  0.00  0.00    +0.000 A 
ATOM      5  C   UNL     1     110.884 125.308 135.656  0.00  0.00    +0.000 A 
ATOM      6  C   UNL     1     110.141 125.949 134.618  0.00  0.00    +0.000 A 
ATOM      7  C   UNL     1     110.364 125.263 135.017  0.00  0.00    +0.000 A 
ENDROOT
BRANCH   3  11
ATOM      8  O   UNL     1     111.408 126.227 137.294  0.00  0.00    +0.000 OA
ATOM      9  O   UNL     1     113.841 125.940 136.936  0.00  0.00    +0.000 OA
ATOM     10  O   UNL     1     114.099 126.126 138.343  0.00  0.00    +0.000 OA
ATOM     11  C   UNL     1     111.700 126.085 136.535  0.00  0.00    +0.000 A 
ATOM     12  C   UNL     1     111.928 126.273 137.933  0.00  0.00    +0.000 A 
ATOM     13  C   UNL     1     112.511 125.989 136.415  0.00  0.00    +0.000 A 
ATOM     14  C   UNL     1     112.739 126.177 137.814  0.00  0.00    +0.000 A 
ATOM     15  C   UNL     1     113.030 126.035 137.055  0.00  0.00    +0.000 A 
ATOM     16  C   UNL     1     111.613 126.421 138.719  0.00  0.00    +0.000 A 
ATOM     17  C   UNL     1     113.290 126.223 138.472  0.00  0.00    +0.000 A 
ATOM     18  C   UNL     1     112.148 126.469 139.388  0.00  0.00    +0.000 A 
ATOM     19  C   UNL     1     112.993 126.370 139.264  0.00  0.00    +0.000 A 
BRANCH  16  20
ATOM     20  O   UNL     1     110.800 126.515 138.828  0.00  0.00    +0.000 OA
ATOM     21  C   UNL     1     110.366 125.930 139.216  0.00  0.00    +0.000 C 
ENDBRANCH  16  20
BRANCH  18  22
ATOM     22  O   UNL     1     111.853 126.611 140.146  0.00  0.00    +0.000 OA
ATOM     23  C   UNL     1     112.374 126.743 140.773  0.00  0.00    +0.000 C 
ENDBRANCH  18  22
ENDBRANCH   3  11
BRANCH   2  24
ATOM     24  O   UNL     1     111.253 127.458 135.736  0.00  0.00    +0.000 OA
BRANCH  24  33
ATOM     25  O   UNL     1     110.058 128.201 135.986  0.00  0.00    +0.000 OA
ATOM     26  O   UNL     1     110.930 130.066 134.612  0.00  0.00    +0.000 OA
ATOM     27  O   UNL     1     111.834 128.701 134.820  0.00  0.00    +0.000 OA
ATOM     28  O   UNL     1     109.445 130.187 135.320  0.00  0.00    +0.000 OA
ATOM     29  C   UNL     1     110.639 129.444 135.070  0.00  0.00    +0.000 C 
ATOM     30  C   UNL     1     111.092 128.761 135.174  0.00  0.00    +0.000 C 
ATOM     31  C   UNL     1     109.897 129.504 135.424  0.00  0.00    +0.000 C 
ATOM     32  C   UNL     1     109.606 128.882 135.882  0.00  0.00    +0.000 C 
ATOM     33  C   UNL     1     110.801 128.140 135.632  0.00  0.00    +0.000 C 
BRANCH  32  36
ATOM     34  O   UNL     1     108.801 129.150 137.032  0.00  0.00    +0.000 OA
ATOM     35  O   UNL     1     108.183 128.798 135.793  0.00  0.00    +0.000 OA
ATOM     36  C   UNL     1     108.863 128.944 136.236  0.00  0.00    +0.000 C 
ENDBRANCH  32  36
ENDBRANCH  24  33
ENDBRANCH   2  24
TORSDOF 6
ENDMDL
MODEL 2
REMARK VINA RESULT:      -9.0      1.254      4.652
REMARK  Name = 44258546
REMARK  6 active torsions:
REMARK  status: ('A' for Active; 'I' for Inactive)
REMARK    1  A    between atoms: O_2  and  C_18
REMARK    2  A    between atoms: O_2  and  C_20
REMARK    3  A    between atoms: O_10  and  C_31
REMARK    4  A    between atoms: O_11  and  C_33
REMARK    5  A    between atoms: C_17  and  C_19
REMARK    6  A    between atoms: C_21  and  C_23
REMARK                            x       y       z     vdW  Elec       q    Type
REMARK                         _______ _______ _______ _____ _____    ______ ____
ROOT
ATOM      1  O   UNL     1     113.900 125.315 135.929  0.00  0.00    +0.000 OA
ATOM      2  C   UNL     1     113.086 125.859 137.880  0.00  0.00    +0.000 A 
ATOM      3  C   UNL     1     113.141 125.726 137.067  0.00  0.00    +0.000 A 
ATOM      4  C   UNL     1     113.737 125.715 138.365  0.00  0.00    +0.000 A 
ATOM      5  C   UNL     1     113.846 125.448 136.741  0.00  0.00    +0.000 A 
ATOM      6  C   UNL     1     114.442 125.437 138.039  0.00  0.00    +0.000 A 
ATOM      7  C   UNL     1     114.496 125.304 137.228  0.00  0.00    +0.000 A 
ENDROOT
BRANCH   3  11
ATOM      8  O   UNL     1     112.337 126.636 136.313  0.00  0.00    +0.000 OA
ATOM      9  O   UNL     1     110.842 124.776 135.660  0.00  0.00    +0.000 OA
ATOM     10  O   UNL     1     110.013 125.672 134.892  0.00  0.00    +0.000 OA
ATOM     11  C   UNL     1     112.490 125.870 136.581  0.00  0.00    +0.000 A 
ATOM     12  C   UNL     1     111.686 126.781 135.828  0.00  0.00    +0.000 A 
ATOM     13  C   UNL     1     111.991 125.250 136.364  0.00  0.00    +0.000 A 
ATOM     14  C   UNL     1     111.188 126.160 135.610  0.00  0.00    +0.000 A 
ATOM     15  C   UNL     1     111.340 125.396 135.878  0.00  0.00    +0.000 A 
ATOM     16  C   UNL     1     111.538 127.582 135.555  0.00  0.00    +0.000 A 
ATOM     17  C   UNL     1     110.506 126.299 135.105  0.00  0.00    +0.000 A 
ATOM     18  C   UNL     1     110.862 127.739 135.049  0.00  0.00    +0.000 A 
ATOM     19  C   UNL     1     110.343 127.094 134.822  0.00  0.00    +0.000 A 
BRANCH  16  20
ATOM     20  O   UNL     1     112.042 128.196 135.778  0.00  0.00    +0.000 OA
ATOM     21  C   UNL     1     112.521 128.561 135.214  0.00  0.00    +0.000 C 
ENDBRANCH  16  20
BRANCH  18  22
ATOM     22  O   UNL     1     110.712 128.506 134.783  0.00  0.00    +0.000 OA
ATOM     23  C   UNL     1     109.940 128.740 134.612  0.00  0.00    +0.000 C 
ENDBRANCH  18  22
ENDBRANCH   3  11
BRANCH   2  24
ATOM     24  O   UNL     1     112.381 126.137 138.206  0.00  0.00    +0.000 OA
BRANCH  24  33
ATOM     25  O   UNL     1     112.839 127.251 138.975  0.00  0.00    +0.000 OA
ATOM     26  O   UNL     1     111.534 126.447 140.918  0.00  0.00    +0.000 OA
ATOM     27  O   UNL     1     111.510 125.601 139.501  0.00  0.00    +0.000 OA
ATOM     28  O   UNL     1     112.427 127.829 141.039  0.00  0.00    +0.000 OA
ATOM     29  C   UNL     1     111.969 126.715 140.270  0.00  0.00    +0.000 C 
ATOM     30  C   UNL     1     111.957 126.292 139.561  0.00  0.00    +0.000 C 
ATOM     31  C   UNL     1     112.416 127.406 140.330  0.00  0.00    +0.000 C 
ATOM     32  C   UNL     1     112.851 127.673 139.682  0.00  0.00    +0.000 C 
ATOM     33  C   UNL     1     112.393 126.559 138.914  0.00  0.00    +0.000 C 
BRANCH  32  36
ATOM     34  O   UNL     1     114.002 128.364 140.172  0.00  0.00    +0.000 OA
ATOM     35  O   UNL     1     113.039 129.056 139.376  0.00  0.00    +0.000 OA
ATOM     36  C   UNL     1     113.298 128.365 139.744  0.00  0.00    +0.000 C 
ENDBRANCH  32  36
ENDBRANCH  24  33
ENDBRANCH   2  24
TORSDOF 6
ENDMDL
MODEL 3
REMARK VINA RESULT:      -9.0      1.084      4.702
REMARK  Name = 44258546
REMARK  6 active torsions:
REMARK  status: ('A' for Active; 'I' for Inactive)
REMARK    1  A    between atoms: O_2  and  C_18
REMARK    2  A    between atoms: O_2  and  C_20
REMARK    3  A    between atoms: O_10  and  C_31
REMARK    4  A    between atoms: O_11  and  C_33
REMARK    5  A    between atoms: C_17  and  C_19
REMARK    6  A    between atoms: C_21  and  C_23
REMARK                            x       y       z     vdW  Elec       q    Type
REMARK                         _______ _______ _______ _____ _____    ______ ____
ROOT
ATOM      1  O   UNL     1     110.714 125.438 135.153  0.00  0.00    +0.000 OA
ATOM      2  C   UNL     1     110.929 125.675 137.312  0.00  0.00    +0.000 A 
ATOM      3  C   UNL     1     110.707 125.818 136.530  0.00  0.00    +0.000 A 
ATOM      4  C   UNL     1     111.380 125.009 137.497  0.00  0.00    +0.000 A 
ATOM      5  C   UNL     1     110.936 125.295 135.934  0.00  0.00    +0.000 A 
ATOM      6  C   UNL     1     111.608 124.487 136.901  0.00  0.00    +0.000 A 
ATOM      7  C   UNL     1     111.386 124.630 136.120  0.00  0.00    +0.000 A 
ENDROOT
BRANCH   3  11
ATOM      8  O   UNL     1     110.630 127.200 136.176  0.00  0.00    +0.000 OA
ATOM      9  O   UNL     1     108.160 127.051 136.127  0.00  0.00    +0.000 OA
ATOM     10  O   UNL     1     108.054 128.444 135.769  0.00  0.00    +0.000 OA
ATOM     11  C   UNL     1     110.257 126.484 136.345  0.00  0.00    +0.000 A 
ATOM     12  C   UNL     1     110.180 127.866 135.991  0.00  0.00    +0.000 A 
ATOM     13  C   UNL     1     109.433 126.434 136.329  0.00  0.00    +0.000 A 
ATOM     14  C   UNL     1     109.356 127.816 135.974  0.00  0.00    +0.000 A 
ATOM     15  C   UNL     1     108.984 127.101 136.143  0.00  0.00    +0.000 A 
ATOM     16  C   UNL     1     110.580 128.607 135.816  0.00  0.00    +0.000 A 
ATOM     17  C   UNL     1     108.877 128.503 135.783  0.00  0.00    +0.000 A 
ATOM     18  C   UNL     1     110.117 129.304 135.623  0.00  0.00    +0.000 A 
ATOM     19  C   UNL     1     109.260 129.252 135.606  0.00  0.00    +0.000 A 
BRANCH  16  20
ATOM     20  O   UNL     1     111.404 128.647 135.835  0.00  0.00    +0.000 OA
ATOM     21  C   UNL     1     111.827 128.765 135.136  0.00  0.00    +0.000 C 
ENDBRANCH  16  20
BRANCH  18  22
ATOM     22  O   UNL     1     110.494 130.018 135.454  0.00  0.00    +0.000 OA
ATOM     23  C   UNL     1     110.065 130.723 135.466  0.00  0.00    +0.000 C 
ENDBRANCH  18  22
ENDBRANCH   3  11
BRANCH   2  24
ATOM     24  O   UNL     1     110.701 126.198 137.908  0.00  0.00    +0.000 OA
BRANCH  24  33
ATOM     25  O   UNL     1     111.965 126.539 138.480  0.00  0.00    +0.000 OA
ATOM     26  O   UNL     1     111.048 126.141 140.744  0.00  0.00    +0.000 OA
ATOM     27  O   UNL     1     110.089 125.932 139.417  0.00  0.00    +0.000 OA
ATOM     28  O   UNL     1     112.618 126.615 140.561  0.00  0.00    +0.000 OA
ATOM     29  C   UNL     1     111.354 126.274 139.989  0.00  0.00    +0.000 C 
ATOM     30  C   UNL     1     110.874 126.169 139.325  0.00  0.00    +0.000 C 
ATOM     31  C   UNL     1     112.138 126.511 139.897  0.00  0.00    +0.000 C 
ATOM     32  C   UNL     1     112.444 126.644 139.143  0.00  0.00    +0.000 C 
ATOM     33  C   UNL     1     111.180 126.302 138.571  0.00  0.00    +0.000 C 
BRANCH  32  36
ATOM     34  O   UNL     1     113.836 126.325 139.100  0.00  0.00    +0.000 OA
ATOM     35  O   UNL     1     113.406 127.674 138.913  0.00  0.00    +0.000 OA
ATOM     36  C   UNL     1     113.229 126.881 139.052  0.00  0.00    +0.000 C 
ENDBRANCH  32  36
ENDBRANCH  24  33
ENDBRANCH   2  24
TORSDOF 6
ENDMDL
MODEL 4
REMARK VINA RESULT:      -9.0      1.060      2.220
REMARK  Name = 44258546
REMARK  6 active torsions:
REMARK  status: ('A' for Active; 'I' for Inactive)
REMARK    1  A    between atoms: O_2  and  C_18
REMARK    2  A    between atoms: O_2  and  C_20
REMARK    3  A    between atoms: O_10  and  C_31
REMARK    4  A    between atoms: O_11  and  C_33
REMARK    5  A    between atoms: C_17  and  C_19
REMARK    6  A    between atoms: C_21  and  C_23
REMARK                            x       y       z     vdW  Elec       q    Type
REMARK                         _______ _______ _______ _____ _____    ______ ____
ROOT
ATOM      1  O   UNL     1     111.830 124.589 137.018  0.00  0.00    +0.000 OA
ATOM      2  C   UNL     1     110.440 126.202 136.540  0.00  0.00    +0.000 A 
ATOM      3  C   UNL     1     110.960 125.720 136.963  0.00  0.00    +0.000 A 
ATOM      4  C   UNL     1     110.273 126.034 135.750  0.00  0.00    +0.000 A 
ATOM      5  C   UNL     1     111.311 125.070 136.596  0.00  0.00    +0.000 A 
ATOM      6  C   UNL     1     110.624 125.384 135.383  0.00  0.00    +0.000 A 
ATOM      7  C   UNL     1     111.143 124.903 135.805  0.00  0.00    +0.000 A 
ENDROOT
BRANCH   3  11
ATOM      8  O   UNL     1     111.781 126.355 137.945  0.00  0.00    +0.000 OA
ATOM      9  O   UNL     1     110.328 125.461 139.738  0.00  0.00    +0.000 OA
ATOM     10  O   UNL     1     111.139 126.092 140.750  0.00  0.00    +0.000 OA
ATOM     11  C   UNL     1     111.128 125.888 137.753  0.00  0.00    +0.000 A 
ATOM     12  C   UNL     1     111.948 126.524 138.735  0.00  0.00    +0.000 A 
ATOM     13  C   UNL     1     110.643 125.590 138.351  0.00  0.00    +0.000 A 
ATOM     14  C   UNL     1     111.464 126.226 139.333  0.00  0.00    +0.000 A 
ATOM     15  C   UNL     1     110.812 125.759 139.141  0.00  0.00    +0.000 A 
ATOM     16  C   UNL     1     112.631 127.011 138.923  0.00  0.00    +0.000 A 
ATOM     17  C   UNL     1     111.629 126.395 140.160  0.00  0.00    +0.000 A 
ATOM     18  C   UNL     1     112.811 127.190 139.744  0.00  0.00    +0.000 A 
ATOM     19  C   UNL     1     112.307 126.880 140.366  0.00  0.00    +0.000 A 
BRANCH  16  20
ATOM     20  O   UNL     1     113.110 127.305 138.319  0.00  0.00    +0.000 OA
ATOM     21  C   UNL     1     113.169 128.120 138.199  0.00  0.00    +0.000 C 
ENDBRANCH  16  20
BRANCH  18  22
ATOM     22  O   UNL     1     113.465 127.658 139.932  0.00  0.00    +0.000 OA
ATOM     23  C   UNL     1     113.701 127.737 140.719  0.00  0.00    +0.000 C 
ENDBRANCH  18  22
ENDBRANCH   3  11
BRANCH   2  24
ATOM     24  O   UNL     1     110.089 126.852 136.908  0.00  0.00    +0.000 OA
BRANCH  24  33
ATOM     25  O   UNL     1     110.476 127.985 136.128  0.00  0.00    +0.000 OA
ATOM     26  O   UNL     1     108.095 128.576 135.803  0.00  0.00    +0.000 OA
ATOM     27  O   UNL     1     108.501 127.246 136.691  0.00  0.00    +0.000 OA
ATOM     28  O   UNL     1     109.277 129.512 135.131  0.00  0.00    +0.000 OA
ATOM     29  C   UNL     1     108.889 128.379 135.911  0.00  0.00    +0.000 C 
ATOM     30  C   UNL     1     109.092 127.714 136.356  0.00  0.00    +0.000 C 
ATOM     31  C   UNL     1     109.480 128.847 135.576  0.00  0.00    +0.000 C 
ATOM     32  C   UNL     1     110.274 128.650 135.684  0.00  0.00    +0.000 C 
ATOM     33  C   UNL     1     109.886 127.517 136.464  0.00  0.00    +0.000 C 
BRANCH  32  36
ATOM     34  O   UNL     1     111.179 128.921 134.612  0.00  0.00    +0.000 OA
ATOM     35  O   UNL     1     111.139 129.785 135.749  0.00  0.00    +0.000 OA
ATOM     36  C   UNL     1     110.864 129.118 135.348  0.00  0.00    +0.000 C 
ENDBRANCH  32  36
ENDBRANCH  24  33
ENDBRANCH   2  24
TORSDOF 6
ENDMDL
MODEL 5
REMARK VINA RESULT:      -8.9      9.608     12.245
REMARK  Name = 44258546
REMARK  6 active torsions:
REMARK  status: ('A' for Active; 'I' for Inactive)
REMARK    1  A    between atoms: O_2  and  C_18
REMARK    2  A    between atoms: O_2  and  C_20
REMARK    3  A    between atoms: O_10  and  C_31
REMARK    4  A    between atoms: O_11  and  C_33
REMARK    5  A    between atoms: C_17  and  C_19
REMARK    6  A    between atoms: C_21  and  C_23
REMARK                            x       y       z     vdW  Elec       q    Type
REMARK                         _______ _______ _______ _____ _____    ______ ____
ROOT
ATOM      1  O   UNL     1     105.841 123.951 148.158  0.00  0.00    +0.000 OA
ATOM      2  C   UNL     1     105.783 125.758 146.935  0.00  0.00    +0.000 A 
ATOM      3  C   UNL     1     105.535 125.092 147.355  0.00  0.00    +0.000 A 
ATOM      4  C   UNL     1     106.585 125.946 146.897  0.00  0.00    +0.000 A 
ATOM      5  C   UNL     1     106.089 124.615 147.738  0.00  0.00    +0.000 A 
ATOM      6  C   UNL     1     107.139 125.470 147.280  0.00  0.00    +0.000 A 
ATOM      7  C   UNL     1     106.892 124.805 147.700  0.00  0.00    +0.000 A 
ENDROOT
BRANCH   3  11
ATOM      8  O   UNL     1     104.386 124.456 146.791  0.00  0.00    +0.000 OA
ATOM      9  O   UNL     1     103.019 125.232 148.703  0.00  0.00    +0.000 OA
ATOM     10  O   UNL     1     101.843 124.599 148.157  0.00  0.00    +0.000 OA
ATOM     11  C   UNL     1     104.733 124.904 147.393  0.00  0.00    +0.000 A 
ATOM     12  C   UNL     1     103.584 124.268 146.829  0.00  0.00    +0.000 A 
ATOM     13  C   UNL     1     104.277 125.162 148.030  0.00  0.00    +0.000 A 
ATOM     14  C   UNL     1     103.128 124.527 147.466  0.00  0.00    +0.000 A 
ATOM     15  C   UNL     1     103.475 124.973 148.066  0.00  0.00    +0.000 A 
ATOM     16  C   UNL     1     103.234 123.802 146.197  0.00  0.00    +0.000 A 
ATOM     17  C   UNL     1     102.291 124.336 147.515  0.00  0.00    +0.000 A 
ATOM     18  C   UNL     1     102.399 123.602 146.230  0.00  0.00    +0.000 A 
ATOM     19  C   UNL     1     101.925 123.871 146.893  0.00  0.00    +0.000 A 
BRANCH  16  20
ATOM     20  O   UNL     1     103.698 123.548 145.564  0.00  0.00    +0.000 OA
ATOM     21  C   UNL     1     103.854 122.743 145.464  0.00  0.00    +0.000 C 
ENDBRANCH  16  20
BRANCH  18  22
ATOM     22  O   UNL     1     102.056 123.155 145.627  0.00  0.00    +0.000 OA
ATOM     23  C   UNL     1     101.234 123.118 145.558  0.00  0.00    +0.000 C 
ENDBRANCH  18  22
ENDBRANCH   3  11
BRANCH   2  24
ATOM     24  O   UNL     1     105.229 126.234 146.552  0.00  0.00    +0.000 OA
BRANCH  24  33
ATOM     25  O   UNL     1     105.688 126.190 145.200  0.00  0.00    +0.000 OA
ATOM     26  O   UNL     1     105.525 128.656 145.064  0.00  0.00    +0.000 OA
ATOM     27  O   UNL     1     105.120 127.878 146.461  0.00  0.00    +0.000 OA
ATOM     28  O   UNL     1     106.039 127.790 143.757  0.00  0.00    +0.000 OA
ATOM     29  C   UNL     1     105.580 127.834 145.109  0.00  0.00    +0.000 C 
ATOM     30  C   UNL     1     105.377 127.445 145.808  0.00  0.00    +0.000 C 
ATOM     31  C   UNL     1     105.837 127.400 144.456  0.00  0.00    +0.000 C 
ATOM     32  C   UNL     1     105.891 126.578 144.502  0.00  0.00    +0.000 C 
ATOM     33  C   UNL     1     105.431 126.623 145.854  0.00  0.00    +0.000 C 
BRANCH  32  36
ATOM     34  O   UNL     1     106.952 126.105 143.670  0.00  0.00    +0.000 OA
ATOM     35  O   UNL     1     105.600 125.754 143.372  0.00  0.00    +0.000 OA
ATOM     36  C   UNL     1     106.148 126.146 143.848  0.00  0.00    +0.000 C 
ENDBRANCH  32  36
ENDBRANCH  24  33
ENDBRANCH   2  24
TORSDOF 6
ENDMDL
MODEL 6
REMARK VINA RESULT:      -8.7      8.776     11.715
REMARK  Name = 44258546
REMARK  6 active torsions:
REMARK  status: ('A' for Active; 'I' for Inactive)
REMARK    1  A    between atoms: O_2  and  C_18
REMARK    2  A    between atoms: O_2  and  C_20
REMARK    3  A    between atoms: O_10  and  C_31
REMARK    4  A    between atoms: O_11  and  C_33
REMARK    5  A    between atoms: C_17  and  C_19
REMARK    6  A    between atoms: C_21  and  C_23
REMARK                            x       y       z     vdW  Elec       q    Type
REMARK                         _______ _______ _______ _____ _____    ______ ____
ROOT
ATOM      1  O   UNL     1     108.137 126.011 147.173  0.00  0.00    +0.000 OA
ATOM      2  C   UNL     1     105.999 125.598 147.336  0.00  0.00    +0.000 A 
ATOM      3  C   UNL     1     106.711 125.954 147.114  0.00  0.00    +0.000 A 
ATOM      4  C   UNL     1     106.006 124.943 147.838  0.00  0.00    +0.000 A 
ATOM      5  C   UNL     1     107.427 125.655 147.395  0.00  0.00    +0.000 A 
ATOM      6  C   UNL     1     106.722 124.644 148.118  0.00  0.00    +0.000 A 
ATOM      7  C   UNL     1     107.431 125.000 147.896  0.00  0.00    +0.000 A 
ENDROOT
BRANCH   3  11
ATOM      8  O   UNL     1     106.759 126.502 145.796  0.00  0.00    +0.000 OA
ATOM      9  O   UNL     1     106.578 128.784 146.738  0.00  0.00    +0.000 OA
ATOM     10  O   UNL     1     106.624 129.364 145.418  0.00  0.00    +0.000 OA
ATOM     11  C   UNL     1     106.704 126.609 146.613  0.00  0.00    +0.000 A 
ATOM     12  C   UNL     1     106.753 127.157 145.294  0.00  0.00    +0.000 A 
ATOM     13  C   UNL     1     106.644 127.369 146.927  0.00  0.00    +0.000 A 
ATOM     14  C   UNL     1     106.692 127.918 145.608  0.00  0.00    +0.000 A 
ATOM     15  C   UNL     1     106.638 128.023 146.424  0.00  0.00    +0.000 A 
ATOM     16  C   UNL     1     106.810 127.034 144.445  0.00  0.00    +0.000 A 
ATOM     17  C   UNL     1     106.685 128.607 145.095  0.00  0.00    +0.000 A 
ATOM     18  C   UNL     1     106.804 127.711 143.917  0.00  0.00    +0.000 A 
ATOM     19  C   UNL     1     106.741 128.503 144.244  0.00  0.00    +0.000 A 
BRANCH  16  20
ATOM     20  O   UNL     1     106.870 126.270 144.140  0.00  0.00    +0.000 OA
ATOM     21  C   UNL     1     106.270 125.970 143.658  0.00  0.00    +0.000 C 
ENDBRANCH  16  20
BRANCH  18  22
ATOM     22  O   UNL     1     106.858 127.602 143.101  0.00  0.00    +0.000 OA
ATOM     23  C   UNL     1     107.081 128.230 142.615  0.00  0.00    +0.000 C 
ENDBRANCH  18  22
ENDBRANCH   3  11
BRANCH   2  24
ATOM     24  O   UNL     1     105.283 125.897 147.056  0.00  0.00    +0.000 OA
BRANCH  24  33
ATOM     25  O   UNL     1     104.688 124.765 146.418  0.00  0.00    +0.000 OA
ATOM     26  O   UNL     1     102.606 125.136 147.705  0.00  0.00    +0.000 OA
ATOM     27  O   UNL     1     103.896 126.144 147.913  0.00  0.00    +0.000 OA
ATOM     28  O   UNL     1     102.704 123.881 146.638  0.00  0.00    +0.000 OA
ATOM     29  C   UNL     1     103.300 125.012 147.276  0.00  0.00    +0.000 C 
ATOM     30  C   UNL     1     103.945 125.517 147.380  0.00  0.00    +0.000 C 
ATOM     31  C   UNL     1     103.350 124.385 146.743  0.00  0.00    +0.000 C 
ATOM     32  C   UNL     1     104.044 124.261 146.314  0.00  0.00    +0.000 C 
ATOM     33  C   UNL     1     104.639 125.393 146.951  0.00  0.00    +0.000 C 
BRANCH  32  36
ATOM     34  O   UNL     1     104.299 122.881 146.046  0.00  0.00    +0.000 OA
ATOM     35  O   UNL     1     103.933 123.759 144.981  0.00  0.00    +0.000 OA
ATOM     36  C   UNL     1     104.092 123.633 145.780  0.00  0.00    +0.000 C 
ENDBRANCH  32  36
ENDBRANCH  24  33
ENDBRANCH   2  24
TORSDOF 6
ENDMDL
MODEL 7
REMARK VINA RESULT:      -8.7      2.575      4.045
REMARK  Name = 44258546
REMARK  6 active torsions:
REMARK  status: ('A' for Active; 'I' for Inactive)
REMARK    1  A    between atoms: O_2  and  C_18
REMARK    2  A    between atoms: O_2  and  C_20
REMARK    3  A    between atoms: O_10  and  C_31
REMARK    4  A    between atoms: O_11  and  C_33
REMARK    5  A    between atoms: C_17  and  C_19
REMARK    6  A    between atoms: C_21  and  C_23
REMARK                            x       y       z     vdW  Elec       q    Type
REMARK                         _______ _______ _______ _____ _____    ______ ____
ROOT
ATOM      1  O   UNL     1     114.305 128.599 135.157  0.00  0.00    +0.000 OA
ATOM      2  C   UNL     1     113.319 129.546 136.859  0.00  0.00    +0.000 A 
ATOM      3  C   UNL     1     113.515 128.989 136.281  0.00  0.00    +0.000 A 
ATOM      4  C   UNL     1     113.719 130.266 136.890  0.00  0.00    +0.000 A 
ATOM      5  C   UNL     1     114.110 129.155 135.734  0.00  0.00    +0.000 A 
ATOM      6  C   UNL     1     114.314 130.431 136.343  0.00  0.00    +0.000 A 
ATOM      7  C   UNL     1     114.510 129.876 135.766  0.00  0.00    +0.000 A 
ENDROOT
BRANCH   3  11
ATOM      8  O   UNL     1     112.435 128.194 135.787  0.00  0.00    +0.000 OA
ATOM      9  O   UNL     1     113.269 126.257 137.082  0.00  0.00    +0.000 OA
ATOM     10  O   UNL     1     112.190 125.432 136.599  0.00  0.00    +0.000 OA
ATOM     11  C   UNL     1     113.114 128.269 136.250  0.00  0.00    +0.000 A 
ATOM     12  C   UNL     1     112.035 127.474 135.756  0.00  0.00    +0.000 A 
ATOM     13  C   UNL     1     113.393 127.623 136.682  0.00  0.00    +0.000 A 
ATOM     14  C   UNL     1     112.313 126.828 136.188  0.00  0.00    +0.000 A 
ATOM     15  C   UNL     1     112.991 126.903 136.650  0.00  0.00    +0.000 A 
ATOM     16  C   UNL     1     111.328 127.408 135.271  0.00  0.00    +0.000 A 
ATOM     17  C   UNL     1     111.904 126.072 136.164  0.00  0.00    +0.000 A 
ATOM     18  C   UNL     1     110.907 126.660 135.234  0.00  0.00    +0.000 A 
ATOM     19  C   UNL     1     111.197 125.988 135.684  0.00  0.00    +0.000 A 
BRANCH  16  20
ATOM     20  O   UNL     1     111.058 128.059 134.842  0.00  0.00    +0.000 OA
ATOM     21  C   UNL     1     110.321 128.388 135.014  0.00  0.00    +0.000 C 
ENDBRANCH  16  20
BRANCH  18  22
ATOM     22  O   UNL     1     110.228 126.589 134.770  0.00  0.00    +0.000 OA
ATOM     23  C   UNL     1     109.914 125.843 134.612  0.00  0.00    +0.000 C 
ENDBRANCH  18  22
ENDBRANCH   3  11
BRANCH   2  24
ATOM     24  O   UNL     1     112.723 129.380 137.405  0.00  0.00    +0.000 OA
BRANCH  24  33
ATOM     25  O   UNL     1     111.879 130.521 137.237  0.00  0.00    +0.000 OA
ATOM     26  O   UNL     1     111.751 130.789 139.694  0.00  0.00    +0.000 OA
ATOM     27  O   UNL     1     112.638 129.559 139.043  0.00  0.00    +0.000 OA
ATOM     28  O   UNL     1     110.949 131.840 138.706  0.00  0.00    +0.000 OA
ATOM     29  C   UNL     1     111.793 130.700 138.875  0.00  0.00    +0.000 C 
ATOM     30  C   UNL     1     112.237 130.084 138.549  0.00  0.00    +0.000 C 
ATOM     31  C   UNL     1     111.393 131.225 138.380  0.00  0.00    +0.000 C 
ATOM     32  C   UNL     1     111.435 131.135 137.561  0.00  0.00    +0.000 C 
ATOM     33  C   UNL     1     112.280 129.995 137.730  0.00  0.00    +0.000 C 
BRANCH  32  36
ATOM     34  O   UNL     1     111.342 132.412 136.928  0.00  0.00    +0.000 OA
ATOM     35  O   UNL     1     110.324 131.434 136.715  0.00  0.00    +0.000 OA
ATOM     36  C   UNL     1     111.034 131.661 137.068  0.00  0.00    +0.000 C 
ENDBRANCH  32  36
ENDBRANCH  24  33
ENDBRANCH   2  24
TORSDOF 6
ENDMDL
MODEL 8
REMARK VINA RESULT:      -8.7      2.741      4.421
REMARK  Name = 44258546
REMARK  6 active torsions:
REMARK  status: ('A' for Active; 'I' for Inactive)
REMARK    1  A    between atoms: O_2  and  C_18
REMARK    2  A    between atoms: O_2  and  C_20
REMARK    3  A    between atoms: O_10  and  C_31
REMARK    4  A    between atoms: O_11  and  C_33
REMARK    5  A    between atoms: C_17  and  C_19
REMARK    6  A    between atoms: C_21  and  C_23
REMARK                            x       y       z     vdW  Elec       q    Type
REMARK                         _______ _______ _______ _____ _____    ______ ____
ROOT
ATOM      1  O   UNL     1     114.300 128.649 135.192  0.00  0.00    +0.000 OA
ATOM      2  C   UNL     1     113.362 129.507 136.967  0.00  0.00    +0.000 A 
ATOM      3  C   UNL     1     113.528 128.990 136.344  0.00  0.00    +0.000 A 
ATOM      4  C   UNL     1     113.804 130.198 137.056  0.00  0.00    +0.000 A 
ATOM      5  C   UNL     1     114.134 129.165 135.813  0.00  0.00    +0.000 A 
ATOM      6  C   UNL     1     114.410 130.373 136.525  0.00  0.00    +0.000 A 
ATOM      7  C   UNL     1     114.575 129.857 135.904  0.00  0.00    +0.000 A 
ENDROOT
BRANCH   3  11
ATOM      8  O   UNL     1     113.341 127.599 136.612  0.00  0.00    +0.000 OA
ATOM      9  O   UNL     1     111.259 127.622 135.274  0.00  0.00    +0.000 OA
ATOM     10  O   UNL     1     111.045 126.219 135.529  0.00  0.00    +0.000 OA
ATOM     11  C   UNL     1     113.087 128.299 136.255  0.00  0.00    +0.000 A 
ATOM     12  C   UNL     1     112.900 126.908 136.523  0.00  0.00    +0.000 A 
ATOM     13  C   UNL     1     112.393 128.307 135.809  0.00  0.00    +0.000 A 
ATOM     14  C   UNL     1     112.206 126.916 136.077  0.00  0.00    +0.000 A 
ATOM     15  C   UNL     1     111.953 127.615 135.720  0.00  0.00    +0.000 A 
ATOM     16  C   UNL     1     113.174 126.185 136.899  0.00  0.00    +0.000 A 
ATOM     17  C   UNL     1     111.738 126.201 135.976  0.00  0.00    +0.000 A 
ATOM     18  C   UNL     1     112.719 125.462 136.810  0.00  0.00    +0.000 A 
ATOM     19  C   UNL     1     111.997 125.470 136.346  0.00  0.00    +0.000 A 
BRANCH  16  20
ATOM     20  O   UNL     1     113.869 126.187 137.343  0.00  0.00    +0.000 OA
ATOM     21  C   UNL     1     113.841 126.043 138.155  0.00  0.00    +0.000 C 
ENDBRANCH  16  20
BRANCH  18  22
ATOM     22  O   UNL     1     112.976 124.764 137.168  0.00  0.00    +0.000 OA
ATOM     23  C   UNL     1     112.711 124.035 136.887  0.00  0.00    +0.000 C 
ENDBRANCH  18  22
ENDBRANCH   3  11
BRANCH   2  24
ATOM     24  O   UNL     1     112.756 129.332 137.498  0.00  0.00    +0.000 OA
BRANCH  24  33
ATOM     25  O   UNL     1     113.415 129.452 138.761  0.00  0.00    +0.000 OA
ATOM     26  O   UNL     1     111.585 130.905 139.577  0.00  0.00    +0.000 OA
ATOM     27  O   UNL     1     111.536 130.301 138.043  0.00  0.00    +0.000 OA
ATOM     28  O   UNL     1     112.854 130.540 140.568  0.00  0.00    +0.000 OA
ATOM     29  C   UNL     1     112.195 130.421 139.305  0.00  0.00    +0.000 C 
ATOM     30  C   UNL     1     112.171 130.118 138.537  0.00  0.00    +0.000 C 
ATOM     31  C   UNL     1     112.830 130.238 139.800  0.00  0.00    +0.000 C 
ATOM     32  C   UNL     1     113.439 129.754 139.527  0.00  0.00    +0.000 C 
ATOM     33  C   UNL     1     112.781 129.634 138.265  0.00  0.00    +0.000 C 
BRANCH  32  36
ATOM     34  O   UNL     1     114.681 130.118 140.134  0.00  0.00    +0.000 OA
ATOM     35  O   UNL     1     114.100 128.842 140.408  0.00  0.00    +0.000 OA
ATOM     36  C   UNL     1     114.074 129.572 140.023  0.00  0.00    +0.000 C 
ENDBRANCH  32  36
ENDBRANCH  24  33
ENDBRANCH   2  24
TORSDOF 6
ENDMDL
MODEL 9
REMARK VINA RESULT:      -8.6      1.829      5.046
REMARK  Name = 44258546
REMARK  6 active torsions:
REMARK  status: ('A' for Active; 'I' for Inactive)
REMARK    1  A    between atoms: O_2  and  C_18
REMARK    2  A    between atoms: O_2  and  C_20
REMARK    3  A    between atoms: O_10  and  C_31
REMARK    4  A    between atoms: O_11  and  C_33
REMARK    5  A    between atoms: C_17  and  C_19
REMARK    6  A    between atoms: C_21  and  C_23
REMARK                            x       y       z     vdW  Elec       q    Type
REMARK                         _______ _______ _______ _____ _____    ______ ____
ROOT
ATOM      1  O   UNL     1     114.093 126.594 135.955  0.00  0.00    +0.000 OA
ATOM      2  C   UNL     1     113.275 126.387 137.968  0.00  0.00    +0.000 A 
ATOM      3  C   UNL     1     113.392 126.660 137.198  0.00  0.00    +0.000 A 
ATOM      4  C   UNL     1     113.743 125.775 138.263  0.00  0.00    +0.000 A 
ATOM      5  C   UNL     1     113.976 126.321 136.724  0.00  0.00    +0.000 A 
ATOM      6  C   UNL     1     114.327 125.436 137.790  0.00  0.00    +0.000 A 
ATOM      7  C   UNL     1     114.443 125.709 137.020  0.00  0.00    +0.000 A 
ENDROOT
BRANCH   3  11
ATOM      8  O   UNL     1     113.134 128.058 137.047  0.00  0.00    +0.000 OA
ATOM      9  O   UNL     1     111.105 127.541 135.727  0.00  0.00    +0.000 OA
ATOM     10  O   UNL     1     110.820 128.945 135.560  0.00  0.00    +0.000 OA
ATOM     11  C   UNL     1     112.924 127.272 136.902  0.00  0.00    +0.000 A 
ATOM     12  C   UNL     1     112.666 128.670 136.752  0.00  0.00    +0.000 A 
ATOM     13  C   UNL     1     112.248 127.100 136.462  0.00  0.00    +0.000 A 
ATOM     14  C   UNL     1     111.990 128.497 136.312  0.00  0.00    +0.000 A 
ATOM     15  C   UNL     1     111.781 127.713 136.167  0.00  0.00    +0.000 A 
ATOM     16  C   UNL     1     112.894 129.483 136.910  0.00  0.00    +0.000 A 
ATOM     17  C   UNL     1     111.495 129.127 135.999  0.00  0.00    +0.000 A 
ATOM     18  C   UNL     1     112.411 130.125 136.605  0.00  0.00    +0.000 A 
ATOM     19  C   UNL     1     111.707 129.946 136.147  0.00  0.00    +0.000 A 
BRANCH  16  20
ATOM     20  O   UNL     1     113.572 129.646 137.351  0.00  0.00    +0.000 OA
ATOM     21  C   UNL     1     114.221 130.008 136.991  0.00  0.00    +0.000 C 
ENDBRANCH  16  20
BRANCH  18  22
ATOM     22  O   UNL     1     112.623 130.909 136.752  0.00  0.00    +0.000 OA
ATOM     23  C   UNL     1     112.039 131.476 136.885  0.00  0.00    +0.000 C 
ENDBRANCH  18  22
ENDBRANCH   3  11
BRANCH   2  24
ATOM     24  O   UNL     1     112.691 126.726 138.442  0.00  0.00    +0.000 OA
BRANCH  24  33
ATOM     25  O   UNL     1     113.478 127.148 139.557  0.00  0.00    +0.000 OA
ATOM     26  O   UNL     1     111.784 126.217 141.104  0.00  0.00    +0.000 OA
ATOM     27  O   UNL     1     111.562 126.105 139.473  0.00  0.00    +0.000 OA
ATOM     28  O   UNL     1     113.136 126.949 141.704  0.00  0.00    +0.000 OA
ATOM     29  C   UNL     1     112.349 126.527 140.588  0.00  0.00    +0.000 C 
ATOM     30  C   UNL     1     112.238 126.472 139.772  0.00  0.00    +0.000 C 
ATOM     31  C   UNL     1     113.025 126.893 140.888  0.00  0.00    +0.000 C 
ATOM     32  C   UNL     1     113.589 127.204 140.372  0.00  0.00    +0.000 C 
ATOM     33  C   UNL     1     112.802 126.782 139.257  0.00  0.00    +0.000 C 
BRANCH  32  36
ATOM     34  O   UNL     1     114.310 128.392 140.703  0.00  0.00    +0.000 OA
ATOM     35  O   UNL     1     114.895 127.112 140.944  0.00  0.00    +0.000 OA
ATOM     36  C   UNL     1     114.265 127.570 140.673  0.00  0.00    +0.000 C 
ENDBRANCH  32  36
ENDBRANCH  24  33
ENDBRANCH   2  24
TORSDOF 6
ENDMDL
MODEL 10
REMARK VINA RESULT:      -8.6      1.430      2.278
REMARK  Name = 44258546
REMARK  6 active torsions:
REMARK  status: ('A' for Active; 'I' for Inactive)
REMARK    1  A    between atoms: O_2  and  C_18
REMARK    2  A    between atoms: O_2  and  C_20
REMARK    3  A    between atoms: O_10  and  C_31
REMARK    4  A    between atoms: O_11  and  C_33
REMARK    5  A    between atoms: C_17  and  C_19
REMARK    6  A    between atoms: C_21  and  C_23
REMARK                            x       y       z     vdW  Elec       q    Type
REMARK                         _______ _______ _______ _____ _____    ______ ____
ROOT
ATOM      1  O   UNL     1     113.945 128.826 135.957  0.00  0.00    +0.000 OA
ATOM      2  C   UNL     1     111.892 128.136 135.684  0.00  0.00    +0.000 A 
ATOM      3  C   UNL     1     112.658 128.207 135.984  0.00  0.00    +0.000 A 
ATOM      4  C   UNL     1     111.650 128.613 135.056  0.00  0.00    +0.000 A 
ATOM      5  C   UNL     1     113.180 128.755 135.657  0.00  0.00    +0.000 A 
ATOM      6  C   UNL     1     112.173 129.160 134.728  0.00  0.00    +0.000 A 
ATOM      7  C   UNL     1     112.937 129.231 135.028  0.00  0.00    +0.000 A 
ENDROOT
BRANCH   3  11
ATOM      8  O   UNL     1     112.801 127.992 137.390  0.00  0.00    +0.000 OA
ATOM      9  O   UNL     1     113.820 125.780 136.947  0.00  0.00    +0.000 OA
ATOM     10  O   UNL     1     113.976 125.537 138.360  0.00  0.00    +0.000 OA
ATOM     11  C   UNL     1     112.899 127.731 136.613  0.00  0.00    +0.000 A 
ATOM     12  C   UNL     1     113.043 127.515 138.018  0.00  0.00    +0.000 A 
ATOM     13  C   UNL     1     113.239 126.993 136.465  0.00  0.00    +0.000 A 
ATOM     14  C   UNL     1     113.382 126.778 137.870  0.00  0.00    +0.000 A 
ATOM     15  C   UNL     1     113.480 126.517 137.094  0.00  0.00    +0.000 A 
ATOM     16  C   UNL     1     112.936 127.798 138.823  0.00  0.00    +0.000 A 
ATOM     17  C   UNL     1     113.638 126.272 138.517  0.00  0.00    +0.000 A 
ATOM     18  C   UNL     1     113.185 127.306 139.482  0.00  0.00    +0.000 A 
ATOM     19  C   UNL     1     113.539 126.539 139.328  0.00  0.00    +0.000 A 
BRANCH  16  20
ATOM     20  O   UNL     1     112.595 128.537 138.961  0.00  0.00    +0.000 OA
ATOM     21  C   UNL     1     111.863 128.589 139.338  0.00  0.00    +0.000 C 
ENDBRANCH  16  20
BRANCH  18  22
ATOM     22  O   UNL     1     113.086 127.571 140.257  0.00  0.00    +0.000 OA
ATOM     23  C   UNL     1     113.516 127.223 140.869  0.00  0.00    +0.000 C 
ENDBRANCH  18  22
ENDBRANCH   3  11
BRANCH   2  24
ATOM     24  O   UNL     1     111.369 127.588 136.012  0.00  0.00    +0.000 OA
BRANCH  24  33
ATOM     25  O   UNL     1     110.237 128.421 136.272  0.00  0.00    +0.000 OA
ATOM     26  O   UNL     1     108.752 126.717 135.263  0.00  0.00    +0.000 OA
ATOM     27  O   UNL     1     110.379 126.452 135.339  0.00  0.00    +0.000 OA
ATOM     28  O   UNL     1     108.115 128.118 135.860  0.00  0.00    +0.000 OA
ATOM     29  C   UNL     1     109.247 127.285 135.599  0.00  0.00    +0.000 C 
ATOM     30  C   UNL     1     110.061 127.153 135.638  0.00  0.00    +0.000 C 
ATOM     31  C   UNL     1     108.930 127.985 135.898  0.00  0.00    +0.000 C 
ATOM     32  C   UNL     1     109.425 128.553 136.234  0.00  0.00    +0.000 C 
ATOM     33  C   UNL     1     110.557 127.721 135.974  0.00  0.00    +0.000 C 
BRANCH  32  36
ATOM     34  O   UNL     1     108.895 129.863 136.018  0.00  0.00    +0.000 OA
ATOM     35  O   UNL     1     108.997 129.344 137.345  0.00  0.00    +0.000 OA
ATOM     36  C   UNL     1     109.106 129.254 136.532  0.00  0.00    +0.000 C 
ENDBRANCH  32  36
ENDBRANCH  24  33
ENDBRANCH   2  24
TORSDOF 6
ENDMDL
