MODEL 1
REMARK VINA RESULT:      -9.2      0.000      0.000
REMARK  Name = 
REMARK  8 active torsions:
REMARK  status: ('A' for Active; 'I' for Inactive)
REMARK    1  A    between atoms: C_6  and  C_9
REMARK    2  A    between atoms: C_10  and  C_11
REMARK    3  A    between atoms: C_11  and  C_12
REMARK    4  A    between atoms: C_17  and  O_20
REMARK    5  A    between atoms: O_20  and  C_26
REMARK    6  A    between atoms: O_24  and  C_29
REMARK    7  A    between atoms: O_24  and  C_40
REMARK    8  A    between atoms: C_30  and  C_31
REMARK                            x       y       z     vdW  Elec       q    Type
REMARK                         _______ _______ _______ _____ _____    ______ ____
ROOT
ATOM      1  O   UNL     1     104.523 127.964 142.183  0.00  0.00    +0.000 OA
ENDROOT
BRANCH   1   5
ATOM      2  O   UNL     1     106.020 128.717 141.743  0.00  0.00    +0.000 OA
ATOM      3  O   UNL     1     105.530 126.456 143.029  0.00  0.00    +0.000 OA
ATOM      4  O   UNL     1     107.530 126.455 143.011  0.00  0.00    +0.000 OA
ATOM      5  C   UNL     1     105.524 127.963 142.175  0.00  0.00    +0.000 C 
ATOM      6  C   UNL     1     106.026 127.209 142.597  0.00  0.00    +0.000 C 
ATOM      7  C   UNL     1     107.026 127.209 142.589  0.00  0.00    +0.000 C 
ATOM      8  C   UNL     1     107.523 127.962 142.157  0.00  0.00    +0.000 C 
ATOM      9  C   UNL     1     107.020 128.717 141.735  0.00  0.00    +0.000 C 
BRANCH   9  11
ATOM     10  O   UNL     1     107.012 130.202 140.843  0.00  0.00    +0.000 OA
ATOM     11  C   UNL     1     107.516 129.470 141.303  0.00  0.00    +0.000 C 
ENDBRANCH   9  11
BRANCH   8  12
ATOM     12  O   UNL     1     108.523 127.962 142.149  0.00  0.00    +0.000 OA
BRANCH  12  21
ATOM     13  O   UNL     1     112.517 128.155 142.247  0.00  0.00    +0.000 OA
ATOM     14  O   UNL     1     109.977 128.581 142.856  0.00  0.00    +0.000 OA
ATOM     15  O   UNL     1     111.605 127.015 140.881  0.00  0.00    +0.000 OA
ATOM     16  O   UNL     1     109.607 126.918 140.832  0.00  0.00    +0.000 OA
ATOM     17  C   UNL     1     111.519 128.107 142.223  0.00  0.00    +0.000 C 
ATOM     18  C   UNL     1     111.062 127.537 141.540  0.00  0.00    +0.000 C 
ATOM     19  C   UNL     1     110.977 128.629 142.881  0.00  0.00    +0.000 C 
ATOM     20  C   UNL     1     110.064 127.488 141.515  0.00  0.00    +0.000 C 
ATOM     21  C   UNL     1     109.522 128.010 142.173  0.00  0.00    +0.000 C 
ENDBRANCH  12  21
ENDBRANCH   8  12
ENDBRANCH   1   5
BRANCH   1  26
ATOM     22  C   UNL     1     102.898 130.440 141.707  0.00  0.00    +0.000 A 
ATOM     23  C   UNL     1     103.279 130.259 142.614  0.00  0.00    +0.000 A 
ATOM     24  C   UNL     1     103.821 129.433 142.772  0.00  0.00    +0.000 A 
ATOM     25  C   UNL     1     103.058 129.795 140.960  0.00  0.00    +0.000 A 
ATOM     26  C   UNL     1     103.982 128.789 142.025  0.00  0.00    +0.000 A 
ATOM     27  C   UNL     1     103.600 128.970 141.118  0.00  0.00    +0.000 A 
ATOM     28  O   UNL     1     102.676 129.976 140.053  0.00  0.00    +0.000 OA
BRANCH  22  29
ATOM     29  C   UNL     1     102.356 131.265 141.549  0.00  0.00    +0.000 C 
ATOM     30  O   UNL     1     101.358 131.228 141.611  0.00  0.00    +0.000 OA
BRANCH  29  32
ATOM     31  C   UNL     1     102.394 132.996 141.596  0.00  0.00    +0.000 C 
ATOM     32  C   UNL     1     102.811 132.127 141.328  0.00  0.00    +0.000 C 
BRANCH  31  38
ATOM     33  C   UNL     1     103.760 135.583 140.933  0.00  0.00    +0.000 A 
ATOM     34  C   UNL     1     104.234 134.894 141.482  0.00  0.00    +0.000 A 
ATOM     35  C   UNL     1     102.831 135.410 140.605  0.00  0.00    +0.000 A 
ATOM     36  C   UNL     1     103.778 134.031 141.703  0.00  0.00    +0.000 A 
ATOM     37  C   UNL     1     102.376 134.547 140.826  0.00  0.00    +0.000 A 
ATOM     38  C   UNL     1     102.849 133.858 141.375  0.00  0.00    +0.000 A 
ATOM     39  O   UNL     1     104.216 136.445 140.712  0.00  0.00    +0.000 OA
ATOM     40  O   UNL     1     105.162 135.067 141.809  0.00  0.00    +0.000 OA
ENDBRANCH  31  38
ENDBRANCH  29  32
ENDBRANCH  22  29
ENDBRANCH   1  26
TORSDOF 8
ENDMDL
MODEL 2
REMARK VINA RESULT:      -9.1      5.657      7.568
REMARK  Name = 
REMARK  8 active torsions:
REMARK  status: ('A' for Active; 'I' for Inactive)
REMARK    1  A    between atoms: C_6  and  C_9
REMARK    2  A    between atoms: C_10  and  C_11
REMARK    3  A    between atoms: C_11  and  C_12
REMARK    4  A    between atoms: C_17  and  O_20
REMARK    5  A    between atoms: O_20  and  C_26
REMARK    6  A    between atoms: O_24  and  C_29
REMARK    7  A    between atoms: O_24  and  C_40
REMARK    8  A    between atoms: C_30  and  C_31
REMARK                            x       y       z     vdW  Elec       q    Type
REMARK                         _______ _______ _______ _____ _____    ______ ____
ROOT
ATOM      1  O   UNL     1     108.815 126.459 141.563  0.00  0.00    +0.000 OA
ENDROOT
BRANCH   1   5
ATOM      2  O   UNL     1     109.221 126.546 139.882  0.00  0.00    +0.000 OA
ATOM      3  O   UNL     1     110.709 126.890 142.043  0.00  0.00    +0.000 OA
ATOM      4  O   UNL     1     112.061 127.194 140.601  0.00  0.00    +0.000 OA
ATOM      5  C   UNL     1     109.491 126.611 140.842  0.00  0.00    +0.000 C 
ATOM      6  C   UNL     1     110.438 126.826 141.082  0.00  0.00    +0.000 C 
ATOM      7  C   UNL     1     111.114 126.978 140.361  0.00  0.00    +0.000 C 
ATOM      8  C   UNL     1     110.843 126.914 139.401  0.00  0.00    +0.000 C 
ATOM      9  C   UNL     1     109.897 126.698 139.161  0.00  0.00    +0.000 C 
BRANCH   9  11
ATOM     10  O   UNL     1     108.673 126.445 137.961  0.00  0.00    +0.000 OA
ATOM     11  C   UNL     1     109.626 126.634 138.200  0.00  0.00    +0.000 C 
ENDBRANCH   9  11
BRANCH   8  12
ATOM     12  O   UNL     1     111.519 127.066 138.680  0.00  0.00    +0.000 OA
BRANCH  12  21
ATOM     13  O   UNL     1     114.157 127.899 135.790  0.00  0.00    +0.000 OA
ATOM     14  O   UNL     1     112.237 128.201 137.586  0.00  0.00    +0.000 OA
ATOM     15  O   UNL     1     114.039 126.046 136.532  0.00  0.00    +0.000 OA
ATOM     16  O   UNL     1     112.721 125.629 137.977  0.00  0.00    +0.000 OA
ATOM     17  C   UNL     1     113.498 127.691 136.512  0.00  0.00    +0.000 C 
ATOM     18  C   UNL     1     113.439 126.765 136.884  0.00  0.00    +0.000 C 
ATOM     19  C   UNL     1     112.897 128.410 136.863  0.00  0.00    +0.000 C 
ATOM     20  C   UNL     1     112.780 126.556 137.606  0.00  0.00    +0.000 C 
ATOM     21  C   UNL     1     112.179 127.274 137.957  0.00  0.00    +0.000 C 
ENDBRANCH  12  21
ENDBRANCH   8  12
ENDBRANCH   1   5
BRANCH   1  26
ATOM     22  C   UNL     1     106.383 124.746 141.173  0.00  0.00    +0.000 A 
ATOM     23  C   UNL     1     106.284 125.731 141.317  0.00  0.00    +0.000 A 
ATOM     24  C   UNL     1     107.094 126.302 141.447  0.00  0.00    +0.000 A 
ATOM     25  C   UNL     1     107.294 124.332 141.159  0.00  0.00    +0.000 A 
ATOM     26  C   UNL     1     108.005 125.888 141.433  0.00  0.00    +0.000 A 
ATOM     27  C   UNL     1     108.104 124.903 141.289  0.00  0.00    +0.000 A 
ATOM     28  O   UNL     1     107.393 123.348 141.015  0.00  0.00    +0.000 OA
BRANCH  22  29
ATOM     29  C   UNL     1     105.573 124.175 141.043  0.00  0.00    +0.000 C 
ATOM     30  O   UNL     1     105.203 123.650 141.809  0.00  0.00    +0.000 OA
BRANCH  29  32
ATOM     31  C   UNL     1     104.305 123.580 140.023  0.00  0.00    +0.000 C 
ATOM     32  C   UNL     1     105.132 124.130 140.147  0.00  0.00    +0.000 C 
BRANCH  31  38
ATOM     33  C   UNL     1     102.983 123.443 137.334  0.00  0.00    +0.000 A 
ATOM     34  C   UNL     1     102.426 123.508 138.162  0.00  0.00    +0.000 A 
ATOM     35  C   UNL     1     103.981 123.425 137.402  0.00  0.00    +0.000 A 
ATOM     36  C   UNL     1     102.867 123.554 139.059  0.00  0.00    +0.000 A 
ATOM     37  C   UNL     1     104.421 123.470 138.299  0.00  0.00    +0.000 A 
ATOM     38  C   UNL     1     103.865 123.535 139.127  0.00  0.00    +0.000 A 
ATOM     39  O   UNL     1     102.542 123.398 136.437  0.00  0.00    +0.000 OA
ATOM     40  O   UNL     1     101.429 123.527 138.094  0.00  0.00    +0.000 OA
ENDBRANCH  31  38
ENDBRANCH  29  32
ENDBRANCH  22  29
ENDBRANCH   1  26
TORSDOF 8
ENDMDL
MODEL 3
REMARK VINA RESULT:      -9.1      6.788     10.148
REMARK  Name = 
REMARK  8 active torsions:
REMARK  status: ('A' for Active; 'I' for Inactive)
REMARK    1  A    between atoms: C_6  and  C_9
REMARK    2  A    between atoms: C_10  and  C_11
REMARK    3  A    between atoms: C_11  and  C_12
REMARK    4  A    between atoms: C_17  and  O_20
REMARK    5  A    between atoms: O_20  and  C_26
REMARK    6  A    between atoms: O_24  and  C_29
REMARK    7  A    between atoms: O_24  and  C_40
REMARK    8  A    between atoms: C_30  and  C_31
REMARK                            x       y       z     vdW  Elec       q    Type
REMARK                         _______ _______ _______ _____ _____    ______ ____
ROOT
ATOM      1  O   UNL     1     111.395 130.273 141.857  0.00  0.00    +0.000 OA
ENDROOT
BRANCH   1   5
ATOM      2  O   UNL     1     111.562 130.083 143.570  0.00  0.00    +0.000 OA
ATOM      3  O   UNL     1     111.488 132.260 142.068  0.00  0.00    +0.000 OA
ATOM      4  O   UNL     1     111.701 133.063 143.887  0.00  0.00    +0.000 OA
ATOM      5  C   UNL     1     111.501 130.675 142.766  0.00  0.00    +0.000 C 
ATOM      6  C   UNL     1     111.548 131.668 142.871  0.00  0.00    +0.000 C 
ATOM      7  C   UNL     1     111.654 132.070 143.781  0.00  0.00    +0.000 C 
ATOM      8  C   UNL     1     111.715 131.478 144.585  0.00  0.00    +0.000 C 
ATOM      9  C   UNL     1     111.668 130.484 144.480  0.00  0.00    +0.000 C 
BRANCH   9  11
ATOM     10  O   UNL     1     111.694 128.898 145.175  0.00  0.00    +0.000 OA
ATOM     11  C   UNL     1     111.728 129.892 145.283  0.00  0.00    +0.000 C 
ENDBRANCH   9  11
BRANCH   8  12
ATOM     12  O   UNL     1     111.821 131.879 145.494  0.00  0.00    +0.000 OA
BRANCH  12  21
ATOM     13  O   UNL     1     112.435 133.346 149.166  0.00  0.00    +0.000 OA
ATOM     14  O   UNL     1     112.850 132.093 146.871  0.00  0.00    +0.000 OA
ATOM     15  O   UNL     1     110.686 133.650 148.247  0.00  0.00    +0.000 OA
ATOM     16  O   UNL     1     110.378 132.917 146.412  0.00  0.00    +0.000 OA
ATOM     17  C   UNL     1     112.282 132.979 148.248  0.00  0.00    +0.000 C 
ATOM     18  C   UNL     1     111.407 133.131 147.788  0.00  0.00    +0.000 C 
ATOM     19  C   UNL     1     113.004 132.460 147.789  0.00  0.00    +0.000 C 
ATOM     20  C   UNL     1     111.253 132.765 146.871  0.00  0.00    +0.000 C 
ATOM     21  C   UNL     1     111.975 132.246 146.413  0.00  0.00    +0.000 C 
ENDBRANCH  12  21
ENDBRANCH   8  12
ENDBRANCH   1   5
BRANCH   1  26
ATOM     22  C   UNL     1     113.168 128.082 140.832  0.00  0.00    +0.000 A 
ATOM     23  C   UNL     1     112.249 127.868 141.162  0.00  0.00    +0.000 A 
ATOM     24  C   UNL     1     111.658 128.598 141.503  0.00  0.00    +0.000 A 
ATOM     25  C   UNL     1     113.497 129.026 140.844  0.00  0.00    +0.000 A 
ATOM     26  C   UNL     1     111.986 129.543 141.515  0.00  0.00    +0.000 A 
ATOM     27  C   UNL     1     112.906 129.757 141.186  0.00  0.00    +0.000 A 
ATOM     28  O   UNL     1     114.416 129.240 140.515  0.00  0.00    +0.000 OA
BRANCH  22  29
ATOM     29  C   UNL     1     113.760 127.351 140.491  0.00  0.00    +0.000 C 
ATOM     30  O   UNL     1     114.640 127.174 140.930  0.00  0.00    +0.000 OA
BRANCH  29  32
ATOM     31  C   UNL     1     114.151 126.309 139.164  0.00  0.00    +0.000 C 
ATOM     32  C   UNL     1     113.470 126.798 139.710  0.00  0.00    +0.000 C 
BRANCH  31  38
ATOM     33  C   UNL     1     113.283 124.649 136.820  0.00  0.00    +0.000 A 
ATOM     34  C   UNL     1     112.599 125.093 137.399  0.00  0.00    +0.000 A 
ATOM     35  C   UNL     1     114.256 124.758 137.023  0.00  0.00    +0.000 A 
ATOM     36  C   UNL     1     112.888 125.646 138.180  0.00  0.00    +0.000 A 
ATOM     37  C   UNL     1     114.546 125.312 137.804  0.00  0.00    +0.000 A 
ATOM     38  C   UNL     1     113.862 125.756 138.383  0.00  0.00    +0.000 A 
ATOM     39  O   UNL     1     112.994 124.096 136.039  0.00  0.00    +0.000 OA
ATOM     40  O   UNL     1     111.626 124.984 137.197  0.00  0.00    +0.000 OA
ENDBRANCH  31  38
ENDBRANCH  29  32
ENDBRANCH  22  29
ENDBRANCH   1  26
TORSDOF 8
ENDMDL
MODEL 4
REMARK VINA RESULT:      -8.8      4.728      7.077
REMARK  Name = 
REMARK  8 active torsions:
REMARK  status: ('A' for Active; 'I' for Inactive)
REMARK    1  A    between atoms: C_6  and  C_9
REMARK    2  A    between atoms: C_10  and  C_11
REMARK    3  A    between atoms: C_11  and  C_12
REMARK    4  A    between atoms: C_17  and  O_20
REMARK    5  A    between atoms: O_20  and  C_26
REMARK    6  A    between atoms: O_24  and  C_29
REMARK    7  A    between atoms: O_24  and  C_40
REMARK    8  A    between atoms: C_30  and  C_31
REMARK                            x       y       z     vdW  Elec       q    Type
REMARK                         _______ _______ _______ _____ _____    ______ ____
ROOT
ATOM      1  O   UNL     1     111.295 128.285 141.163  0.00  0.00    +0.000 OA
ENDROOT
BRANCH   1   5
ATOM      2  O   UNL     1     109.587 128.171 141.422  0.00  0.00    +0.000 OA
ATOM      3  O   UNL     1     111.401 126.296 140.977  0.00  0.00    +0.000 OA
ATOM      4  O   UNL     1     109.744 125.188 141.143  0.00  0.00    +0.000 OA
ATOM      5  C   UNL     1     110.467 127.731 141.246  0.00  0.00    +0.000 C 
ATOM      6  C   UNL     1     110.520 126.736 141.153  0.00  0.00    +0.000 C 
ATOM      7  C   UNL     1     109.692 126.182 141.236  0.00  0.00    +0.000 C 
ATOM      8  C   UNL     1     108.812 126.622 141.412  0.00  0.00    +0.000 C 
ATOM      9  C   UNL     1     108.758 127.616 141.505  0.00  0.00    +0.000 C 
BRANCH   9  11
ATOM     10  O   UNL     1     107.668 128.939 141.259  0.00  0.00    +0.000 OA
ATOM     11  C   UNL     1     107.878 128.057 141.681  0.00  0.00    +0.000 C 
ENDBRANCH   9  11
BRANCH   8  12
ATOM     12  O   UNL     1     107.983 126.068 141.495  0.00  0.00    +0.000 OA
BRANCH  12  21
ATOM     13  O   UNL     1     104.766 123.749 142.017  0.00  0.00    +0.000 OA
ATOM     14  O   UNL     1     106.888 125.238 142.549  0.00  0.00    +0.000 OA
ATOM     15  O   UNL     1     105.349 124.249 140.171  0.00  0.00    +0.000 OA
ATOM     16  O   UNL     1     106.957 125.409 139.910  0.00  0.00    +0.000 OA
ATOM     17  C   UNL     1     105.570 124.328 141.887  0.00  0.00    +0.000 C 
ATOM     18  C   UNL     1     105.862 124.579 140.964  0.00  0.00    +0.000 C 
ATOM     19  C   UNL     1     106.083 124.658 142.680  0.00  0.00    +0.000 C 
ATOM     20  C   UNL     1     106.665 125.158 140.833  0.00  0.00    +0.000 C 
ATOM     21  C   UNL     1     107.179 125.488 141.626  0.00  0.00    +0.000 C 
ENDBRANCH  12  21
ENDBRANCH   8  12
ENDBRANCH   1   5
BRANCH   1  26
ATOM     22  C   UNL     1     111.733 130.796 142.746  0.00  0.00    +0.000 A 
ATOM     23  C   UNL     1     112.015 129.913 143.121  0.00  0.00    +0.000 A 
ATOM     24  C   UNL     1     111.869 129.076 142.593  0.00  0.00    +0.000 A 
ATOM     25  C   UNL     1     111.305 130.842 141.843  0.00  0.00    +0.000 A 
ATOM     26  C   UNL     1     111.441 129.122 141.691  0.00  0.00    +0.000 A 
ATOM     27  C   UNL     1     111.159 130.005 141.316  0.00  0.00    +0.000 A 
ATOM     28  O   UNL     1     111.023 131.725 141.468  0.00  0.00    +0.000 OA
BRANCH  22  29
ATOM     29  C   UNL     1     111.878 131.632 143.273  0.00  0.00    +0.000 C 
ATOM     30  O   UNL     1     112.600 132.272 143.007  0.00  0.00    +0.000 OA
BRANCH  29  32
ATOM     31  C   UNL     1     111.472 132.648 144.616  0.00  0.00    +0.000 C 
ATOM     32  C   UNL     1     111.303 131.830 144.067  0.00  0.00    +0.000 C 
BRANCH  31  38
ATOM     33  C   UNL     1     109.745 133.240 146.997  0.00  0.00    +0.000 A 
ATOM     34  C   UNL     1     110.738 133.344 147.061  0.00  0.00    +0.000 A 
ATOM     35  C   UNL     1     109.328 132.939 146.139  0.00  0.00    +0.000 A 
ATOM     36  C   UNL     1     111.313 133.147 146.267  0.00  0.00    +0.000 A 
ATOM     37  C   UNL     1     109.904 132.742 145.346  0.00  0.00    +0.000 A 
ATOM     38  C   UNL     1     110.896 132.846 145.410  0.00  0.00    +0.000 A 
ATOM     39  O   UNL     1     109.170 133.438 147.790  0.00  0.00    +0.000 OA
ATOM     40  O   UNL     1     111.155 133.646 147.918  0.00  0.00    +0.000 OA
ENDBRANCH  31  38
ENDBRANCH  29  32
ENDBRANCH  22  29
ENDBRANCH   1  26
TORSDOF 8
ENDMDL
MODEL 5
REMARK VINA RESULT:      -8.8      5.669      7.633
REMARK  Name = 
REMARK  8 active torsions:
REMARK  status: ('A' for Active; 'I' for Inactive)
REMARK    1  A    between atoms: C_6  and  C_9
REMARK    2  A    between atoms: C_10  and  C_11
REMARK    3  A    between atoms: C_11  and  C_12
REMARK    4  A    between atoms: C_17  and  O_20
REMARK    5  A    between atoms: O_20  and  C_26
REMARK    6  A    between atoms: O_24  and  C_29
REMARK    7  A    between atoms: O_24  and  C_40
REMARK    8  A    between atoms: C_30  and  C_31
REMARK                            x       y       z     vdW  Elec       q    Type
REMARK                         _______ _______ _______ _____ _____    ______ ____
ROOT
ATOM      1  O   UNL     1     110.243 127.751 142.498  0.00  0.00    +0.000 OA
ENDROOT
BRANCH   1   5
ATOM      2  O   UNL     1     110.909 127.900 140.906  0.00  0.00    +0.000 OA
ATOM      3  O   UNL     1     108.955 126.374 141.830  0.00  0.00    +0.000 OA
ATOM      4  O   UNL     1     108.976 125.835 139.904  0.00  0.00    +0.000 OA
ATOM      5  C   UNL     1     110.254 127.481 141.535  0.00  0.00    +0.000 C 
ATOM      6  C   UNL     1     109.609 126.793 141.202  0.00  0.00    +0.000 C 
ATOM      7  C   UNL     1     109.620 126.524 140.239  0.00  0.00    +0.000 C 
ATOM      8  C   UNL     1     110.275 126.943 139.610  0.00  0.00    +0.000 C 
ATOM      9  C   UNL     1     110.920 127.631 139.943  0.00  0.00    +0.000 C 
BRANCH   9  11
ATOM     10  O   UNL     1     112.081 128.867 139.592  0.00  0.00    +0.000 OA
ATOM     11  C   UNL     1     111.575 128.050 139.314  0.00  0.00    +0.000 C 
ENDBRANCH   9  11
BRANCH   8  12
ATOM     12  O   UNL     1     110.286 126.673 138.647  0.00  0.00    +0.000 OA
BRANCH  12  21
ATOM     13  O   UNL     1     110.104 125.663 134.780  0.00  0.00    +0.000 OA
ATOM     14  O   UNL     1     109.657 126.939 137.055  0.00  0.00    +0.000 OA
ATOM     15  O   UNL     1     111.271 124.628 136.030  0.00  0.00    +0.000 OA
ATOM     16  O   UNL     1     111.363 125.132 137.963  0.00  0.00    +0.000 OA
ATOM     17  C   UNL     1     110.149 125.916 135.746  0.00  0.00    +0.000 C 
ATOM     18  C   UNL     1     110.733 125.398 136.372  0.00  0.00    +0.000 C 
ATOM     19  C   UNL     1     109.611 126.687 136.088  0.00  0.00    +0.000 C 
ATOM     20  C   UNL     1     110.779 125.650 137.338  0.00  0.00    +0.000 C 
ATOM     21  C   UNL     1     110.241 126.421 137.679  0.00  0.00    +0.000 C 
ENDBRANCH  12  21
ENDBRANCH   8  12
ENDBRANCH   1   5
BRANCH   1  26
ATOM     22  C   UNL     1     111.284 130.397 143.455  0.00  0.00    +0.000 A 
ATOM     23  C   UNL     1     111.860 129.581 143.515  0.00  0.00    +0.000 A 
ATOM     24  C   UNL     1     111.513 128.699 143.196  0.00  0.00    +0.000 A 
ATOM     25  C   UNL     1     110.361 130.330 143.075  0.00  0.00    +0.000 A 
ATOM     26  C   UNL     1     110.590 128.633 142.817  0.00  0.00    +0.000 A 
ATOM     27  C   UNL     1     110.014 129.448 142.756  0.00  0.00    +0.000 A 
ATOM     28  O   UNL     1     109.785 131.145 143.014  0.00  0.00    +0.000 OA
BRANCH  22  29
ATOM     29  C   UNL     1     111.631 131.279 143.773  0.00  0.00    +0.000 C 
ATOM     30  O   UNL     1     111.965 131.952 143.114  0.00  0.00    +0.000 OA
BRANCH  29  32
ATOM     31  C   UNL     1     112.224 132.224 145.098  0.00  0.00    +0.000 C 
ATOM     32  C   UNL     1     111.643 131.487 144.751  0.00  0.00    +0.000 C 
BRANCH  31  38
ATOM     33  C   UNL     1     112.262 132.849 148.032  0.00  0.00    +0.000 A 
ATOM     34  C   UNL     1     111.505 133.169 147.462  0.00  0.00    +0.000 A 
ATOM     35  C   UNL     1     113.006 132.320 147.624  0.00  0.00    +0.000 A 
ATOM     36  C   UNL     1     111.492 132.961 146.484  0.00  0.00    +0.000 A 
ATOM     37  C   UNL     1     112.993 132.112 146.646  0.00  0.00    +0.000 A 
ATOM     38  C   UNL     1     112.236 132.432 146.076  0.00  0.00    +0.000 A 
ATOM     39  O   UNL     1     112.274 133.057 149.010  0.00  0.00    +0.000 OA
ATOM     40  O   UNL     1     110.761 133.698 147.871  0.00  0.00    +0.000 OA
ENDBRANCH  31  38
ENDBRANCH  29  32
ENDBRANCH  22  29
ENDBRANCH   1  26
TORSDOF 8
ENDMDL
MODEL 6
REMARK VINA RESULT:      -8.7      5.780      7.281
REMARK  Name = 
REMARK  8 active torsions:
REMARK  status: ('A' for Active; 'I' for Inactive)
REMARK    1  A    between atoms: C_6  and  C_9
REMARK    2  A    between atoms: C_10  and  C_11
REMARK    3  A    between atoms: C_11  and  C_12
REMARK    4  A    between atoms: C_17  and  O_20
REMARK    5  A    between atoms: O_20  and  C_26
REMARK    6  A    between atoms: O_24  and  C_29
REMARK    7  A    between atoms: O_24  and  C_40
REMARK    8  A    between atoms: C_30  and  C_31
REMARK                            x       y       z     vdW  Elec       q    Type
REMARK                         _______ _______ _______ _____ _____    ______ ____
ROOT
ATOM      1  O   UNL     1     110.882 127.995 142.792  0.00  0.00    +0.000 OA
ENDROOT
BRANCH   1   5
ATOM      2  O   UNL     1     112.141 128.209 141.622  0.00  0.00    +0.000 OA
ATOM      3  O   UNL     1     110.222 126.394 141.791  0.00  0.00    +0.000 OA
ATOM      4  O   UNL     1     111.151 125.807 140.120  0.00  0.00    +0.000 OA
ATOM      5  C   UNL     1     111.347 127.702 141.957  0.00  0.00    +0.000 C 
ATOM      6  C   UNL     1     111.016 126.901 141.457  0.00  0.00    +0.000 C 
ATOM      7  C   UNL     1     111.481 126.608 140.621  0.00  0.00    +0.000 C 
ATOM      8  C   UNL     1     112.275 127.115 140.286  0.00  0.00    +0.000 C 
ATOM      9  C   UNL     1     112.606 127.915 140.787  0.00  0.00    +0.000 C 
BRANCH   9  11
ATOM     10  O   UNL     1     113.802 129.147 141.012  0.00  0.00    +0.000 OA
ATOM     11  C   UNL     1     113.400 128.422 140.452  0.00  0.00    +0.000 C 
ENDBRANCH   9  11
BRANCH   8  12
ATOM     12  O   UNL     1     112.739 126.821 139.451  0.00  0.00    +0.000 OA
BRANCH  12  21
ATOM     13  O   UNL     1     114.582 125.425 136.186  0.00  0.00    +0.000 OA
ATOM     14  O   UNL     1     113.931 125.795 138.724  0.00  0.00    +0.000 OA
ATOM     15  O   UNL     1     113.120 126.777 136.008  0.00  0.00    +0.000 OA
ATOM     16  O   UNL     1     112.199 127.476 137.640  0.00  0.00    +0.000 OA
ATOM     17  C   UNL     1     114.122 125.773 137.002  0.00  0.00    +0.000 C 
ATOM     18  C   UNL     1     113.391 126.450 136.913  0.00  0.00    +0.000 C 
ATOM     19  C   UNL     1     114.392 125.446 137.908  0.00  0.00    +0.000 C 
ATOM     20  C   UNL     1     112.930 126.799 137.729  0.00  0.00    +0.000 C 
ATOM     21  C   UNL     1     113.200 126.472 138.634  0.00  0.00    +0.000 C 
ENDBRANCH  12  21
ENDBRANCH   8  12
ENDBRANCH   1   5
BRANCH   1  26
ATOM     22  C   UNL     1     110.973 130.822 143.792  0.00  0.00    +0.000 A 
ATOM     23  C   UNL     1     111.579 130.132 144.187  0.00  0.00    +0.000 A 
ATOM     24  C   UNL     1     111.549 129.190 143.854  0.00  0.00    +0.000 A 
ATOM     25  C   UNL     1     110.337 130.570 143.063  0.00  0.00    +0.000 A 
ATOM     26  C   UNL     1     110.912 128.938 143.126  0.00  0.00    +0.000 A 
ATOM     27  C   UNL     1     110.306 129.627 142.730  0.00  0.00    +0.000 A 
ATOM     28  O   UNL     1     109.730 131.260 142.668  0.00  0.00    +0.000 OA
BRANCH  22  29
ATOM     29  C   UNL     1     111.004 131.765 144.125  0.00  0.00    +0.000 C 
ATOM     30  O   UNL     1     111.385 132.487 143.548  0.00  0.00    +0.000 OA
BRANCH  29  32
ATOM     31  C   UNL     1     110.631 132.935 145.347  0.00  0.00    +0.000 C 
ATOM     32  C   UNL     1     110.652 131.985 145.035  0.00  0.00    +0.000 C 
BRANCH  31  38
ATOM     33  C   UNL     1     109.577 133.595 148.076  0.00  0.00    +0.000 A 
ATOM     34  C   UNL     1     110.563 133.516 147.927  0.00  0.00    +0.000 A 
ATOM     35  C   UNL     1     108.943 133.454 147.316  0.00  0.00    +0.000 A 
ATOM     36  C   UNL     1     110.914 133.296 147.017  0.00  0.00    +0.000 A 
ATOM     37  C   UNL     1     109.294 133.234 146.406  0.00  0.00    +0.000 A 
ATOM     38  C   UNL     1     110.280 133.155 146.257  0.00  0.00    +0.000 A 
ATOM     39  O   UNL     1     109.226 133.815 148.986  0.00  0.00    +0.000 OA
ATOM     40  O   UNL     1     111.197 133.657 148.687  0.00  0.00    +0.000 OA
ENDBRANCH  31  38
ENDBRANCH  29  32
ENDBRANCH  22  29
ENDBRANCH   1  26
TORSDOF 8
ENDMDL
MODEL 7
REMARK VINA RESULT:      -8.6      4.862      7.369
REMARK  Name = 
REMARK  8 active torsions:
REMARK  status: ('A' for Active; 'I' for Inactive)
REMARK    1  A    between atoms: C_6  and  C_9
REMARK    2  A    between atoms: C_10  and  C_11
REMARK    3  A    between atoms: C_11  and  C_12
REMARK    4  A    between atoms: C_17  and  O_20
REMARK    5  A    between atoms: O_20  and  C_26
REMARK    6  A    between atoms: O_24  and  C_29
REMARK    7  A    between atoms: O_24  and  C_40
REMARK    8  A    between atoms: C_30  and  C_31
REMARK                            x       y       z     vdW  Elec       q    Type
REMARK                         _______ _______ _______ _____ _____    ______ ____
ROOT
ATOM      1  O   UNL     1     108.924 126.297 141.570  0.00  0.00    +0.000 OA
ENDROOT
BRANCH   1   5
ATOM      2  O   UNL     1     109.236 126.971 140.006  0.00  0.00    +0.000 OA
ATOM      3  O   UNL     1     109.291 128.075 142.410  0.00  0.00    +0.000 OA
ATOM      4  O   UNL     1     109.786 129.638 141.265  0.00  0.00    +0.000 OA
ATOM      5  C   UNL     1     109.172 127.078 140.998  0.00  0.00    +0.000 C 
ATOM      6  C   UNL     1     109.355 127.967 141.418  0.00  0.00    +0.000 C 
ATOM      7  C   UNL     1     109.603 128.749 140.846  0.00  0.00    +0.000 C 
ATOM      8  C   UNL     1     109.667 128.641 139.854  0.00  0.00    +0.000 C 
ATOM      9  C   UNL     1     109.483 127.753 139.433  0.00  0.00    +0.000 C 
BRANCH   9  11
ATOM     10  O   UNL     1     109.037 126.916 137.984  0.00  0.00    +0.000 OA
ATOM     11  C   UNL     1     109.548 127.645 138.441  0.00  0.00    +0.000 C 
ENDBRANCH   9  11
BRANCH   8  12
ATOM     12  O   UNL     1     109.914 129.423 139.281  0.00  0.00    +0.000 OA
BRANCH  12  21
ATOM     13  O   UNL     1     111.122 132.540 137.083  0.00  0.00    +0.000 OA
ATOM     14  O   UNL     1     111.187 130.318 138.519  0.00  0.00    +0.000 OA
ATOM     15  O   UNL     1     109.182 132.308 137.508  0.00  0.00    +0.000 OA
ATOM     16  O   UNL     1     108.578 130.750 138.607  0.00  0.00    +0.000 OA
ATOM     17  C   UNL     1     110.821 131.761 137.633  0.00  0.00    +0.000 C 
ATOM     18  C   UNL     1     109.850 131.644 137.845  0.00  0.00    +0.000 C 
ATOM     19  C   UNL     1     111.489 131.098 137.970  0.00  0.00    +0.000 C 
ATOM     20  C   UNL     1     109.548 130.866 138.394  0.00  0.00    +0.000 C 
ATOM     21  C   UNL     1     110.217 130.203 138.731  0.00  0.00    +0.000 C 
ENDBRANCH  12  21
ENDBRANCH   8  12
ENDBRANCH   1   5
BRANCH   1  26
ATOM     22  C   UNL     1     106.378 124.754 141.197  0.00  0.00    +0.000 A 
ATOM     23  C   UNL     1     107.243 124.381 140.861  0.00  0.00    +0.000 A 
ATOM     24  C   UNL     1     108.091 124.895 140.985  0.00  0.00    +0.000 A 
ATOM     25  C   UNL     1     106.362 125.642 141.658  0.00  0.00    +0.000 A 
ATOM     26  C   UNL     1     108.075 125.783 141.446  0.00  0.00    +0.000 A 
ATOM     27  C   UNL     1     107.211 126.156 141.782  0.00  0.00    +0.000 A 
ATOM     28  O   UNL     1     105.497 126.015 141.994  0.00  0.00    +0.000 OA
BRANCH  22  29
ATOM     29  C   UNL     1     105.529 124.240 141.073  0.00  0.00    +0.000 C 
ATOM     30  O   UNL     1     105.126 123.746 141.843  0.00  0.00    +0.000 OA
BRANCH  29  32
ATOM     31  C   UNL     1     104.383 123.534 139.984  0.00  0.00    +0.000 C 
ATOM     32  C   UNL     1     105.084 124.220 140.178  0.00  0.00    +0.000 C 
BRANCH  31  38
ATOM     33  C   UNL     1     103.046 123.473 137.299  0.00  0.00    +0.000 A 
ATOM     34  C   UNL     1     102.497 123.579 138.128  0.00  0.00    +0.000 A 
ATOM     35  C   UNL     1     104.040 123.387 137.365  0.00  0.00    +0.000 A 
ATOM     36  C   UNL     1     102.943 123.599 139.023  0.00  0.00    +0.000 A 
ATOM     37  C   UNL     1     104.485 123.407 138.260  0.00  0.00    +0.000 A 
ATOM     38  C   UNL     1     103.937 123.513 139.089  0.00  0.00    +0.000 A 
ATOM     39  O   UNL     1     102.600 123.452 136.404  0.00  0.00    +0.000 OA
ATOM     40  O   UNL     1     101.503 123.664 138.063  0.00  0.00    +0.000 OA
ENDBRANCH  31  38
ENDBRANCH  29  32
ENDBRANCH  22  29
ENDBRANCH   1  26
TORSDOF 8
ENDMDL
MODEL 8
REMARK VINA RESULT:      -8.6      6.113      9.129
REMARK  Name = 
REMARK  8 active torsions:
REMARK  status: ('A' for Active; 'I' for Inactive)
REMARK    1  A    between atoms: C_6  and  C_9
REMARK    2  A    between atoms: C_10  and  C_11
REMARK    3  A    between atoms: C_11  and  C_12
REMARK    4  A    between atoms: C_17  and  O_20
REMARK    5  A    between atoms: O_20  and  C_26
REMARK    6  A    between atoms: O_24  and  C_29
REMARK    7  A    between atoms: O_24  and  C_40
REMARK    8  A    between atoms: C_30  and  C_31
REMARK                            x       y       z     vdW  Elec       q    Type
REMARK                         _______ _______ _______ _____ _____    ______ ____
ROOT
ATOM      1  O   UNL     1     111.243 126.937 140.776  0.00  0.00    +0.000 OA
ENDROOT
BRANCH   1   5
ATOM      2  O   UNL     1     112.085 128.315 141.403  0.00  0.00    +0.000 OA
ATOM      3  O   UNL     1     109.782 127.221 142.112  0.00  0.00    +0.000 OA
ATOM      4  O   UNL     1     109.893 128.741 143.407  0.00  0.00    +0.000 OA
ATOM      5  C   UNL     1     111.299 127.697 141.424  0.00  0.00    +0.000 C 
ATOM      6  C   UNL     1     110.568 127.838 142.091  0.00  0.00    +0.000 C 
ATOM      7  C   UNL     1     110.623 128.599 142.739  0.00  0.00    +0.000 C 
ATOM      8  C   UNL     1     111.409 129.216 142.718  0.00  0.00    +0.000 C 
ATOM      9  C   UNL     1     112.140 129.075 142.050  0.00  0.00    +0.000 C 
BRANCH   9  11
ATOM     10  O   UNL     1     113.539 129.695 141.239  0.00  0.00    +0.000 OA
ATOM     11  C   UNL     1     112.926 129.693 142.030  0.00  0.00    +0.000 C 
ENDBRANCH   9  11
BRANCH   8  12
ATOM     12  O   UNL     1     111.465 129.976 143.366  0.00  0.00    +0.000 OA
BRANCH  12  21
ATOM     13  O   UNL     1     111.826 132.883 146.091  0.00  0.00    +0.000 OA
ATOM     14  O   UNL     1     111.960 130.503 144.940  0.00  0.00    +0.000 OA
ATOM     15  O   UNL     1     111.016 133.280 144.307  0.00  0.00    +0.000 OA
ATOM     16  O   UNL     1     110.836 131.828 142.944  0.00  0.00    +0.000 OA
ATOM     17  C   UNL     1     111.736 132.156 145.410  0.00  0.00    +0.000 C 
ATOM     18  C   UNL     1     111.331 132.355 144.518  0.00  0.00    +0.000 C 
ATOM     19  C   UNL     1     112.051 131.230 145.621  0.00  0.00    +0.000 C 
ATOM     20  C   UNL     1     111.241 131.629 143.837  0.00  0.00    +0.000 C 
ATOM     21  C   UNL     1     111.555 130.703 144.048  0.00  0.00    +0.000 C 
ENDBRANCH  12  21
ENDBRANCH   8  12
ENDBRANCH   1   5
BRANCH   1  26
ATOM     22  C   UNL     1     112.493 127.033 138.051  0.00  0.00    +0.000 A 
ATOM     23  C   UNL     1     111.613 127.478 138.213  0.00  0.00    +0.000 A 
ATOM     24  C   UNL     1     111.196 127.447 139.121  0.00  0.00    +0.000 A 
ATOM     25  C   UNL     1     112.957 126.555 138.797  0.00  0.00    +0.000 A 
ATOM     26  C   UNL     1     111.660 126.969 139.868  0.00  0.00    +0.000 A 
ATOM     27  C   UNL     1     112.540 126.523 139.705  0.00  0.00    +0.000 A 
ATOM     28  O   UNL     1     113.837 126.109 138.635  0.00  0.00    +0.000 OA
BRANCH  22  29
ATOM     29  C   UNL     1     112.910 127.065 137.142  0.00  0.00    +0.000 C 
ATOM     30  O   UNL     1     112.786 126.301 136.508  0.00  0.00    +0.000 OA
BRANCH  29  32
ATOM     31  C   UNL     1     113.416 128.187 135.924  0.00  0.00    +0.000 C 
ATOM     32  C   UNL     1     113.451 127.860 136.868  0.00  0.00    +0.000 C 
BRANCH  31  38
ATOM     33  C   UNL     1     115.038 130.572 135.101  0.00  0.00    +0.000 A 
ATOM     34  C   UNL     1     114.396 130.643 135.863  0.00  0.00    +0.000 A 
ATOM     35  C   UNL     1     115.140 129.705 134.612  0.00  0.00    +0.000 A 
ATOM     36  C   UNL     1     113.855 129.848 136.138  0.00  0.00    +0.000 A 
ATOM     37  C   UNL     1     114.599 128.910 134.886  0.00  0.00    +0.000 A 
ATOM     38  C   UNL     1     113.957 128.982 135.649  0.00  0.00    +0.000 A 
ATOM     39  O   UNL     1     115.579 131.367 134.826  0.00  0.00    +0.000 OA
ATOM     40  O   UNL     1     114.294 131.510 136.352  0.00  0.00    +0.000 OA
ENDBRANCH  31  38
ENDBRANCH  29  32
ENDBRANCH  22  29
ENDBRANCH   1  26
TORSDOF 8
ENDMDL
MODEL 9
REMARK VINA RESULT:      -8.5      6.165      9.142
REMARK  Name = 
REMARK  8 active torsions:
REMARK  status: ('A' for Active; 'I' for Inactive)
REMARK    1  A    between atoms: C_6  and  C_9
REMARK    2  A    between atoms: C_10  and  C_11
REMARK    3  A    between atoms: C_11  and  C_12
REMARK    4  A    between atoms: C_17  and  O_20
REMARK    5  A    between atoms: O_20  and  C_26
REMARK    6  A    between atoms: O_24  and  C_29
REMARK    7  A    between atoms: O_24  and  C_40
REMARK    8  A    between atoms: C_30  and  C_31
REMARK                            x       y       z     vdW  Elec       q    Type
REMARK                         _______ _______ _______ _____ _____    ______ ____
ROOT
ATOM      1  O   UNL     1     112.812 129.662 141.890  0.00  0.00    +0.000 OA
ENDROOT
BRANCH   1   5
ATOM      2  O   UNL     1     111.989 129.730 143.412  0.00  0.00    +0.000 OA
ATOM      3  O   UNL     1     112.778 131.659 141.781  0.00  0.00    +0.000 OA
ATOM      4  O   UNL     1     111.937 132.726 143.250  0.00  0.00    +0.000 OA
ATOM      5  C   UNL     1     112.392 130.196 142.624  0.00  0.00    +0.000 C 
ATOM      6  C   UNL     1     112.375 131.194 142.570  0.00  0.00    +0.000 C 
ATOM      7  C   UNL     1     111.955 131.727 143.304  0.00  0.00    +0.000 C 
ATOM      8  C   UNL     1     111.552 131.262 144.092  0.00  0.00    +0.000 C 
ATOM      9  C   UNL     1     111.569 130.263 144.147  0.00  0.00    +0.000 C 
BRANCH   9  11
ATOM     10  O   UNL     1     111.288 128.811 145.048  0.00  0.00    +0.000 OA
ATOM     11  C   UNL     1     111.167 129.798 144.935  0.00  0.00    +0.000 C 
ENDBRANCH   9  11
BRANCH   8  12
ATOM     12  O   UNL     1     111.132 131.795 144.827  0.00  0.00    +0.000 OA
BRANCH  12  21
ATOM     13  O   UNL     1     109.655 133.912 147.883  0.00  0.00    +0.000 OA
ATOM     14  O   UNL     1     111.351 132.563 146.363  0.00  0.00    +0.000 OA
ATOM     15  O   UNL     1     108.480 133.434 146.337  0.00  0.00    +0.000 OA
ATOM     16  O   UNL     1     109.218 132.375 144.809  0.00  0.00    +0.000 OA
ATOM     17  C   UNL     1     110.025 133.383 147.119  0.00  0.00    +0.000 C 
ATOM     18  C   UNL     1     109.437 133.143 146.346  0.00  0.00    +0.000 C 
ATOM     19  C   UNL     1     110.982 133.093 147.128  0.00  0.00    +0.000 C 
ATOM     20  C   UNL     1     109.806 132.615 145.582  0.00  0.00    +0.000 C 
ATOM     21  C   UNL     1     110.763 132.324 145.591  0.00  0.00    +0.000 C 
ENDBRANCH  12  21
ENDBRANCH   8  12
ENDBRANCH   1   5
BRANCH   1  26
ATOM     22  C   UNL     1     111.406 127.390 140.525  0.00  0.00    +0.000 A 
ATOM     23  C   UNL     1     111.068 128.325 140.418  0.00  0.00    +0.000 A 
ATOM     24  C   UNL     1     111.536 129.082 140.872  0.00  0.00    +0.000 A 
ATOM     25  C   UNL     1     112.214 127.213 141.088  0.00  0.00    +0.000 A 
ATOM     26  C   UNL     1     112.344 128.905 141.435  0.00  0.00    +0.000 A 
ATOM     27  C   UNL     1     112.682 127.970 141.543  0.00  0.00    +0.000 A 
ATOM     28  O   UNL     1     112.553 126.279 141.196  0.00  0.00    +0.000 OA
BRANCH  22  29
ATOM     29  C   UNL     1     110.938 126.633 140.071  0.00  0.00    +0.000 C 
ATOM     30  O   UNL     1     110.481 125.929 140.614  0.00  0.00    +0.000 OA
BRANCH  29  32
ATOM     31  C   UNL     1     110.529 125.782 138.619  0.00  0.00    +0.000 C 
ATOM     32  C   UNL     1     110.926 126.580 139.072  0.00  0.00    +0.000 C 
BRANCH  31  38
ATOM     33  C   UNL     1     110.494 125.622 135.623  0.00  0.00    +0.000 A 
ATOM     34  C   UNL     1     111.084 125.010 136.150  0.00  0.00    +0.000 A 
ATOM     35  C   UNL     1     109.915 126.287 136.095  0.00  0.00    +0.000 A 
ATOM     36  C   UNL     1     111.095 125.063 137.148  0.00  0.00    +0.000 A 
ATOM     37  C   UNL     1     109.927 126.341 137.094  0.00  0.00    +0.000 A 
ATOM     38  C   UNL     1     110.517 125.729 137.620  0.00  0.00    +0.000 A 
ATOM     39  O   UNL     1     110.482 125.569 134.625  0.00  0.00    +0.000 OA
ATOM     40  O   UNL     1     111.662 124.345 135.678  0.00  0.00    +0.000 OA
ENDBRANCH  31  38
ENDBRANCH  29  32
ENDBRANCH  22  29
ENDBRANCH   1  26
TORSDOF 8
ENDMDL
MODEL 10
REMARK VINA RESULT:      -8.5      6.257      8.038
REMARK  Name = 
REMARK  8 active torsions:
REMARK  status: ('A' for Active; 'I' for Inactive)
REMARK    1  A    between atoms: C_6  and  C_9
REMARK    2  A    between atoms: C_10  and  C_11
REMARK    3  A    between atoms: C_11  and  C_12
REMARK    4  A    between atoms: C_17  and  O_20
REMARK    5  A    between atoms: O_20  and  C_26
REMARK    6  A    between atoms: O_24  and  C_29
REMARK    7  A    between atoms: O_24  and  C_40
REMARK    8  A    between atoms: C_30  and  C_31
REMARK                            x       y       z     vdW  Elec       q    Type
REMARK                         _______ _______ _______ _____ _____    ______ ____
ROOT
ATOM      1  O   UNL     1     112.418 129.239 142.125  0.00  0.00    +0.000 OA
ENDROOT
BRANCH   1   5
ATOM      2  O   UNL     1     112.193 130.838 142.751  0.00  0.00    +0.000 OA
ATOM      3  O   UNL     1     111.603 128.475 143.785  0.00  0.00    +0.000 OA
ATOM      4  O   UNL     1     110.971 129.692 145.240  0.00  0.00    +0.000 OA
ATOM      5  C   UNL     1     112.101 129.848 142.853  0.00  0.00    +0.000 C 
ATOM      6  C   UNL     1     111.694 129.465 143.683  0.00  0.00    +0.000 C 
ATOM      7  C   UNL     1     111.378 130.074 144.410  0.00  0.00    +0.000 C 
ATOM      8  C   UNL     1     111.470 131.064 144.308  0.00  0.00    +0.000 C 
ATOM      9  C   UNL     1     111.877 131.447 143.479  0.00  0.00    +0.000 C 
BRANCH   9  11
ATOM     10  O   UNL     1     111.698 132.878 142.519  0.00  0.00    +0.000 OA
ATOM     11  C   UNL     1     111.968 132.438 143.376  0.00  0.00    +0.000 C 
ENDBRANCH   9  11
BRANCH   8  12
ATOM     12  O   UNL     1     111.154 131.673 145.036  0.00  0.00    +0.000 OA
BRANCH  12  21
ATOM     13  O   UNL     1     109.701 133.969 147.972  0.00  0.00    +0.000 OA
ATOM     14  O   UNL     1     109.823 132.500 145.774  0.00  0.00    +0.000 OA
ATOM     15  O   UNL     1     111.635 133.463 147.962  0.00  0.00    +0.000 OA
ATOM     16  O   UNL     1     112.362 132.315 146.495  0.00  0.00    +0.000 OA
ATOM     17  C   UNL     1     110.063 133.396 147.238  0.00  0.00    +0.000 C 
ATOM     18  C   UNL     1     111.031 133.142 147.233  0.00  0.00    +0.000 C 
ATOM     19  C   UNL     1     109.459 133.075 146.509  0.00  0.00    +0.000 C 
ATOM     20  C   UNL     1     111.394 132.569 146.500  0.00  0.00    +0.000 C 
ATOM     21  C   UNL     1     110.790 132.248 145.770  0.00  0.00    +0.000 C 
ENDBRANCH  12  21
ENDBRANCH   8  12
ENDBRANCH   1   5
BRANCH   1  26
ATOM     22  C   UNL     1     112.114 129.896 139.214  0.00  0.00    +0.000 A 
ATOM     23  C   UNL     1     111.418 129.349 139.678  0.00  0.00    +0.000 A 
ATOM     24  C   UNL     1     111.519 129.130 140.649  0.00  0.00    +0.000 A 
ATOM     25  C   UNL     1     112.912 130.224 139.720  0.00  0.00    +0.000 A 
ATOM     26  C   UNL     1     112.317 129.458 141.155  0.00  0.00    +0.000 A 
ATOM     27  C   UNL     1     113.013 130.005 140.691  0.00  0.00    +0.000 A 
ATOM     28  O   UNL     1     113.609 130.771 139.256  0.00  0.00    +0.000 OA
BRANCH  22  29
ATOM     29  C   UNL     1     112.013 130.115 138.244  0.00  0.00    +0.000 C 
ATOM     30  O   UNL     1     112.804 130.061 137.634  0.00  0.00    +0.000 OA
BRANCH  29  32
ATOM     31  C   UNL     1     111.002 130.529 136.900  0.00  0.00    +0.000 C 
ATOM     32  C   UNL     1     111.122 130.389 137.883  0.00  0.00    +0.000 C 
BRANCH  31  38
ATOM     33  C   UNL     1     108.327 131.349 135.818  0.00  0.00    +0.000 A 
ATOM     34  C   UNL     1     108.538 130.380 135.947  0.00  0.00    +0.000 A 
ATOM     35  C   UNL     1     109.006 132.045 136.051  0.00  0.00    +0.000 A 
ATOM     36  C   UNL     1     109.430 130.107 136.307  0.00  0.00    +0.000 A 
ATOM     37  C   UNL     1     109.898 131.771 136.411  0.00  0.00    +0.000 A 
ATOM     38  C   UNL     1     110.110 130.803 136.540  0.00  0.00    +0.000 A 
ATOM     39  O   UNL     1     107.435 131.623 135.458  0.00  0.00    +0.000 OA
ATOM     40  O   UNL     1     107.859 129.685 135.714  0.00  0.00    +0.000 OA
ENDBRANCH  31  38
ENDBRANCH  29  32
ENDBRANCH  22  29
ENDBRANCH   1  26
TORSDOF 8
ENDMDL
