MODEL 1
REMARK VINA RESULT:      -8.9      0.000      0.000
REMARK  Name = 44259830
REMARK  8 active torsions:
REMARK  status: ('A' for Active; 'I' for Inactive)
REMARK    1  A    between atoms: O_2  and  C_18
REMARK    2  A    between atoms: O_2  and  C_20
REMARK    3  A    between atoms: O_7  and  C_22
REMARK    4  A    between atoms: O_9  and  C_27
REMARK    5  A    between atoms: O_11  and  C_33
REMARK    6  A    between atoms: O_13  and  C_34
REMARK    7  A    between atoms: C_17  and  C_19
REMARK    8  A    between atoms: C_23  and  C_26
REMARK                            x       y       z     vdW  Elec       q    Type
REMARK                         _______ _______ _______ _____ _____    ______ ____
ROOT
ATOM      1  C   UNL     1     114.112 129.994 136.601  0.00  0.00    +0.000 A 
ATOM      2  C   UNL     1     113.746 129.258 136.671  0.00  0.00    +0.000 A 
ATOM      3  C   UNL     1     114.447 130.221 135.882  0.00  0.00    +0.000 A 
ATOM      4  C   UNL     1     113.716 128.749 136.022  0.00  0.00    +0.000 A 
ATOM      5  C   UNL     1     114.417 129.712 135.233  0.00  0.00    +0.000 A 
ATOM      6  C   UNL     1     114.051 128.976 135.304  0.00  0.00    +0.000 A 
ENDROOT
BRANCH   4  10
ATOM      7  O   UNL     1     113.751 127.386 136.448  0.00  0.00    +0.000 OA
ATOM      8  O   UNL     1     111.451 127.058 135.596  0.00  0.00    +0.000 OA
ATOM      9  O   UNL     1     111.461 125.678 136.017  0.00  0.00    +0.000 OA
ATOM     10  C   UNL     1     113.350 128.013 136.093  0.00  0.00    +0.000 A 
ATOM     11  C   UNL     1     112.583 127.903 135.809  0.00  0.00    +0.000 A 
ATOM     12  C   UNL     1     112.619 126.540 136.235  0.00  0.00    +0.000 A 
ATOM     13  C   UNL     1     113.386 126.649 136.520  0.00  0.00    +0.000 A 
ATOM     14  C   UNL     1     112.217 127.167 135.880  0.00  0.00    +0.000 A 
ATOM     15  C   UNL     1     112.228 125.778 136.304  0.00  0.00    +0.000 A 
ATOM     16  C   UNL     1     113.814 126.004 136.892  0.00  0.00    +0.000 A 
ATOM     17  C   UNL     1     112.640 125.121 136.673  0.00  0.00    +0.000 A 
ATOM     18  C   UNL     1     113.439 125.234 136.969  0.00  0.00    +0.000 A 
BRANCH  11  19
ATOM     19  O   UNL     1     112.182 128.531 135.454  0.00  0.00    +0.000 OA
ATOM     20  C   UNL     1     111.401 128.433 135.205  0.00  0.00    +0.000 C 
ENDBRANCH  11  19
BRANCH  17  21
ATOM     21  O   UNL     1     112.273 124.386 136.743  0.00  0.00    +0.000 OA
ATOM     22  C   UNL     1     111.720 124.256 137.341  0.00  0.00    +0.000 C 
ENDBRANCH  17  21
BRANCH  18  23
ATOM     23  O   UNL     1     113.843 124.609 137.325  0.00  0.00    +0.000 OA
ATOM     24  C   UNL     1     114.662 124.645 137.414  0.00  0.00    +0.000 C 
ENDBRANCH  18  23
ENDBRANCH   4  10
BRANCH   3  25
ATOM     25  O   UNL     1     114.813 130.957 135.812  0.00  0.00    +0.000 OA
ATOM     26  C   UNL     1     115.305 131.114 135.167  0.00  0.00    +0.000 C 
ENDBRANCH   3  25
BRANCH   1  27
ATOM     27  O   UNL     1     114.142 130.503 137.249  0.00  0.00    +0.000 OA
BRANCH  27  36
ATOM     28  O   UNL     1     112.789 130.956 137.326  0.00  0.00    +0.000 OA
ATOM     29  O   UNL     1     112.763 130.467 139.752  0.00  0.00    +0.000 OA
ATOM     30  O   UNL     1     111.418 131.083 139.020  0.00  0.00    +0.000 OA
ATOM     31  O   UNL     1     114.124 130.177 138.867  0.00  0.00    +0.000 OA
ATOM     32  C   UNL     1     112.771 130.630 138.944  0.00  0.00    +0.000 C 
ATOM     33  C   UNL     1     112.100 130.938 138.577  0.00  0.00    +0.000 C 
ATOM     34  C   UNL     1     113.453 130.485 138.500  0.00  0.00    +0.000 C 
ATOM     35  C   UNL     1     112.108 131.101 137.768  0.00  0.00    +0.000 C 
ATOM     36  C   UNL     1     113.461 130.648 137.692  0.00  0.00    +0.000 C 
BRANCH  35  38
ATOM     37  O   UNL     1     111.506 132.023 136.858  0.00  0.00    +0.000 OA
ATOM     38  C   UNL     1     111.436 131.409 137.403  0.00  0.00    +0.000 C 
ENDBRANCH  35  38
ENDBRANCH  27  36
ENDBRANCH   1  27
TORSDOF 8
ENDMDL
MODEL 2
REMARK VINA RESULT:      -8.2      2.167      4.967
REMARK  Name = 44259830
REMARK  8 active torsions:
REMARK  status: ('A' for Active; 'I' for Inactive)
REMARK    1  A    between atoms: O_2  and  C_18
REMARK    2  A    between atoms: O_2  and  C_20
REMARK    3  A    between atoms: O_7  and  C_22
REMARK    4  A    between atoms: O_9  and  C_27
REMARK    5  A    between atoms: O_11  and  C_33
REMARK    6  A    between atoms: O_13  and  C_34
REMARK    7  A    between atoms: C_17  and  C_19
REMARK    8  A    between atoms: C_23  and  C_26
REMARK                            x       y       z     vdW  Elec       q    Type
REMARK                         _______ _______ _______ _____ _____    ______ ____
ROOT
ATOM      1  C   UNL     1     113.064 126.393 137.253  0.00  0.00    +0.000 A 
ATOM      2  C   UNL     1     112.902 126.853 137.918  0.00  0.00    +0.000 A 
ATOM      3  C   UNL     1     113.617 125.781 137.300  0.00  0.00    +0.000 A 
ATOM      4  C   UNL     1     113.292 126.704 138.629  0.00  0.00    +0.000 A 
ATOM      5  C   UNL     1     114.007 125.631 138.012  0.00  0.00    +0.000 A 
ATOM      6  C   UNL     1     113.843 126.093 138.676  0.00  0.00    +0.000 A 
ENDROOT
BRANCH   4  10
ATOM      7  O   UNL     1     113.549 127.862 139.424  0.00  0.00    +0.000 OA
ATOM      8  O   UNL     1     111.799 127.156 141.024  0.00  0.00    +0.000 OA
ATOM      9  O   UNL     1     112.040 128.318 141.845  0.00  0.00    +0.000 OA
ATOM     10  C   UNL     1     113.128 127.165 139.294  0.00  0.00    +0.000 A 
ATOM     11  C   UNL     1     112.545 126.930 139.827  0.00  0.00    +0.000 A 
ATOM     12  C   UNL     1     112.803 128.089 140.622  0.00  0.00    +0.000 A 
ATOM     13  C   UNL     1     113.387 128.325 140.088  0.00  0.00    +0.000 A 
ATOM     14  C   UNL     1     112.382 127.391 140.491  0.00  0.00    +0.000 A 
ATOM     15  C   UNL     1     112.625 128.562 141.316  0.00  0.00    +0.000 A 
ATOM     16  C   UNL     1     113.832 129.049 140.213  0.00  0.00    +0.000 A 
ATOM     17  C   UNL     1     113.060 129.289 141.458  0.00  0.00    +0.000 A 
ATOM     18  C   UNL     1     113.668 129.535 140.903  0.00  0.00    +0.000 A 
BRANCH  11  19
ATOM     19  O   UNL     1     112.124 126.233 139.696  0.00  0.00    +0.000 OA
ATOM     20  C   UNL     1     111.332 126.180 139.924  0.00  0.00    +0.000 C 
ENDBRANCH  11  19
BRANCH  17  21
ATOM     21  O   UNL     1     112.895 129.749 142.123  0.00  0.00    +0.000 OA
ATOM     22  C   UNL     1     112.259 130.274 142.114  0.00  0.00    +0.000 C 
ENDBRANCH  17  21
BRANCH  18  23
ATOM     23  O   UNL     1     114.091 130.231 141.031  0.00  0.00    +0.000 OA
ATOM     24  C   UNL     1     114.777 130.382 140.600  0.00  0.00    +0.000 C 
ENDBRANCH  18  23
ENDBRANCH   4  10
BRANCH   3  25
ATOM     25  O   UNL     1     113.779 125.321 136.635  0.00  0.00    +0.000 OA
ATOM     26  C   UNL     1     114.181 124.604 136.719  0.00  0.00    +0.000 C 
ENDBRANCH   3  25
BRANCH   1  27
ATOM     27  O   UNL     1     112.674 126.543 136.541  0.00  0.00    +0.000 OA
BRANCH  27  36
ATOM     28  O   UNL     1     113.350 127.732 136.127  0.00  0.00    +0.000 OA
ATOM     29  O   UNL     1     111.176 128.766 135.551  0.00  0.00    +0.000 OA
ATOM     30  O   UNL     1     112.576 129.610 135.329  0.00  0.00    +0.000 OA
ATOM     31  O   UNL     1     111.225 127.232 136.158  0.00  0.00    +0.000 OA
ATOM     32  C   UNL     1     111.901 128.421 135.743  0.00  0.00    +0.000 C 
ATOM     33  C   UNL     1     112.601 128.843 135.632  0.00  0.00    +0.000 C 
ATOM     34  C   UNL     1     111.925 127.654 136.047  0.00  0.00    +0.000 C 
ATOM     35  C   UNL     1     113.326 128.498 135.824  0.00  0.00    +0.000 C 
ATOM     36  C   UNL     1     112.650 127.309 136.238  0.00  0.00    +0.000 C 
BRANCH  35  38
ATOM     37  O   UNL     1     114.678 128.555 135.365  0.00  0.00    +0.000 OA
ATOM     38  C   UNL     1     114.025 128.921 135.712  0.00  0.00    +0.000 C 
ENDBRANCH  35  38
ENDBRANCH  27  36
ENDBRANCH   1  27
TORSDOF 8
ENDMDL
MODEL 3
REMARK VINA RESULT:      -8.2      1.821      2.747
REMARK  Name = 44259830
REMARK  8 active torsions:
REMARK  status: ('A' for Active; 'I' for Inactive)
REMARK    1  A    between atoms: O_2  and  C_18
REMARK    2  A    between atoms: O_2  and  C_20
REMARK    3  A    between atoms: O_7  and  C_22
REMARK    4  A    between atoms: O_9  and  C_27
REMARK    5  A    between atoms: O_11  and  C_33
REMARK    6  A    between atoms: O_13  and  C_34
REMARK    7  A    between atoms: C_17  and  C_19
REMARK    8  A    between atoms: C_23  and  C_26
REMARK                            x       y       z     vdW  Elec       q    Type
REMARK                         _______ _______ _______ _____ _____    ______ ____
ROOT
ATOM      1  C   UNL     1     112.045 129.997 137.371  0.00  0.00    +0.000 A 
ATOM      2  C   UNL     1     111.928 129.185 137.461  0.00  0.00    +0.000 A 
ATOM      3  C   UNL     1     112.745 130.277 137.034  0.00  0.00    +0.000 A 
ATOM      4  C   UNL     1     112.509 128.654 137.214  0.00  0.00    +0.000 A 
ATOM      5  C   UNL     1     113.325 129.746 136.786  0.00  0.00    +0.000 A 
ATOM      6  C   UNL     1     113.207 128.934 136.877  0.00  0.00    +0.000 A 
ENDROOT
BRANCH   4  10
ATOM      7  O   UNL     1     111.981 127.419 136.727  0.00  0.00    +0.000 OA
ATOM      8  O   UNL     1     112.854 126.255 138.729  0.00  0.00    +0.000 OA
ATOM      9  O   UNL     1     112.331 124.995 138.260  0.00  0.00    +0.000 OA
ATOM     10  C   UNL     1     112.391 127.842 137.305  0.00  0.00    +0.000 A 
ATOM     11  C   UNL     1     112.682 127.455 137.971  0.00  0.00    +0.000 A 
ATOM     12  C   UNL     1     112.153 126.219 137.485  0.00  0.00    +0.000 A 
ATOM     13  C   UNL     1     111.862 126.608 136.817  0.00  0.00    +0.000 A 
ATOM     14  C   UNL     1     112.563 126.643 138.062  0.00  0.00    +0.000 A 
ATOM     15  C   UNL     1     112.036 125.375 137.589  0.00  0.00    +0.000 A 
ATOM     16  C   UNL     1     111.434 126.178 136.209  0.00  0.00    +0.000 A 
ATOM     17  C   UNL     1     111.610 124.928 136.991  0.00  0.00    +0.000 A 
ATOM     18  C   UNL     1     111.306 125.332 136.296  0.00  0.00    +0.000 A 
BRANCH  11  19
ATOM     19  O   UNL     1     113.092 127.878 138.549  0.00  0.00    +0.000 OA
ATOM     20  C   UNL     1     113.119 127.597 139.325  0.00  0.00    +0.000 C 
ENDBRANCH  11  19
BRANCH  17  21
ATOM     21  O   UNL     1     111.493 124.117 137.084  0.00  0.00    +0.000 OA
ATOM     22  C   UNL     1     112.094 123.588 136.887  0.00  0.00    +0.000 C 
ENDBRANCH  17  21
BRANCH  18  23
ATOM     23  O   UNL     1     110.896 124.911 135.717  0.00  0.00    +0.000 OA
ATOM     24  C   UNL     1     110.424 125.312 135.174  0.00  0.00    +0.000 C 
ENDBRANCH  18  23
ENDBRANCH   4  10
BRANCH   3  25
ATOM     25  O   UNL     1     112.862 131.089 136.944  0.00  0.00    +0.000 OA
ATOM     26  C   UNL     1     113.618 131.381 136.789  0.00  0.00    +0.000 C 
ENDBRANCH   3  25
BRANCH   1  27
ATOM     27  O   UNL     1     111.465 130.528 137.619  0.00  0.00    +0.000 OA
BRANCH  27  36
ATOM     28  O   UNL     1     110.463 130.312 136.623  0.00  0.00    +0.000 OA
ATOM     29  O   UNL     1     108.733 130.193 138.389  0.00  0.00    +0.000 OA
ATOM     30  O   UNL     1     108.308 130.017 136.804  0.00  0.00    +0.000 OA
ATOM     31  O   UNL     1     110.311 130.449 138.796  0.00  0.00    +0.000 OA
ATOM     32  C   UNL     1     109.309 130.233 137.800  0.00  0.00    +0.000 C 
ATOM     33  C   UNL     1     109.098 130.145 137.008  0.00  0.00    +0.000 C 
ATOM     34  C   UNL     1     110.099 130.361 138.004  0.00  0.00    +0.000 C 
ATOM     35  C   UNL     1     109.674 130.184 136.419  0.00  0.00    +0.000 C 
ATOM     36  C   UNL     1     110.676 130.400 137.415  0.00  0.00    +0.000 C 
BRANCH  35  38
ATOM     37  O   UNL     1     109.816 130.564 135.049  0.00  0.00    +0.000 OA
ATOM     38  C   UNL     1     109.461 130.096 135.627  0.00  0.00    +0.000 C 
ENDBRANCH  35  38
ENDBRANCH  27  36
ENDBRANCH   1  27
TORSDOF 8
ENDMDL
MODEL 4
REMARK VINA RESULT:      -8.2     10.628     12.624
REMARK  Name = 44259830
REMARK  8 active torsions:
REMARK  status: ('A' for Active; 'I' for Inactive)
REMARK    1  A    between atoms: O_2  and  C_18
REMARK    2  A    between atoms: O_2  and  C_20
REMARK    3  A    between atoms: O_7  and  C_22
REMARK    4  A    between atoms: O_9  and  C_27
REMARK    5  A    between atoms: O_11  and  C_33
REMARK    6  A    between atoms: O_13  and  C_34
REMARK    7  A    between atoms: C_17  and  C_19
REMARK    8  A    between atoms: C_23  and  C_26
REMARK                            x       y       z     vdW  Elec       q    Type
REMARK                         _______ _______ _______ _____ _____    ______ ____
ROOT
ATOM      1  C   UNL     1     105.838 124.864 146.544  0.00  0.00    +0.000 A 
ATOM      2  C   UNL     1     105.648 125.334 145.893  0.00  0.00    +0.000 A 
ATOM      3  C   UNL     1     106.490 125.055 147.014  0.00  0.00    +0.000 A 
ATOM      4  C   UNL     1     106.107 125.994 145.712  0.00  0.00    +0.000 A 
ATOM      5  C   UNL     1     106.949 125.716 146.832  0.00  0.00    +0.000 A 
ATOM      6  C   UNL     1     106.757 126.185 146.181  0.00  0.00    +0.000 A 
ENDROOT
BRANCH   4  10
ATOM      7  O   UNL     1     106.035 126.176 144.296  0.00  0.00    +0.000 OA
ATOM      8  O   UNL     1     105.103 128.443 144.634  0.00  0.00    +0.000 OA
ATOM      9  O   UNL     1     105.019 128.652 143.209  0.00  0.00    +0.000 OA
ATOM     10  C   UNL     1     105.915 126.463 145.061  0.00  0.00    +0.000 A 
ATOM     11  C   UNL     1     105.605 127.219 145.173  0.00  0.00    +0.000 A 
ATOM     12  C   UNL     1     105.532 127.400 143.758  0.00  0.00    +0.000 A 
ATOM     13  C   UNL     1     105.843 126.644 143.645  0.00  0.00    +0.000 A 
ATOM     14  C   UNL     1     105.413 127.688 144.522  0.00  0.00    +0.000 A 
ATOM     15  C   UNL     1     105.329 127.897 143.087  0.00  0.00    +0.000 A 
ATOM     16  C   UNL     1     105.972 126.333 142.854  0.00  0.00    +0.000 A 
ATOM     17  C   UNL     1     105.451 127.604 142.288  0.00  0.00    +0.000 A 
ATOM     18  C   UNL     1     105.775 126.816 142.171  0.00  0.00    +0.000 A 
BRANCH  11  19
ATOM     19  O   UNL     1     105.486 127.506 145.937  0.00  0.00    +0.000 OA
ATOM     20  C   UNL     1     104.971 128.138 146.065  0.00  0.00    +0.000 C 
ENDBRANCH  11  19
BRANCH  17  21
ATOM     21  O   UNL     1     105.259 128.074 141.639  0.00  0.00    +0.000 OA
ATOM     22  C   UNL     1     104.470 128.171 141.418  0.00  0.00    +0.000 C 
ENDBRANCH  17  21
BRANCH  18  23
ATOM     23  O   UNL     1     105.895 126.526 141.408  0.00  0.00    +0.000 OA
ATOM     24  C   UNL     1     106.327 125.833 141.294  0.00  0.00    +0.000 C 
ENDBRANCH  18  23
ENDBRANCH   4  10
BRANCH   3  25
ATOM     25  O   UNL     1     106.680 124.586 147.664  0.00  0.00    +0.000 OA
ATOM     26  C   UNL     1     107.333 124.775 148.132  0.00  0.00    +0.000 C 
ENDBRANCH   3  25
BRANCH   1  27
ATOM     27  O   UNL     1     105.378 124.203 146.725  0.00  0.00    +0.000 OA
BRANCH  27  36
ATOM     28  O   UNL     1     104.206 124.808 147.273  0.00  0.00    +0.000 OA
ATOM     29  O   UNL     1     102.793 123.386 145.821  0.00  0.00    +0.000 OA
ATOM     30  O   UNL     1     102.091 124.465 146.853  0.00  0.00    +0.000 OA
ATOM     31  O   UNL     1     104.437 123.255 145.757  0.00  0.00    +0.000 OA
ATOM     32  C   UNL     1     103.264 123.860 146.305  0.00  0.00    +0.000 C 
ATOM     33  C   UNL     1     102.914 124.400 146.821  0.00  0.00    +0.000 C 
ATOM     34  C   UNL     1     104.087 123.795 146.273  0.00  0.00    +0.000 C 
ATOM     35  C   UNL     1     103.384 124.874 147.305  0.00  0.00    +0.000 C 
ATOM     36  C   UNL     1     104.557 124.269 146.757  0.00  0.00    +0.000 C 
BRANCH  35  38
ATOM     37  O   UNL     1     103.395 125.596 148.538  0.00  0.00    +0.000 OA
ATOM     38  C   UNL     1     103.033 125.414 147.821  0.00  0.00    +0.000 C 
ENDBRANCH  35  38
ENDBRANCH  27  36
ENDBRANCH   1  27
TORSDOF 8
ENDMDL
MODEL 5
REMARK VINA RESULT:      -8.1      2.126      4.793
REMARK  Name = 44259830
REMARK  8 active torsions:
REMARK  status: ('A' for Active; 'I' for Inactive)
REMARK    1  A    between atoms: O_2  and  C_18
REMARK    2  A    between atoms: O_2  and  C_20
REMARK    3  A    between atoms: O_7  and  C_22
REMARK    4  A    between atoms: O_9  and  C_27
REMARK    5  A    between atoms: O_11  and  C_33
REMARK    6  A    between atoms: O_13  and  C_34
REMARK    7  A    between atoms: C_17  and  C_19
REMARK    8  A    between atoms: C_23  and  C_26
REMARK                            x       y       z     vdW  Elec       q    Type
REMARK                         _______ _______ _______ _____ _____    ______ ____
ROOT
ATOM      1  C   UNL     1     113.065 128.646 136.343  0.00  0.00    +0.000 A 
ATOM      2  C   UNL     1     112.280 128.893 136.400  0.00  0.00    +0.000 A 
ATOM      3  C   UNL     1     113.490 128.781 135.649  0.00  0.00    +0.000 A 
ATOM      4  C   UNL     1     111.920 129.275 135.764  0.00  0.00    +0.000 A 
ATOM      5  C   UNL     1     113.130 129.163 135.012  0.00  0.00    +0.000 A 
ATOM      6  C   UNL     1     112.345 129.410 135.071  0.00  0.00    +0.000 A 
ENDROOT
BRANCH   4  10
ATOM      7  O   UNL     1     110.947 130.200 136.253  0.00  0.00    +0.000 OA
ATOM      8  O   UNL     1     109.156 128.908 135.137  0.00  0.00    +0.000 OA
ATOM      9  O   UNL     1     108.153 129.827 135.618  0.00  0.00    +0.000 OA
ATOM     10  C   UNL     1     111.135 129.522 135.822  0.00  0.00    +0.000 A 
ATOM     11  C   UNL     1     110.538 129.092 135.451  0.00  0.00    +0.000 A 
ATOM     12  C   UNL     1     109.565 130.017 135.939  0.00  0.00    +0.000 A 
ATOM     13  C   UNL     1     110.162 130.448 136.312  0.00  0.00    +0.000 A 
ATOM     14  C   UNL     1     109.753 129.338 135.509  0.00  0.00    +0.000 A 
ATOM     15  C   UNL     1     108.744 130.265 135.994  0.00  0.00    +0.000 A 
ATOM     16  C   UNL     1     109.980 131.156 136.763  0.00  0.00    +0.000 A 
ATOM     17  C   UNL     1     108.542 130.970 136.440  0.00  0.00    +0.000 A 
ATOM     18  C   UNL     1     109.164 131.419 136.828  0.00  0.00    +0.000 A 
BRANCH  11  19
ATOM     19  O   UNL     1     110.726 128.413 135.020  0.00  0.00    +0.000 OA
ATOM     20  C   UNL     1     110.126 127.905 134.768  0.00  0.00    +0.000 C 
ENDBRANCH  11  19
BRANCH  17  21
ATOM     21  O   UNL     1     107.756 131.215 136.497  0.00  0.00    +0.000 OA
ATOM     22  C   UNL     1     107.410 131.639 135.880  0.00  0.00    +0.000 C 
ENDBRANCH  17  21
BRANCH  18  23
ATOM     23  O   UNL     1     108.979 132.098 137.259  0.00  0.00    +0.000 OA
ATOM     24  C   UNL     1     109.543 132.436 137.756  0.00  0.00    +0.000 C 
ENDBRANCH  18  23
ENDBRANCH   4  10
BRANCH   3  25
ATOM     25  O   UNL     1     114.275 128.534 135.592  0.00  0.00    +0.000 OA
ATOM     26  C   UNL     1     114.772 128.868 135.023  0.00  0.00    +0.000 C 
ENDBRANCH   3  25
BRANCH   1  27
ATOM     27  O   UNL     1     113.425 128.264 136.980  0.00  0.00    +0.000 OA
BRANCH  27  36
ATOM     28  O   UNL     1     112.849 126.961 136.874  0.00  0.00    +0.000 OA
ATOM     29  O   UNL     1     112.378 126.971 139.304  0.00  0.00    +0.000 OA
ATOM     30  O   UNL     1     111.959 125.664 138.387  0.00  0.00    +0.000 OA
ATOM     31  O   UNL     1     113.111 128.271 138.600  0.00  0.00    +0.000 OA
ATOM     32  C   UNL     1     112.535 126.968 138.494  0.00  0.00    +0.000 C 
ATOM     33  C   UNL     1     112.325 126.315 138.035  0.00  0.00    +0.000 C 
ATOM     34  C   UNL     1     112.902 127.618 138.141  0.00  0.00    +0.000 C 
ATOM     35  C   UNL     1     112.482 126.311 137.225  0.00  0.00    +0.000 C 
ATOM     36  C   UNL     1     113.059 127.615 137.331  0.00  0.00    +0.000 C 
BRANCH  35  38
ATOM     37  O   UNL     1     112.784 125.380 136.184  0.00  0.00    +0.000 OA
ATOM     38  C   UNL     1     112.272 125.658 136.767  0.00  0.00    +0.000 C 
ENDBRANCH  35  38
ENDBRANCH  27  36
ENDBRANCH   1  27
TORSDOF 8
ENDMDL
MODEL 6
REMARK VINA RESULT:      -8.1      2.225      5.403
REMARK  Name = 44259830
REMARK  8 active torsions:
REMARK  status: ('A' for Active; 'I' for Inactive)
REMARK    1  A    between atoms: O_2  and  C_18
REMARK    2  A    between atoms: O_2  and  C_20
REMARK    3  A    between atoms: O_7  and  C_22
REMARK    4  A    between atoms: O_9  and  C_27
REMARK    5  A    between atoms: O_11  and  C_33
REMARK    6  A    between atoms: O_13  and  C_34
REMARK    7  A    between atoms: C_17  and  C_19
REMARK    8  A    between atoms: C_23  and  C_26
REMARK                            x       y       z     vdW  Elec       q    Type
REMARK                         _______ _______ _______ _____ _____    ______ ____
ROOT
ATOM      1  C   UNL     1     112.169 125.645 138.066  0.00  0.00    +0.000 A 
ATOM      2  C   UNL     1     112.328 126.343 138.477  0.00  0.00    +0.000 A 
ATOM      3  C   UNL     1     112.786 125.224 137.715  0.00  0.00    +0.000 A 
ATOM      4  C   UNL     1     113.103 126.619 138.537  0.00  0.00    +0.000 A 
ATOM      5  C   UNL     1     113.561 125.500 137.775  0.00  0.00    +0.000 A 
ATOM      6  C   UNL     1     113.719 126.198 138.186  0.00  0.00    +0.000 A 
ENDROOT
BRANCH   4  10
ATOM      7  O   UNL     1     113.310 128.033 138.541  0.00  0.00    +0.000 OA
ATOM      8  O   UNL     1     113.637 127.980 140.993  0.00  0.00    +0.000 OA
ATOM      9  O   UNL     1     113.850 129.406 141.024  0.00  0.00    +0.000 OA
ATOM     10  C   UNL     1     113.261 127.317 138.948  0.00  0.00    +0.000 A 
ATOM     11  C   UNL     1     113.370 127.299 139.765  0.00  0.00    +0.000 A 
ATOM     12  C   UNL     1     113.577 128.713 139.769  0.00  0.00    +0.000 A 
ATOM     13  C   UNL     1     113.468 128.731 138.950  0.00  0.00    +0.000 A 
ATOM     14  C   UNL     1     113.528 127.997 140.176  0.00  0.00    +0.000 A 
ATOM     15  C   UNL     1     113.742 129.434 140.206  0.00  0.00    +0.000 A 
ATOM     16  C   UNL     1     113.517 129.470 138.515  0.00  0.00    +0.000 A 
ATOM     17  C   UNL     1     113.795 130.182 139.788  0.00  0.00    +0.000 A 
ATOM     18  C   UNL     1     113.682 130.201 138.936  0.00  0.00    +0.000 A 
BRANCH  11  19
ATOM     19  O   UNL     1     113.321 126.584 140.172  0.00  0.00    +0.000 OA
ATOM     20  C   UNL     1     113.167 126.580 140.983  0.00  0.00    +0.000 C 
ENDBRANCH  11  19
BRANCH  17  21
ATOM     21  O   UNL     1     113.953 130.879 140.201  0.00  0.00    +0.000 OA
ATOM     22  C   UNL     1     114.713 131.025 140.489  0.00  0.00    +0.000 C 
ENDBRANCH  17  21
BRANCH  18  23
ATOM     23  O   UNL     1     113.731 130.915 138.527  0.00  0.00    +0.000 OA
ATOM     24  C   UNL     1     113.541 130.943 137.725  0.00  0.00    +0.000 C 
ENDBRANCH  18  23
ENDBRANCH   4  10
BRANCH   3  25
ATOM     25  O   UNL     1     112.626 124.526 137.305  0.00  0.00    +0.000 OA
ATOM     26  C   UNL     1     113.247 124.082 136.990  0.00  0.00    +0.000 C 
ENDBRANCH   3  25
BRANCH   1  27
ATOM     27  O   UNL     1     111.393 125.369 138.007  0.00  0.00    +0.000 OA
BRANCH  27  36
ATOM     28  O   UNL     1     110.855 126.271 137.038  0.00  0.00    +0.000 OA
ATOM     29  O   UNL     1     108.863 126.616 138.465  0.00  0.00    +0.000 OA
ATOM     30  O   UNL     1     108.989 127.403 137.020  0.00  0.00    +0.000 OA
ATOM     31  O   UNL     1     110.065 125.599 138.958  0.00  0.00    +0.000 OA
ATOM     32  C   UNL     1     109.527 126.501 137.989  0.00  0.00    +0.000 C 
ATOM     33  C   UNL     1     109.591 126.894 137.267  0.00  0.00    +0.000 C 
ATOM     34  C   UNL     1     110.129 125.992 138.236  0.00  0.00    +0.000 C 
ATOM     35  C   UNL     1     110.255 126.779 136.791  0.00  0.00    +0.000 C 
ATOM     36  C   UNL     1     110.793 125.877 137.760  0.00  0.00    +0.000 C 
BRANCH  35  38
ATOM     37  O   UNL     1     110.661 126.796 135.421  0.00  0.00    +0.000 OA
ATOM     38  C   UNL     1     110.317 127.173 136.069  0.00  0.00    +0.000 C 
ENDBRANCH  35  38
ENDBRANCH  27  36
ENDBRANCH   1  27
TORSDOF 8
ENDMDL
MODEL 7
REMARK VINA RESULT:      -8.1      2.387      4.577
REMARK  Name = 44259830
REMARK  8 active torsions:
REMARK  status: ('A' for Active; 'I' for Inactive)
REMARK    1  A    between atoms: O_2  and  C_18
REMARK    2  A    between atoms: O_2  and  C_20
REMARK    3  A    between atoms: O_7  and  C_22
REMARK    4  A    between atoms: O_9  and  C_27
REMARK    5  A    between atoms: O_11  and  C_33
REMARK    6  A    between atoms: O_13  and  C_34
REMARK    7  A    between atoms: C_17  and  C_19
REMARK    8  A    between atoms: C_23  and  C_26
REMARK                            x       y       z     vdW  Elec       q    Type
REMARK                         _______ _______ _______ _____ _____    ______ ____
ROOT
ATOM      1  C   UNL     1     113.045 126.332 138.203  0.00  0.00    +0.000 A 
ATOM      2  C   UNL     1     112.576 126.955 137.933  0.00  0.00    +0.000 A 
ATOM      3  C   UNL     1     113.652 126.037 137.728  0.00  0.00    +0.000 A 
ATOM      4  C   UNL     1     112.714 127.283 137.189  0.00  0.00    +0.000 A 
ATOM      5  C   UNL     1     113.790 126.366 136.984  0.00  0.00    +0.000 A 
ATOM      6  C   UNL     1     113.320 126.989 136.715  0.00  0.00    +0.000 A 
ENDROOT
BRANCH   4  10
ATOM      7  O   UNL     1     111.478 127.758 136.652  0.00  0.00    +0.000 OA
ATOM      8  O   UNL     1     112.365 130.068 136.651  0.00  0.00    +0.000 OA
ATOM      9  O   UNL     1     111.127 130.574 136.108  0.00  0.00    +0.000 OA
ATOM     10  C   UNL     1     112.244 127.906 136.920  0.00  0.00    +0.000 A 
ATOM     11  C   UNL     1     112.539 128.675 136.920  0.00  0.00    +0.000 A 
ATOM     12  C   UNL     1     111.303 129.150 136.382  0.00  0.00    +0.000 A 
ATOM     13  C   UNL     1     111.007 128.380 136.383  0.00  0.00    +0.000 A 
ATOM     14  C   UNL     1     112.069 129.298 136.651  0.00  0.00    +0.000 A 
ATOM     15  C   UNL     1     110.823 129.806 136.105  0.00  0.00    +0.000 A 
ATOM     16  C   UNL     1     110.212 128.213 136.105  0.00  0.00    +0.000 A 
ATOM     17  C   UNL     1     110.025 129.659 135.824  0.00  0.00    +0.000 A 
ATOM     18  C   UNL     1     109.716 128.857 135.824  0.00  0.00    +0.000 A 
BRANCH  11  19
ATOM     19  O   UNL     1     113.305 128.823 137.189  0.00  0.00    +0.000 OA
ATOM     20  C   UNL     1     113.533 129.593 137.382  0.00  0.00    +0.000 C 
ENDBRANCH  11  19
BRANCH  17  21
ATOM     21  O   UNL     1     109.557 130.283 135.555  0.00  0.00    +0.000 OA
ATOM     22  C   UNL     1     109.633 130.552 134.779  0.00  0.00    +0.000 C 
ENDBRANCH  17  21
BRANCH  18  23
ATOM     23  O   UNL     1     108.951 128.706 135.555  0.00  0.00    +0.000 OA
ATOM     24  C   UNL     1     108.585 127.990 135.736  0.00  0.00    +0.000 C 
ENDBRANCH  18  23
ENDBRANCH   4  10
BRANCH   3  25
ATOM     25  O   UNL     1     114.121 125.415 137.998  0.00  0.00    +0.000 OA
ATOM     26  C   UNL     1     114.586 124.988 137.465  0.00  0.00    +0.000 C 
ENDBRANCH   3  25
BRANCH   1  27
ATOM     27  O   UNL     1     112.907 126.003 138.947  0.00  0.00    +0.000 OA
BRANCH  27  36
ATOM     28  O   UNL     1     113.515 126.974 139.802  0.00  0.00    +0.000 OA
ATOM     29  O   UNL     1     111.495 126.979 141.233  0.00  0.00    +0.000 OA
ATOM     30  O   UNL     1     112.777 127.948 141.610  0.00  0.00    +0.000 OA
ATOM     31  O   UNL     1     111.560 126.007 139.901  0.00  0.00    +0.000 OA
ATOM     32  C   UNL     1     112.169 126.978 140.756  0.00  0.00    +0.000 C 
ATOM     33  C   UNL     1     112.810 127.462 140.944  0.00  0.00    +0.000 C 
ATOM     34  C   UNL     1     112.201 126.491 140.089  0.00  0.00    +0.000 C 
ATOM     35  C   UNL     1     113.483 127.460 140.467  0.00  0.00    +0.000 C 
ATOM     36  C   UNL     1     112.875 126.489 139.613  0.00  0.00    +0.000 C 
BRANCH  35  38
ATOM     37  O   UNL     1     114.887 127.635 140.663  0.00  0.00    +0.000 OA
ATOM     38  C   UNL     1     114.123 127.944 140.657  0.00  0.00    +0.000 C 
ENDBRANCH  35  38
ENDBRANCH  27  36
ENDBRANCH   1  27
TORSDOF 8
ENDMDL
MODEL 8
REMARK VINA RESULT:      -8.0      1.954      2.909
REMARK  Name = 44259830
REMARK  8 active torsions:
REMARK  status: ('A' for Active; 'I' for Inactive)
REMARK    1  A    between atoms: O_2  and  C_18
REMARK    2  A    between atoms: O_2  and  C_20
REMARK    3  A    between atoms: O_7  and  C_22
REMARK    4  A    between atoms: O_9  and  C_27
REMARK    5  A    between atoms: O_11  and  C_33
REMARK    6  A    between atoms: O_13  and  C_34
REMARK    7  A    between atoms: C_17  and  C_19
REMARK    8  A    between atoms: C_23  and  C_26
REMARK                            x       y       z     vdW  Elec       q    Type
REMARK                         _______ _______ _______ _____ _____    ______ ____
ROOT
ATOM      1  C   UNL     1     113.380 129.955 139.199  0.00  0.00    +0.000 A 
ATOM      2  C   UNL     1     113.106 129.225 138.928  0.00  0.00    +0.000 A 
ATOM      3  C   UNL     1     113.783 130.002 139.918  0.00  0.00    +0.000 A 
ATOM      4  C   UNL     1     113.235 128.544 139.374  0.00  0.00    +0.000 A 
ATOM      5  C   UNL     1     113.912 129.320 140.364  0.00  0.00    +0.000 A 
ATOM      6  C   UNL     1     113.638 128.591 140.092  0.00  0.00    +0.000 A 
ENDROOT
BRANCH   4  10
ATOM      7  O   UNL     1     113.364 127.422 138.498  0.00  0.00    +0.000 OA
ATOM      8  O   UNL     1     111.333 126.414 139.488  0.00  0.00    +0.000 OA
ATOM      9  O   UNL     1     111.440 125.270 138.615  0.00  0.00    +0.000 OA
ATOM     10  C   UNL     1     112.961 127.815 139.101  0.00  0.00    +0.000 A 
ATOM     11  C   UNL     1     112.284 127.479 139.431  0.00  0.00    +0.000 A 
ATOM     12  C   UNL     1     112.413 126.357 138.555  0.00  0.00    +0.000 A 
ATOM     13  C   UNL     1     113.091 126.693 138.225  0.00  0.00    +0.000 A 
ATOM     14  C   UNL     1     112.010 126.750 139.158  0.00  0.00    +0.000 A 
ATOM     15  C   UNL     1     112.119 125.599 138.279  0.00  0.00    +0.000 A 
ATOM     16  C   UNL     1     113.519 126.294 137.596  0.00  0.00    +0.000 A 
ATOM     17  C   UNL     1     112.534 125.185 137.651  0.00  0.00    +0.000 A 
ATOM     18  C   UNL     1     113.239 125.535 137.307  0.00  0.00    +0.000 A 
BRANCH  11  19
ATOM     19  O   UNL     1     111.881 127.871 140.034  0.00  0.00    +0.000 OA
ATOM     20  C   UNL     1     111.103 127.661 140.216  0.00  0.00    +0.000 C 
ENDBRANCH  11  19
BRANCH  17  21
ATOM     21  O   UNL     1     112.258 124.456 137.380  0.00  0.00    +0.000 OA
ATOM     22  C   UNL     1     111.644 124.426 136.829  0.00  0.00    +0.000 C 
ENDBRANCH  17  21
BRANCH  18  23
ATOM     23  O   UNL     1     113.645 125.145 136.704  0.00  0.00    +0.000 OA
ATOM     24  C   UNL     1     114.424 125.351 136.531  0.00  0.00    +0.000 C 
ENDBRANCH  18  23
ENDBRANCH   4  10
BRANCH   3  25
ATOM     25  O   UNL     1     114.057 130.731 140.190  0.00  0.00    +0.000 OA
ATOM     26  C   UNL     1     114.615 130.761 140.797  0.00  0.00    +0.000 C 
ENDBRANCH   3  25
BRANCH   1  27
ATOM     27  O   UNL     1     113.251 130.636 138.753  0.00  0.00    +0.000 OA
BRANCH  27  36
ATOM     28  O   UNL     1     111.868 130.890 139.009  0.00  0.00    +0.000 OA
ATOM     29  O   UNL     1     111.471 131.178 136.583  0.00  0.00    +0.000 OA
ATOM     30  O   UNL     1     110.221 131.335 137.648  0.00  0.00    +0.000 OA
ATOM     31  O   UNL     1     112.986 130.829 137.136  0.00  0.00    +0.000 OA
ATOM     32  C   UNL     1     111.603 131.082 137.392  0.00  0.00    +0.000 C 
ATOM     33  C   UNL     1     110.979 131.160 137.925  0.00  0.00    +0.000 C 
ATOM     34  C   UNL     1     112.362 130.907 137.669  0.00  0.00    +0.000 C 
ATOM     35  C   UNL     1     111.111 131.064 138.733  0.00  0.00    +0.000 C 
ATOM     36  C   UNL     1     112.494 130.811 138.477  0.00  0.00    +0.000 C 
BRANCH  35  38
ATOM     37  O   UNL     1     110.601 131.525 139.987  0.00  0.00    +0.000 OA
ATOM     38  C   UNL     1     110.485 131.143 139.265  0.00  0.00    +0.000 C 
ENDBRANCH  35  38
ENDBRANCH  27  36
ENDBRANCH   1  27
TORSDOF 8
ENDMDL
MODEL 9
REMARK VINA RESULT:      -8.0      1.915      5.113
REMARK  Name = 44259830
REMARK  8 active torsions:
REMARK  status: ('A' for Active; 'I' for Inactive)
REMARK    1  A    between atoms: O_2  and  C_18
REMARK    2  A    between atoms: O_2  and  C_20
REMARK    3  A    between atoms: O_7  and  C_22
REMARK    4  A    between atoms: O_9  and  C_27
REMARK    5  A    between atoms: O_11  and  C_33
REMARK    6  A    between atoms: O_13  and  C_34
REMARK    7  A    between atoms: C_17  and  C_19
REMARK    8  A    between atoms: C_23  and  C_26
REMARK                            x       y       z     vdW  Elec       q    Type
REMARK                         _______ _______ _______ _____ _____    ______ ____
ROOT
ATOM      1  C   UNL     1     113.257 126.921 138.435  0.00  0.00    +0.000 A 
ATOM      2  C   UNL     1     112.879 127.309 137.814  0.00  0.00    +0.000 A 
ATOM      3  C   UNL     1     113.211 127.227 139.201  0.00  0.00    +0.000 A 
ATOM      4  C   UNL     1     112.455 128.002 137.956  0.00  0.00    +0.000 A 
ATOM      5  C   UNL     1     112.787 127.920 139.344  0.00  0.00    +0.000 A 
ATOM      6  C   UNL     1     112.409 128.307 138.721  0.00  0.00    +0.000 A 
ENDROOT
BRANCH   4  10
ATOM      7  O   UNL     1     111.295 128.202 137.146  0.00  0.00    +0.000 OA
ATOM      8  O   UNL     1     112.502 129.924 135.841  0.00  0.00    +0.000 OA
ATOM      9  O   UNL     1     111.345 130.145 135.008  0.00  0.00    +0.000 OA
ATOM     10  C   UNL     1     112.076 128.389 137.334  0.00  0.00    +0.000 A 
ATOM     11  C   UNL     1     112.478 128.963 136.899  0.00  0.00    +0.000 A 
ATOM     12  C   UNL     1     111.319 129.163 136.088  0.00  0.00    +0.000 A 
ATOM     13  C   UNL     1     110.916 128.588 136.524  0.00  0.00    +0.000 A 
ATOM     14  C   UNL     1     112.100 129.350 136.276  0.00  0.00    +0.000 A 
ATOM     15  C   UNL     1     110.935 129.572 135.438  0.00  0.00    +0.000 A 
ATOM     16  C   UNL     1     110.102 128.385 136.338  0.00  0.00    +0.000 A 
ATOM     17  C   UNL     1     110.121 129.382 135.238  0.00  0.00    +0.000 A 
ATOM     18  C   UNL     1     109.702 128.784 135.690  0.00  0.00    +0.000 A 
BRANCH  11  19
ATOM     19  O   UNL     1     113.260 129.150 137.087  0.00  0.00    +0.000 OA
ATOM     20  C   UNL     1     113.707 129.617 136.574  0.00  0.00    +0.000 C 
ENDBRANCH  11  19
BRANCH  17  21
ATOM     21  O   UNL     1     109.745 129.770 134.614  0.00  0.00    +0.000 OA
ATOM     22  C   UNL     1     109.427 130.523 134.729  0.00  0.00    +0.000 C 
ENDBRANCH  17  21
BRANCH  18  23
ATOM     23  O   UNL     1     108.920 128.595 135.505  0.00  0.00    +0.000 OA
ATOM     24  C   UNL     1     108.604 127.873 135.745  0.00  0.00    +0.000 C 
ENDBRANCH  18  23
ENDBRANCH   4  10
BRANCH   3  25
ATOM     25  O   UNL     1     113.590 126.838 139.823  0.00  0.00    +0.000 OA
ATOM     26  C   UNL     1     113.687 127.220 140.548  0.00  0.00    +0.000 C 
ENDBRANCH   3  25
BRANCH   1  27
ATOM     27  O   UNL     1     113.681 126.228 138.293  0.00  0.00    +0.000 OA
BRANCH  27  36
ATOM     28  O   UNL     1     112.590 125.377 137.936  0.00  0.00    +0.000 OA
ATOM     29  O   UNL     1     113.944 124.407 136.105  0.00  0.00    +0.000 OA
ATOM     30  O   UNL     1     112.401 123.879 136.359  0.00  0.00    +0.000 OA
ATOM     31  O   UNL     1     114.584 125.581 137.072  0.00  0.00    +0.000 OA
ATOM     32  C   UNL     1     113.492 124.730 136.715  0.00  0.00    +0.000 C 
ATOM     33  C   UNL     1     112.721 124.467 136.843  0.00  0.00    +0.000 C 
ATOM     34  C   UNL     1     113.813 125.318 137.199  0.00  0.00    +0.000 C 
ATOM     35  C   UNL     1     112.270 124.790 137.453  0.00  0.00    +0.000 C 
ATOM     36  C   UNL     1     113.361 125.641 137.810  0.00  0.00    +0.000 C 
BRANCH  35  38
ATOM     37  O   UNL     1     111.193 124.494 138.345  0.00  0.00    +0.000 OA
ATOM     38  C   UNL     1     111.499 124.526 137.580  0.00  0.00    +0.000 C 
ENDBRANCH  35  38
ENDBRANCH  27  36
ENDBRANCH   1  27
TORSDOF 8
ENDMDL
MODEL 10
REMARK VINA RESULT:      -8.0      1.581      5.150
REMARK  Name = 44259830
REMARK  8 active torsions:
REMARK  status: ('A' for Active; 'I' for Inactive)
REMARK    1  A    between atoms: O_2  and  C_18
REMARK    2  A    between atoms: O_2  and  C_20
REMARK    3  A    between atoms: O_7  and  C_22
REMARK    4  A    between atoms: O_9  and  C_27
REMARK    5  A    between atoms: O_11  and  C_33
REMARK    6  A    between atoms: O_13  and  C_34
REMARK    7  A    between atoms: C_17  and  C_19
REMARK    8  A    between atoms: C_23  and  C_26
REMARK                            x       y       z     vdW  Elec       q    Type
REMARK                         _______ _______ _______ _____ _____    ______ ____
ROOT
ATOM      1  C   UNL     1     112.120 125.771 136.321  0.00  0.00    +0.000 A 
ATOM      2  C   UNL     1     112.311 126.567 136.419  0.00  0.00    +0.000 A 
ATOM      3  C   UNL     1     112.608 125.187 136.641  0.00  0.00    +0.000 A 
ATOM      4  C   UNL     1     112.990 126.780 136.838  0.00  0.00    +0.000 A 
ATOM      5  C   UNL     1     113.286 125.400 137.060  0.00  0.00    +0.000 A 
ATOM      6  C   UNL     1     113.476 126.197 137.158  0.00  0.00    +0.000 A 
ENDROOT
BRANCH   4  10
ATOM      7  O   UNL     1     113.517 127.999 136.312  0.00  0.00    +0.000 OA
ATOM      8  O   UNL     1     113.079 129.122 138.473  0.00  0.00    +0.000 OA
ATOM      9  O   UNL     1     113.607 130.366 137.967  0.00  0.00    +0.000 OA
ATOM     10  C   UNL     1     113.180 127.577 136.935  0.00  0.00    +0.000 A 
ATOM     11  C   UNL     1     113.034 127.951 137.655  0.00  0.00    +0.000 A 
ATOM     12  C   UNL     1     113.562 129.171 137.130  0.00  0.00    +0.000 A 
ATOM     13  C   UNL     1     113.708 128.796 136.408  0.00  0.00    +0.000 A 
ATOM     14  C   UNL     1     113.225 128.748 137.753  0.00  0.00    +0.000 A 
ATOM     15  C   UNL     1     113.757 130.000 137.242  0.00  0.00    +0.000 A 
ATOM     16  C   UNL     1     114.059 129.225 135.752  0.00  0.00    +0.000 A 
ATOM     17  C   UNL     1     114.108 130.445 136.597  0.00  0.00    +0.000 A 
ATOM     18  C   UNL     1     114.260 130.056 135.846  0.00  0.00    +0.000 A 
BRANCH  11  19
ATOM     19  O   UNL     1     112.697 127.529 138.279  0.00  0.00    +0.000 OA
ATOM     20  C   UNL     1     112.578 127.895 139.009  0.00  0.00    +0.000 C 
ENDBRANCH  11  19
BRANCH  17  21
ATOM     21  O   UNL     1     114.297 131.242 136.697  0.00  0.00    +0.000 OA
ATOM     22  C   UNL     1     113.721 131.821 136.581  0.00  0.00    +0.000 C 
ENDBRANCH  17  21
BRANCH  18  23
ATOM     23  O   UNL     1     114.597 130.476 135.221  0.00  0.00    +0.000 OA
ATOM     24  C   UNL     1     114.978 130.072 134.612  0.00  0.00    +0.000 C 
ENDBRANCH  18  23
ENDBRANCH   4  10
BRANCH   3  25
ATOM     25  O   UNL     1     112.416 124.391 136.543  0.00  0.00    +0.000 OA
ATOM     26  C   UNL     1     112.907 123.807 136.859  0.00  0.00    +0.000 C 
ENDBRANCH   3  25
BRANCH   1  27
ATOM     27  O   UNL     1     111.442 125.558 135.902  0.00  0.00    +0.000 OA
BRANCH  27  36
ATOM     28  O   UNL     1     110.412 125.982 136.797  0.00  0.00    +0.000 OA
ATOM     29  O   UNL     1     109.242 127.097 134.923  0.00  0.00    +0.000 OA
ATOM     30  O   UNL     1     108.602 127.150 136.443  0.00  0.00    +0.000 OA
ATOM     31  O   UNL     1     110.662 126.301 134.652  0.00  0.00    +0.000 OA
ATOM     32  C   UNL     1     109.632 126.726 135.548  0.00  0.00    +0.000 C 
ATOM     33  C   UNL     1     109.312 126.751 136.308  0.00  0.00    +0.000 C 
ATOM     34  C   UNL     1     110.342 126.327 135.412  0.00  0.00    +0.000 C 
ATOM     35  C   UNL     1     109.702 126.380 136.932  0.00  0.00    +0.000 C 
ATOM     36  C   UNL     1     110.732 125.956 136.037  0.00  0.00    +0.000 C 
BRANCH  35  38
ATOM     37  O   UNL     1     109.739 125.988 138.306  0.00  0.00    +0.000 OA
ATOM     38  C   UNL     1     109.382 126.406 137.692  0.00  0.00    +0.000 C 
ENDBRANCH  35  38
ENDBRANCH  27  36
ENDBRANCH   1  27
TORSDOF 8
ENDMDL
