MODEL 1
REMARK VINA RESULT:     -11.2      0.000      0.000
REMARK  Name = 44257982
REMARK  8 active torsions:
REMARK  status: ('A' for Active; 'I' for Inactive)
REMARK    1  A    between atoms: O_2  and  C_22
REMARK    2  A    between atoms: O_2  and  C_27
REMARK    3  A    between atoms: O_12  and  C_38
REMARK    4  A    between atoms: O_12  and  C_46
REMARK    5  A    between atoms: C_26  and  C_32
REMARK    6  A    between atoms: C_31  and  C_33
REMARK    7  A    between atoms: C_37  and  C_42
REMARK    8  A    between atoms: C_47  and  C_49
REMARK                            x       y       z     vdW  Elec       q    Type
REMARK                         _______ _______ _______ _____ _____    ______ ____
ROOT
ATOM      1  O   UNL     1     108.089 127.397 140.704  0.00  0.00    +0.000 OA
ATOM      2  O   UNL     1     108.290 124.630 141.393  0.00  0.00    +0.000 OA
ATOM      3  O   UNL     1     110.514 125.935 140.108  0.00  0.00    +0.000 OA
ATOM      4  O   UNL     1     109.179 128.087 140.059  0.00  0.00    +0.000 OA
ATOM      5  C   UNL     1     108.189 126.014 141.048  0.00  0.00    +0.000 A 
ATOM      6  C   UNL     1     108.521 126.695 140.721  0.00  0.00    +0.000 A 
ATOM      7  C   UNL     1     108.622 125.312 141.065  0.00  0.00    +0.000 A 
ATOM      8  C   UNL     1     109.285 126.673 140.410  0.00  0.00    +0.000 A 
ATOM      9  C   UNL     1     109.385 125.290 140.755  0.00  0.00    +0.000 A 
ATOM     10  C   UNL     1     109.717 125.970 140.428  0.00  0.00    +0.000 A 
ATOM     11  C   UNL     1     109.619 127.389 140.072  0.00  0.00    +0.000 A 
ATOM     12  C   UNL     1     110.866 126.641 139.765  0.00  0.00    +0.000 A 
ATOM     13  C   UNL     1     110.414 127.372 139.747  0.00  0.00    +0.000 A 
ENDROOT
BRANCH   5  22
ATOM     14  O   UNL     1     106.777 125.885 140.870  0.00  0.00    +0.000 OA
ATOM     15  O   UNL     1     105.132 126.101 142.289  0.00  0.00    +0.000 OA
ATOM     16  O   UNL     1     106.428 126.404 143.265  0.00  0.00    +0.000 OA
ATOM     17  O   UNL     1     107.956 126.360 142.645  0.00  0.00    +0.000 OA
ATOM     18  C   UNL     1     106.013 125.907 141.181  0.00  0.00    +0.000 C 
ATOM     19  C   UNL     1     105.896 126.079 141.978  0.00  0.00    +0.000 C 
ATOM     20  C   UNL     1     106.545 126.231 142.467  0.00  0.00    +0.000 C 
ATOM     21  C   UNL     1     107.308 126.209 142.157  0.00  0.00    +0.000 C 
ATOM     22  C   UNL     1     107.425 126.036 141.359  0.00  0.00    +0.000 C 
BRANCH  18  23
ATOM     23  O   UNL     1     105.365 125.756 140.693  0.00  0.00    +0.000 OA
BRANCH  23  28
ATOM     24  O   UNL     1     105.361 124.327 140.743  0.00  0.00    +0.000 OA
ATOM     25  O   UNL     1     105.101 125.699 139.065  0.00  0.00    +0.000 OA
ATOM     26  O   UNL     1     104.965 124.243 138.301  0.00  0.00    +0.000 OA
ATOM     27  O   UNL     1     105.093 122.844 139.165  0.00  0.00    +0.000 OA
ATOM     28  C   UNL     1     105.297 125.028 140.310  0.00  0.00    +0.000 C 
ATOM     29  C   UNL     1     105.165 125.000 139.497  0.00  0.00    +0.000 C 
ATOM     30  C   UNL     1     105.097 124.271 139.115  0.00  0.00    +0.000 C 
ATOM     31  C   UNL     1     105.161 123.572 139.547  0.00  0.00    +0.000 C 
ATOM     32  C   UNL     1     105.293 123.600 140.360  0.00  0.00    +0.000 C 
BRANCH  32  34
ATOM     33  O   UNL     1     104.821 122.741 141.400  0.00  0.00    +0.000 OA
ATOM     34  C   UNL     1     105.357 122.900 140.793  0.00  0.00    +0.000 C 
ENDBRANCH  32  34
ENDBRANCH  23  28
ENDBRANCH  18  23
ENDBRANCH   5  22
BRANCH  12  37
ATOM     35  O   UNL     1     113.923 126.539 138.529  0.00  0.00    +0.000 OA
ATOM     36  C   UNL     1     112.511 126.615 138.330  0.00  0.00    +0.000 A 
ATOM     37  C   UNL     1     111.629 126.615 139.455  0.00  0.00    +0.000 A 
ATOM     38  C   UNL     1     111.746 126.641 138.639  0.00  0.00    +0.000 A 
ATOM     39  C   UNL     1     113.159 126.564 138.838  0.00  0.00    +0.000 A 
ATOM     40  C   UNL     1     112.278 126.565 139.963  0.00  0.00    +0.000 A 
ATOM     41  C   UNL     1     113.043 126.539 139.654  0.00  0.00    +0.000 A 
BRANCH  36  42
ATOM     42  O   UNL     1     112.626 126.640 137.513  0.00  0.00    +0.000 OA
BRANCH  42  51
ATOM     43  O   UNL     1     112.231 125.306 137.188  0.00  0.00    +0.000 OA
ATOM     44  O   UNL     1     110.982 126.154 135.228  0.00  0.00    +0.000 OA
ATOM     45  O   UNL     1     111.004 124.537 135.555  0.00  0.00    +0.000 OA
ATOM     46  O   UNL     1     111.794 127.206 136.207  0.00  0.00    +0.000 OA
ATOM     47  C   UNL     1     111.398 125.872 135.881  0.00  0.00    +0.000 C 
ATOM     48  C   UNL     1     111.409 125.063 136.045  0.00  0.00    +0.000 C 
ATOM     49  C   UNL     1     111.805 126.398 136.371  0.00  0.00    +0.000 C 
ATOM     50  C   UNL     1     111.826 124.780 136.698  0.00  0.00    +0.000 C 
ATOM     51  C   UNL     1     112.221 126.115 137.025  0.00  0.00    +0.000 C 
BRANCH  50  53
ATOM     52  O   UNL     1     112.554 123.589 136.999  0.00  0.00    +0.000 OA
ATOM     53  C   UNL     1     111.837 123.972 136.862  0.00  0.00    +0.000 C 
ENDBRANCH  50  53
ENDBRANCH  42  51
ENDBRANCH  36  42
ENDBRANCH  12  37
TORSDOF 8
ENDMDL
MODEL 2
REMARK VINA RESULT:     -11.2      4.090      6.818
REMARK  Name = 44257982
REMARK  8 active torsions:
REMARK  status: ('A' for Active; 'I' for Inactive)
REMARK    1  A    between atoms: O_2  and  C_22
REMARK    2  A    between atoms: O_2  and  C_27
REMARK    3  A    between atoms: O_12  and  C_38
REMARK    4  A    between atoms: O_12  and  C_46
REMARK    5  A    between atoms: C_26  and  C_32
REMARK    6  A    between atoms: C_31  and  C_33
REMARK    7  A    between atoms: C_37  and  C_42
REMARK    8  A    between atoms: C_47  and  C_49
REMARK                            x       y       z     vdW  Elec       q    Type
REMARK                         _______ _______ _______ _____ _____    ______ ____
ROOT
ATOM      1  O   UNL     1     109.197 131.809 138.804  0.00  0.00    +0.000 OA
ATOM      2  O   UNL     1     111.634 131.072 137.504  0.00  0.00    +0.000 OA
ATOM      3  O   UNL     1     111.260 130.422 140.286  0.00  0.00    +0.000 OA
ATOM      4  O   UNL     1     108.971 131.502 140.195  0.00  0.00    +0.000 OA
ATOM      5  C   UNL     1     110.415 131.441 138.154  0.00  0.00    +0.000 A 
ATOM      6  C   UNL     1     109.943 131.458 138.830  0.00  0.00    +0.000 A 
ATOM      7  C   UNL     1     111.162 131.090 138.181  0.00  0.00    +0.000 A 
ATOM      8  C   UNL     1     110.217 131.124 139.533  0.00  0.00    +0.000 A 
ATOM      9  C   UNL     1     111.436 130.756 138.883  0.00  0.00    +0.000 A 
ATOM     10  C   UNL     1     110.963 130.773 139.560  0.00  0.00    +0.000 A 
ATOM     11  C   UNL     1     109.716 131.149 140.231  0.00  0.00    +0.000 A 
ATOM     12  C   UNL     1     110.773 130.437 140.994  0.00  0.00    +0.000 A 
ATOM     13  C   UNL     1     109.996 130.803 140.965  0.00  0.00    +0.000 A 
ENDROOT
BRANCH   5  22
ATOM     14  O   UNL     1     109.635 131.345 136.960  0.00  0.00    +0.000 OA
ATOM     15  O   UNL     1     109.319 132.776 135.342  0.00  0.00    +0.000 OA
ATOM     16  O   UNL     1     110.330 133.634 136.323  0.00  0.00    +0.000 OA
ATOM     17  O   UNL     1     110.879 132.967 137.729  0.00  0.00    +0.000 OA
ATOM     18  C   UNL     1     109.361 131.679 136.257  0.00  0.00    +0.000 C 
ATOM     19  C   UNL     1     109.593 132.441 136.045  0.00  0.00    +0.000 C 
ATOM     20  C   UNL     1     110.099 132.871 136.536  0.00  0.00    +0.000 C 
ATOM     21  C   UNL     1     110.373 132.537 137.238  0.00  0.00    +0.000 C 
ATOM     22  C   UNL     1     110.142 131.774 137.451  0.00  0.00    +0.000 C 
BRANCH  18  23
ATOM     23  O   UNL     1     108.856 131.250 135.766  0.00  0.00    +0.000 OA
BRANCH  23  28
ATOM     24  O   UNL     1     109.715 130.259 135.200  0.00  0.00    +0.000 OA
ATOM     25  O   UNL     1     107.791 130.071 136.213  0.00  0.00    +0.000 OA
ATOM     26  O   UNL     1     108.118 128.491 135.869  0.00  0.00    +0.000 OA
ATOM     27  O   UNL     1     109.510 128.090 135.080  0.00  0.00    +0.000 OA
ATOM     28  C   UNL     1     109.019 130.460 135.595  0.00  0.00    +0.000 C 
ATOM     29  C   UNL     1     108.487 129.871 135.818  0.00  0.00    +0.000 C 
ATOM     30  C   UNL     1     108.651 129.080 135.646  0.00  0.00    +0.000 C 
ATOM     31  C   UNL     1     109.347 128.880 135.251  0.00  0.00    +0.000 C 
ATOM     32  C   UNL     1     109.878 129.469 135.028  0.00  0.00    +0.000 C 
BRANCH  32  34
ATOM     33  O   UNL     1     111.262 129.708 134.762  0.00  0.00    +0.000 OA
ATOM     34  C   UNL     1     110.575 129.269 134.634  0.00  0.00    +0.000 C 
ENDBRANCH  32  34
ENDBRANCH  23  28
ENDBRANCH  18  23
ENDBRANCH   5  22
BRANCH  12  37
ATOM     35  O   UNL     1     111.882 129.100 143.799  0.00  0.00    +0.000 OA
ATOM     36  C   UNL     1     111.280 128.953 142.512  0.00  0.00    +0.000 A 
ATOM     37  C   UNL     1     111.050 130.102 141.695  0.00  0.00    +0.000 A 
ATOM     38  C   UNL     1     111.003 129.287 141.811  0.00  0.00    +0.000 A 
ATOM     39  C   UNL     1     111.605 129.434 143.098  0.00  0.00    +0.000 A 
ATOM     40  C   UNL     1     111.375 130.584 142.281  0.00  0.00    +0.000 A 
ATOM     41  C   UNL     1     111.652 130.250 142.983  0.00  0.00    +0.000 A 
BRANCH  36  42
ATOM     42  O   UNL     1     111.233 128.137 142.627  0.00  0.00    +0.000 OA
BRANCH  42  51
ATOM     43  O   UNL     1     112.229 127.653 141.724  0.00  0.00    +0.000 OA
ATOM     44  O   UNL     1     110.609 126.019 140.814  0.00  0.00    +0.000 OA
ATOM     45  O   UNL     1     112.145 126.078 140.214  0.00  0.00    +0.000 OA
ATOM     46  O   UNL     1     110.153 127.048 142.021  0.00  0.00    +0.000 OA
ATOM     47  C   UNL     1     111.149 126.563 141.117  0.00  0.00    +0.000 C 
ATOM     48  C   UNL     1     111.917 126.593 140.818  0.00  0.00    +0.000 C 
ATOM     49  C   UNL     1     110.921 127.078 141.721  0.00  0.00    +0.000 C 
ATOM     50  C   UNL     1     112.457 127.138 141.121  0.00  0.00    +0.000 C 
ATOM     51  C   UNL     1     111.461 127.623 142.025  0.00  0.00    +0.000 C 
BRANCH  50  53
ATOM     52  O   UNL     1     113.866 127.242 141.336  0.00  0.00    +0.000 OA
ATOM     53  C   UNL     1     113.225 127.168 140.821  0.00  0.00    +0.000 C 
ENDBRANCH  50  53
ENDBRANCH  42  51
ENDBRANCH  36  42
ENDBRANCH  12  37
TORSDOF 8
ENDMDL
MODEL 3
REMARK VINA RESULT:     -11.1      3.964      6.507
REMARK  Name = 44257982
REMARK  8 active torsions:
REMARK  status: ('A' for Active; 'I' for Inactive)
REMARK    1  A    between atoms: O_2  and  C_22
REMARK    2  A    between atoms: O_2  and  C_27
REMARK    3  A    between atoms: O_12  and  C_38
REMARK    4  A    between atoms: O_12  and  C_46
REMARK    5  A    between atoms: C_26  and  C_32
REMARK    6  A    between atoms: C_31  and  C_33
REMARK    7  A    between atoms: C_37  and  C_42
REMARK    8  A    between atoms: C_47  and  C_49
REMARK                            x       y       z     vdW  Elec       q    Type
REMARK                         _______ _______ _______ _____ _____    ______ ____
ROOT
ATOM      1  O   UNL     1     114.236 128.389 141.077  0.00  0.00    +0.000 OA
ATOM      2  O   UNL     1     113.099 130.168 139.149  0.00  0.00    +0.000 OA
ATOM      3  O   UNL     1     113.372 127.372 138.510  0.00  0.00    +0.000 OA
ATOM      4  O   UNL     1     114.390 126.983 140.796  0.00  0.00    +0.000 OA
ATOM      5  C   UNL     1     113.668 129.279 140.114  0.00  0.00    +0.000 A 
ATOM      6  C   UNL     1     113.904 128.519 140.333  0.00  0.00    +0.000 A 
ATOM      7  C   UNL     1     113.336 129.408 139.369  0.00  0.00    +0.000 A 
ATOM      8  C   UNL     1     113.809 127.889 139.809  0.00  0.00    +0.000 A 
ATOM      9  C   UNL     1     113.240 128.778 138.845  0.00  0.00    +0.000 A 
ATOM     10  C   UNL     1     113.477 128.019 139.065  0.00  0.00    +0.000 A 
ATOM     11  C   UNL     1     114.059 127.103 140.050  0.00  0.00    +0.000 A 
ATOM     12  C   UNL     1     113.616 126.578 138.733  0.00  0.00    +0.000 A 
ATOM     13  C   UNL     1     113.962 126.444 139.508  0.00  0.00    +0.000 A 
ENDROOT
BRANCH   5  22
ATOM     14  O   UNL     1     113.221 130.021 141.250  0.00  0.00    +0.000 OA
ATOM     15  O   UNL     1     114.050 131.797 142.212  0.00  0.00    +0.000 OA
ATOM     16  O   UNL     1     115.133 131.571 140.988  0.00  0.00    +0.000 OA
ATOM     17  O   UNL     1     114.942 130.312 139.939  0.00  0.00    +0.000 OA
ATOM     18  C   UNL     1     113.317 130.651 141.775  0.00  0.00    +0.000 C 
ATOM     19  C   UNL     1     113.954 131.167 141.688  0.00  0.00    +0.000 C 
ATOM     20  C   UNL     1     114.496 131.054 141.075  0.00  0.00    +0.000 C 
ATOM     21  C   UNL     1     114.401 130.425 140.551  0.00  0.00    +0.000 C 
ATOM     22  C   UNL     1     113.764 129.908 140.638  0.00  0.00    +0.000 C 
BRANCH  18  23
ATOM     23  O   UNL     1     112.776 130.763 142.387  0.00  0.00    +0.000 OA
BRANCH  23  28
ATOM     24  O   UNL     1     111.573 131.024 141.660  0.00  0.00    +0.000 OA
ATOM     25  O   UNL     1     111.969 129.675 143.329  0.00  0.00    +0.000 OA
ATOM     26  O   UNL     1     110.364 129.392 143.073  0.00  0.00    +0.000 OA
ATOM     27  O   UNL     1     109.566 130.197 141.876  0.00  0.00    +0.000 OA
ATOM     28  C   UNL     1     111.973 130.621 142.259  0.00  0.00    +0.000 C 
ATOM     29  C   UNL     1     111.571 130.078 142.730  0.00  0.00    +0.000 C 
ATOM     30  C   UNL     1     110.767 129.936 142.602  0.00  0.00    +0.000 C 
ATOM     31  C   UNL     1     110.368 130.339 142.003  0.00  0.00    +0.000 C 
ATOM     32  C   UNL     1     110.771 130.882 141.532  0.00  0.00    +0.000 C 
BRANCH  32  34
ATOM     33  O   UNL     1     110.661 132.008 140.660  0.00  0.00    +0.000 OA
ATOM     34  C   UNL     1     110.372 131.285 140.933  0.00  0.00    +0.000 C 
ENDBRANCH  32  34
ENDBRANCH  23  28
ENDBRANCH  18  23
ENDBRANCH   5  22
BRANCH  12  37
ATOM     35  O   UNL     1     113.230 124.069 136.625  0.00  0.00    +0.000 OA
ATOM     36  C   UNL     1     112.666 125.084 137.456  0.00  0.00    +0.000 A 
ATOM     37  C   UNL     1     113.519 125.951 138.206  0.00  0.00    +0.000 A 
ATOM     38  C   UNL     1     112.762 125.712 137.983  0.00  0.00    +0.000 A 
ATOM     39  C   UNL     1     113.327 124.696 137.152  0.00  0.00    +0.000 A 
ATOM     40  C   UNL     1     114.181 125.562 137.902  0.00  0.00    +0.000 A 
ATOM     41  C   UNL     1     114.085 124.935 137.375  0.00  0.00    +0.000 A 
BRANCH  36  42
ATOM     42  O   UNL     1     111.908 124.845 137.234  0.00  0.00    +0.000 OA
BRANCH  42  51
ATOM     43  O   UNL     1     111.510 125.842 136.289  0.00  0.00    +0.000 OA
ATOM     44  O   UNL     1     109.417 126.208 137.557  0.00  0.00    +0.000 OA
ATOM     45  O   UNL     1     109.717 127.083 136.190  0.00  0.00    +0.000 OA
ATOM     46  O   UNL     1     110.513 125.089 138.079  0.00  0.00    +0.000 OA
ATOM     47  C   UNL     1     110.114 126.086 137.134  0.00  0.00    +0.000 C 
ATOM     48  C   UNL     1     110.265 126.523 136.451  0.00  0.00    +0.000 C 
ATOM     49  C   UNL     1     110.663 125.526 137.395  0.00  0.00    +0.000 C 
ATOM     50  C   UNL     1     110.963 126.401 136.029  0.00  0.00    +0.000 C 
ATOM     51  C   UNL     1     111.361 125.404 136.973  0.00  0.00    +0.000 C 
BRANCH  50  53
ATOM     52  O   UNL     1     111.749 127.363 135.323  0.00  0.00    +0.000 OA
ATOM     53  C   UNL     1     111.113 126.838 135.345  0.00  0.00    +0.000 C 
ENDBRANCH  50  53
ENDBRANCH  42  51
ENDBRANCH  36  42
ENDBRANCH  12  37
TORSDOF 8
ENDMDL
MODEL 4
REMARK VINA RESULT:     -11.0      4.123      6.293
REMARK  Name = 44257982
REMARK  8 active torsions:
REMARK  status: ('A' for Active; 'I' for Inactive)
REMARK    1  A    between atoms: O_2  and  C_22
REMARK    2  A    between atoms: O_2  and  C_27
REMARK    3  A    between atoms: O_12  and  C_38
REMARK    4  A    between atoms: O_12  and  C_46
REMARK    5  A    between atoms: C_26  and  C_32
REMARK    6  A    between atoms: C_31  and  C_33
REMARK    7  A    between atoms: C_37  and  C_42
REMARK    8  A    between atoms: C_47  and  C_49
REMARK                            x       y       z     vdW  Elec       q    Type
REMARK                         _______ _______ _______ _____ _____    ______ ____
ROOT
ATOM      1  O   UNL     1     112.074 130.414 140.311  0.00  0.00    +0.000 OA
ATOM      2  O   UNL     1     109.525 130.842 141.532  0.00  0.00    +0.000 OA
ATOM      3  O   UNL     1     109.903 131.539 138.762  0.00  0.00    +0.000 OA
ATOM      4  O   UNL     1     112.304 130.750 138.928  0.00  0.00    +0.000 OA
ATOM      5  C   UNL     1     110.800 130.628 140.922  0.00  0.00    +0.000 A 
ATOM      6  C   UNL     1     111.291 130.671 140.261  0.00  0.00    +0.000 A 
ATOM      7  C   UNL     1     110.017 130.885 140.870  0.00  0.00    +0.000 A 
ATOM      8  C   UNL     1     111.001 130.970 139.548  0.00  0.00    +0.000 A 
ATOM      9  C   UNL     1     109.726 131.183 140.159  0.00  0.00    +0.000 A 
ATOM     10  C   UNL     1     110.218 131.226 139.498  0.00  0.00    +0.000 A 
ATOM     11  C   UNL     1     111.523 131.008 138.868  0.00  0.00    +0.000 A 
ATOM     12  C   UNL     1     110.411 131.586 138.070  0.00  0.00    +0.000 A 
ATOM     13  C   UNL     1     111.226 131.319 138.124  0.00  0.00    +0.000 A 
ENDROOT
BRANCH   5  22
ATOM     14  O   UNL     1     111.005 129.527 141.810  0.00  0.00    +0.000 OA
ATOM     15  O   UNL     1     111.963 129.432 143.769  0.00  0.00    +0.000 OA
ATOM     16  O   UNL     1     112.133 131.035 143.417  0.00  0.00    +0.000 OA
ATOM     17  O   UNL     1     111.551 131.633 141.994  0.00  0.00    +0.000 OA
ATOM     18  C   UNL     1     111.296 129.229 142.522  0.00  0.00    +0.000 C 
ATOM     19  C   UNL     1     111.672 129.731 143.057  0.00  0.00    +0.000 C 
ATOM     20  C   UNL     1     111.757 130.533 142.881  0.00  0.00    +0.000 C 
ATOM     21  C   UNL     1     111.466 130.832 142.170  0.00  0.00    +0.000 C 
ATOM     22  C   UNL     1     111.090 130.330 141.633  0.00  0.00    +0.000 C 
BRANCH  18  23
ATOM     23  O   UNL     1     111.211 128.427 142.698  0.00  0.00    +0.000 OA
BRANCH  23  28
ATOM     24  O   UNL     1     112.171 127.818 141.832  0.00  0.00    +0.000 OA
ATOM     25  O   UNL     1     110.062 127.368 142.169  0.00  0.00    +0.000 OA
ATOM     26  O   UNL     1     110.447 126.229 141.039  0.00  0.00    +0.000 OA
ATOM     27  O   UNL     1     111.981 126.150 140.439  0.00  0.00    +0.000 OA
ATOM     28  C   UNL     1     111.403 127.858 142.133  0.00  0.00    +0.000 C 
ATOM     29  C   UNL     1     110.829 127.329 141.869  0.00  0.00    +0.000 C 
ATOM     30  C   UNL     1     111.022 126.759 141.304  0.00  0.00    +0.000 C 
ATOM     31  C   UNL     1     111.789 126.719 141.004  0.00  0.00    +0.000 C 
ATOM     32  C   UNL     1     112.363 127.248 141.268  0.00  0.00    +0.000 C 
BRANCH  32  34
ATOM     33  O   UNL     1     113.768 127.455 141.432  0.00  0.00    +0.000 OA
ATOM     34  C   UNL     1     113.131 127.209 140.968  0.00  0.00    +0.000 C 
ENDBRANCH  32  34
ENDBRANCH  23  28
ENDBRANCH  18  23
ENDBRANCH   5  22
BRANCH  12  37
ATOM     35  O   UNL     1     109.236 132.785 135.229  0.00  0.00    +0.000 OA
ATOM     36  C   UNL     1     109.311 131.730 136.190  0.00  0.00    +0.000 A 
ATOM     37  C   UNL     1     110.117 131.885 137.360  0.00  0.00    +0.000 A 
ATOM     38  C   UNL     1     109.604 131.430 136.900  0.00  0.00    +0.000 A 
ATOM     39  C   UNL     1     109.530 132.485 135.939  0.00  0.00    +0.000 A 
ATOM     40  C   UNL     1     110.336 132.640 137.109  0.00  0.00    +0.000 A 
ATOM     41  C   UNL     1     110.042 132.940 136.399  0.00  0.00    +0.000 A 
BRANCH  36  42
ATOM     42  O   UNL     1     108.798 131.275 135.731  0.00  0.00    +0.000 OA
BRANCH  42  51
ATOM     43  O   UNL     1     109.693 130.306 135.180  0.00  0.00    +0.000 OA
ATOM     44  O   UNL     1     108.130 128.498 135.818  0.00  0.00    +0.000 OA
ATOM     45  O   UNL     1     109.546 128.132 135.055  0.00  0.00    +0.000 OA
ATOM     46  O   UNL     1     107.756 130.070 136.156  0.00  0.00    +0.000 OA
ATOM     47  C   UNL     1     108.651 129.100 135.606  0.00  0.00    +0.000 C 
ATOM     48  C   UNL     1     109.359 128.918 135.224  0.00  0.00    +0.000 C 
ATOM     49  C   UNL     1     108.464 129.887 135.774  0.00  0.00    +0.000 C 
ATOM     50  C   UNL     1     109.880 129.521 135.011  0.00  0.00    +0.000 C 
ATOM     51  C   UNL     1     108.985 130.490 135.562  0.00  0.00    +0.000 C 
BRANCH  50  53
ATOM     52  O   UNL     1     111.308 129.563 134.965  0.00  0.00    +0.000 OA
ATOM     53  C   UNL     1     110.588 129.338 134.630  0.00  0.00    +0.000 C 
ENDBRANCH  50  53
ENDBRANCH  42  51
ENDBRANCH  36  42
ENDBRANCH  12  37
TORSDOF 8
ENDMDL
MODEL 5
REMARK VINA RESULT:     -11.0      5.442      7.425
REMARK  Name = 44257982
REMARK  8 active torsions:
REMARK  status: ('A' for Active; 'I' for Inactive)
REMARK    1  A    between atoms: O_2  and  C_22
REMARK    2  A    between atoms: O_2  and  C_27
REMARK    3  A    between atoms: O_12  and  C_38
REMARK    4  A    between atoms: O_12  and  C_46
REMARK    5  A    between atoms: C_26  and  C_32
REMARK    6  A    between atoms: C_31  and  C_33
REMARK    7  A    between atoms: C_37  and  C_42
REMARK    8  A    between atoms: C_47  and  C_49
REMARK                            x       y       z     vdW  Elec       q    Type
REMARK                         _______ _______ _______ _____ _____    ______ ____
ROOT
ATOM      1  O   UNL     1     105.831 125.663 144.598  0.00  0.00    +0.000 OA
ATOM      2  O   UNL     1     105.583 127.511 146.765  0.00  0.00    +0.000 OA
ATOM      3  O   UNL     1     105.140 128.423 144.069  0.00  0.00    +0.000 OA
ATOM      4  O   UNL     1     105.617 126.080 143.234  0.00  0.00    +0.000 OA
ATOM      5  C   UNL     1     105.707 126.586 145.682  0.00  0.00    +0.000 A 
ATOM      6  C   UNL     1     105.676 126.425 144.873  0.00  0.00    +0.000 A 
ATOM      7  C   UNL     1     105.552 127.349 145.956  0.00  0.00    +0.000 A 
ATOM      8  C   UNL     1     105.490 127.026 144.339  0.00  0.00    +0.000 A 
ATOM      9  C   UNL     1     105.366 127.950 145.423  0.00  0.00    +0.000 A 
ATOM     10  C   UNL     1     105.335 127.788 144.614  0.00  0.00    +0.000 A 
ATOM     11  C   UNL     1     105.461 126.845 143.500  0.00  0.00    +0.000 A 
ATOM     12  C   UNL     1     105.106 128.261 143.225  0.00  0.00    +0.000 A 
ATOM     13  C   UNL     1     105.267 127.466 142.939  0.00  0.00    +0.000 A 
ENDROOT
BRANCH   5  22
ATOM     14  O   UNL     1     105.289 125.567 146.592  0.00  0.00    +0.000 OA
ATOM     15  O   UNL     1     106.451 124.182 147.817  0.00  0.00    +0.000 OA
ATOM     16  O   UNL     1     107.657 125.019 147.063  0.00  0.00    +0.000 OA
ATOM     17  O   UNL     1     107.285 126.221 145.996  0.00  0.00    +0.000 OA
ATOM     18  C   UNL     1     105.476 124.966 147.126  0.00  0.00    +0.000 C 
ATOM     19  C   UNL     1     106.264 124.783 147.283  0.00  0.00    +0.000 C 
ATOM     20  C   UNL     1     106.868 125.202 146.906  0.00  0.00    +0.000 C 
ATOM     21  C   UNL     1     106.682 125.802 146.373  0.00  0.00    +0.000 C 
ATOM     22  C   UNL     1     105.893 125.986 146.215  0.00  0.00    +0.000 C 
BRANCH  18  23
ATOM     23  O   UNL     1     104.872 124.548 147.503  0.00  0.00    +0.000 OA
BRANCH  23  28
ATOM     24  O   UNL     1     104.346 123.709 146.472  0.00  0.00    +0.000 OA
ATOM     25  O   UNL     1     103.354 125.108 147.823  0.00  0.00    +0.000 OA
ATOM     26  O   UNL     1     102.068 124.550 146.952  0.00  0.00    +0.000 OA
ATOM     27  O   UNL     1     102.301 123.432 145.762  0.00  0.00    +0.000 OA
ATOM     28  C   UNL     1     104.229 124.269 147.068  0.00  0.00    +0.000 C 
ATOM     29  C   UNL     1     103.471 124.549 147.228  0.00  0.00    +0.000 C 
ATOM     30  C   UNL     1     102.827 124.270 146.792  0.00  0.00    +0.000 C 
ATOM     31  C   UNL     1     102.944 123.711 146.197  0.00  0.00    +0.000 C 
ATOM     32  C   UNL     1     103.702 123.431 146.037  0.00  0.00    +0.000 C 
BRANCH  32  34
ATOM     33  O   UNL     1     104.515 122.882 144.998  0.00  0.00    +0.000 OA
ATOM     34  C   UNL     1     103.819 122.872 145.442  0.00  0.00    +0.000 C 
ENDBRANCH  32  34
ENDBRANCH  23  28
ENDBRANCH  18  23
ENDBRANCH   5  22
BRANCH  12  37
ATOM     35  O   UNL     1     104.359 130.674 141.102  0.00  0.00    +0.000 OA
ATOM     36  C   UNL     1     105.331 129.845 141.740  0.00  0.00    +0.000 A 
ATOM     37  C   UNL     1     104.920 128.864 142.694  0.00  0.00    +0.000 A 
ATOM     38  C   UNL     1     105.519 129.242 142.270  0.00  0.00    +0.000 A 
ATOM     39  C   UNL     1     104.545 130.071 141.632  0.00  0.00    +0.000 A 
ATOM     40  C   UNL     1     104.133 129.090 142.587  0.00  0.00    +0.000 A 
ATOM     41  C   UNL     1     103.946 129.693 142.056  0.00  0.00    +0.000 A 
BRANCH  36  42
ATOM     42  O   UNL     1     105.931 130.222 141.316  0.00  0.00    +0.000 OA
BRANCH  42  51
ATOM     43  O   UNL     1     106.520 131.009 142.354  0.00  0.00    +0.000 OA
ATOM     44  O   UNL     1     108.772 130.313 141.603  0.00  0.00    +0.000 OA
ATOM     45  O   UNL     1     108.611 131.332 142.892  0.00  0.00    +0.000 OA
ATOM     46  O   UNL     1     107.433 129.759 140.816  0.00  0.00    +0.000 OA
ATOM     47  C   UNL     1     108.022 130.545 141.854  0.00  0.00    +0.000 C 
ATOM     48  C   UNL     1     107.941 131.054 142.498  0.00  0.00    +0.000 C 
ATOM     49  C   UNL     1     107.351 130.268 141.460  0.00  0.00    +0.000 C 
ATOM     50  C   UNL     1     107.190 131.286 142.748  0.00  0.00    +0.000 C 
ATOM     51  C   UNL     1     106.600 130.500 141.710  0.00  0.00    +0.000 C 
BRANCH  50  53
ATOM     52  O   UNL     1     106.688 132.500 143.310  0.00  0.00    +0.000 OA
ATOM     53  C   UNL     1     107.108 131.795 143.392  0.00  0.00    +0.000 C 
ENDBRANCH  50  53
ENDBRANCH  42  51
ENDBRANCH  36  42
ENDBRANCH  12  37
TORSDOF 8
ENDMDL
MODEL 6
REMARK VINA RESULT:     -10.8      4.682      6.938
REMARK  Name = 44257982
REMARK  8 active torsions:
REMARK  status: ('A' for Active; 'I' for Inactive)
REMARK    1  A    between atoms: O_2  and  C_22
REMARK    2  A    between atoms: O_2  and  C_27
REMARK    3  A    between atoms: O_12  and  C_38
REMARK    4  A    between atoms: O_12  and  C_46
REMARK    5  A    between atoms: C_26  and  C_32
REMARK    6  A    between atoms: C_31  and  C_33
REMARK    7  A    between atoms: C_37  and  C_42
REMARK    8  A    between atoms: C_47  and  C_49
REMARK                            x       y       z     vdW  Elec       q    Type
REMARK                         _______ _______ _______ _____ _____    ______ ____
ROOT
ATOM      1  O   UNL     1     108.575 130.142 138.296  0.00  0.00    +0.000 OA
ATOM      2  O   UNL     1     109.957 132.499 137.457  0.00  0.00    +0.000 OA
ATOM      3  O   UNL     1     110.558 131.345 140.028  0.00  0.00    +0.000 OA
ATOM      4  O   UNL     1     108.847 129.533 139.575  0.00  0.00    +0.000 OA
ATOM      5  C   UNL     1     109.266 131.320 137.876  0.00  0.00    +0.000 A 
ATOM      6  C   UNL     1     109.132 130.733 138.440  0.00  0.00    +0.000 A 
ATOM      7  C   UNL     1     109.823 131.911 138.022  0.00  0.00    +0.000 A 
ATOM      8  C   UNL     1     109.554 130.737 139.150  0.00  0.00    +0.000 A 
ATOM      9  C   UNL     1     110.245 131.916 138.730  0.00  0.00    +0.000 A 
ATOM     10  C   UNL     1     110.111 131.329 139.294  0.00  0.00    +0.000 A 
ATOM     11  C   UNL     1     109.405 130.120 139.728  0.00  0.00    +0.000 A 
ATOM     12  C   UNL     1     110.423 130.736 140.620  0.00  0.00    +0.000 A 
ATOM     13  C   UNL     1     109.842 130.120 140.468  0.00  0.00    +0.000 A 
ENDROOT
BRANCH   5  22
ATOM     14  O   UNL     1     109.168 130.963 136.496  0.00  0.00    +0.000 OA
ATOM     15  O   UNL     1     107.575 131.302 135.042  0.00  0.00    +0.000 OA
ATOM     16  O   UNL     1     106.926 132.007 136.385  0.00  0.00    +0.000 OA
ATOM     17  O   UNL     1     107.771 132.016 137.802  0.00  0.00    +0.000 OA
ATOM     18  C   UNL     1     108.745 130.959 135.788  0.00  0.00    +0.000 C 
ATOM     19  C   UNL     1     107.999 131.306 135.751  0.00  0.00    +0.000 C 
ATOM     20  C   UNL     1     107.674 131.659 136.423  0.00  0.00    +0.000 C 
ATOM     21  C   UNL     1     108.096 131.664 137.131  0.00  0.00    +0.000 C 
ATOM     22  C   UNL     1     108.843 131.316 137.169  0.00  0.00    +0.000 C 
BRANCH  18  23
ATOM     23  O   UNL     1     109.070 130.606 135.116  0.00  0.00    +0.000 OA
BRANCH  23  28
ATOM     24  O   UNL     1     108.904 129.221 135.427  0.00  0.00    +0.000 OA
ATOM     25  O   UNL     1     110.631 130.318 134.666  0.00  0.00    +0.000 OA
ATOM     26  O   UNL     1     111.245 128.789 134.751  0.00  0.00    +0.000 OA
ATOM     27  O   UNL     1     110.298 127.549 135.287  0.00  0.00    +0.000 OA
ATOM     28  C   UNL     1     109.377 129.842 135.159  0.00  0.00    +0.000 C 
ATOM     29  C   UNL     1     110.157 129.698 134.934  0.00  0.00    +0.000 C 
ATOM     30  C   UNL     1     110.464 128.933 134.976  0.00  0.00    +0.000 C 
ATOM     31  C   UNL     1     109.991 128.313 135.244  0.00  0.00    +0.000 C 
ATOM     32  C   UNL     1     109.211 128.457 135.469  0.00  0.00    +0.000 C 
BRANCH  32  34
ATOM     33  O   UNL     1     107.917 127.926 135.760  0.00  0.00    +0.000 OA
ATOM     34  C   UNL     1     108.737 127.837 135.737  0.00  0.00    +0.000 C 
ENDBRANCH  32  34
ENDBRANCH  23  28
ENDBRANCH  18  23
ENDBRANCH   5  22
BRANCH  12  37
ATOM     35  O   UNL     1     112.119 130.767 143.449  0.00  0.00    +0.000 OA
ATOM     36  C   UNL     1     111.905 130.234 142.142  0.00  0.00    +0.000 A 
ATOM     37  C   UNL     1     110.847 130.743 141.327  0.00  0.00    +0.000 A 
ATOM     38  C   UNL     1     111.481 130.226 141.434  0.00  0.00    +0.000 A 
ATOM     39  C   UNL     1     111.695 130.759 142.742  0.00  0.00    +0.000 A 
ATOM     40  C   UNL     1     110.637 131.268 141.927  0.00  0.00    +0.000 A 
ATOM     41  C   UNL     1     111.061 131.276 142.635  0.00  0.00    +0.000 A 
BRANCH  36  42
ATOM     42  O   UNL     1     112.539 129.717 142.248  0.00  0.00    +0.000 OA
BRANCH  42  51
ATOM     43  O   UNL     1     113.569 130.398 141.529  0.00  0.00    +0.000 OA
ATOM     44  O   UNL     1     114.183 128.281 140.404  0.00  0.00    +0.000 OA
ATOM     45  O   UNL     1     115.009 129.667 140.060  0.00  0.00    +0.000 OA
ATOM     46  O   UNL     1     112.948 128.306 141.498  0.00  0.00    +0.000 OA
ATOM     47  C   UNL     1     113.979 128.986 140.779  0.00  0.00    +0.000 C 
ATOM     48  C   UNL     1     114.392 129.680 140.607  0.00  0.00    +0.000 C 
ATOM     49  C   UNL     1     113.361 128.999 141.326  0.00  0.00    +0.000 C 
ATOM     50  C   UNL     1     114.187 130.385 140.982  0.00  0.00    +0.000 C 
ATOM     51  C   UNL     1     113.156 129.705 141.702  0.00  0.00    +0.000 C 
BRANCH  50  53
ATOM     52  O   UNL     1     114.824 131.587 141.420  0.00  0.00    +0.000 OA
ATOM     53  C   UNL     1     114.600 131.079 140.810  0.00  0.00    +0.000 C 
ENDBRANCH  50  53
ENDBRANCH  42  51
ENDBRANCH  36  42
ENDBRANCH  12  37
TORSDOF 8
ENDMDL
MODEL 7
REMARK VINA RESULT:     -10.7      1.456      7.041
REMARK  Name = 44257982
REMARK  8 active torsions:
REMARK  status: ('A' for Active; 'I' for Inactive)
REMARK    1  A    between atoms: O_2  and  C_22
REMARK    2  A    between atoms: O_2  and  C_27
REMARK    3  A    between atoms: O_12  and  C_38
REMARK    4  A    between atoms: O_12  and  C_46
REMARK    5  A    between atoms: C_26  and  C_32
REMARK    6  A    between atoms: C_31  and  C_33
REMARK    7  A    between atoms: C_37  and  C_42
REMARK    8  A    between atoms: C_47  and  C_49
REMARK                            x       y       z     vdW  Elec       q    Type
REMARK                         _______ _______ _______ _____ _____    ______ ____
ROOT
ATOM      1  O   UNL     1     111.401 126.077 139.987  0.00  0.00    +0.000 OA
ATOM      2  O   UNL     1     109.959 126.169 137.521  0.00  0.00    +0.000 OA
ATOM      3  O   UNL     1     108.508 126.155 140.010  0.00  0.00    +0.000 OA
ATOM      4  O   UNL     1     110.712 126.069 141.254  0.00  0.00    +0.000 OA
ATOM      5  C   UNL     1     110.680 126.123 138.754  0.00  0.00    +0.000 A 
ATOM      6  C   UNL     1     110.685 126.105 139.579  0.00  0.00    +0.000 A 
ATOM      7  C   UNL     1     109.963 126.151 138.346  0.00  0.00    +0.000 A 
ATOM      8  C   UNL     1     109.972 126.116 139.996  0.00  0.00    +0.000 A 
ATOM      9  C   UNL     1     109.252 126.161 138.763  0.00  0.00    +0.000 A 
ATOM     10  C   UNL     1     109.256 126.144 139.587  0.00  0.00    +0.000 A 
ATOM     11  C   UNL     1     109.991 126.097 140.855  0.00  0.00    +0.000 A 
ATOM     12  C   UNL     1     108.506 126.136 140.870  0.00  0.00    +0.000 A 
ATOM     13  C   UNL     1     109.253 126.107 141.294  0.00  0.00    +0.000 A 
ENDROOT
BRANCH   5  22
ATOM     14  O   UNL     1     111.805 126.816 138.210  0.00  0.00    +0.000 OA
ATOM     15  O   UNL     1     113.529 126.083 137.088  0.00  0.00    +0.000 OA
ATOM     16  O   UNL     1     112.703 124.678 137.344  0.00  0.00    +0.000 OA
ATOM     17  O   UNL     1     111.278 124.698 138.177  0.00  0.00    +0.000 OA
ATOM     18  C   UNL     1     112.517 126.806 137.793  0.00  0.00    +0.000 C 
ATOM     19  C   UNL     1     112.816 126.094 137.505  0.00  0.00    +0.000 C 
ATOM     20  C   UNL     1     112.403 125.390 137.633  0.00  0.00    +0.000 C 
ATOM     21  C   UNL     1     111.691 125.400 138.049  0.00  0.00    +0.000 C 
ATOM     22  C   UNL     1     111.392 126.113 138.338  0.00  0.00    +0.000 C 
BRANCH  18  23
ATOM     23  O   UNL     1     112.930 127.508 137.665  0.00  0.00    +0.000 OA
BRANCH  23  28
ATOM     24  O   UNL     1     112.179 128.084 136.595  0.00  0.00    +0.000 OA
ATOM     25  O   UNL     1     112.901 128.953 138.462  0.00  0.00    +0.000 OA
ATOM     26  O   UNL     1     112.134 130.250 137.791  0.00  0.00    +0.000 OA
ATOM     27  O   UNL     1     111.398 130.103 136.322  0.00  0.00    +0.000 OA
ATOM     28  C   UNL     1     112.547 128.157 137.330  0.00  0.00    +0.000 C 
ATOM     29  C   UNL     1     112.532 128.879 137.728  0.00  0.00    +0.000 C 
ATOM     30  C   UNL     1     112.149 129.528 137.392  0.00  0.00    +0.000 C 
ATOM     31  C   UNL     1     111.781 129.454 136.657  0.00  0.00    +0.000 C 
ATOM     32  C   UNL     1     111.796 128.733 136.259  0.00  0.00    +0.000 C 
BRANCH  32  34
ATOM     33  O   UNL     1     111.757 128.171 134.946  0.00  0.00    +0.000 OA
ATOM     34  C   UNL     1     111.427 128.659 135.525  0.00  0.00    +0.000 C 
ENDBRANCH  32  34
ENDBRANCH  23  28
ENDBRANCH  18  23
ENDBRANCH   5  22
BRANCH  12  37
ATOM     35  O   UNL     1     105.651 126.179 142.524  0.00  0.00    +0.000 OA
ATOM     36  C   UNL     1     106.578 125.502 141.674  0.00  0.00    +0.000 A 
ATOM     37  C   UNL     1     107.792 126.147 141.283  0.00  0.00    +0.000 A 
ATOM     38  C   UNL     1     107.292 125.491 141.260  0.00  0.00    +0.000 A 
ATOM     39  C   UNL     1     106.365 126.169 142.110  0.00  0.00    +0.000 A 
ATOM     40  C   UNL     1     107.578 126.814 141.719  0.00  0.00    +0.000 A 
ATOM     41  C   UNL     1     106.865 126.825 142.133  0.00  0.00    +0.000 A 
BRANCH  36  42
ATOM     42  O   UNL     1     106.078 124.846 141.651  0.00  0.00    +0.000 OA
BRANCH  42  51
ATOM     43  O   UNL     1     105.388 125.109 140.428  0.00  0.00    +0.000 OA
ATOM     44  O   UNL     1     105.657 122.740 139.766  0.00  0.00    +0.000 OA
ATOM     45  O   UNL     1     104.877 123.792 138.763  0.00  0.00    +0.000 OA
ATOM     46  O   UNL     1     106.258 123.267 141.210  0.00  0.00    +0.000 OA
ATOM     47  C   UNL     1     105.567 123.529 139.986  0.00  0.00    +0.000 C 
ATOM     48  C   UNL     1     105.177 124.055 139.485  0.00  0.00    +0.000 C 
ATOM     49  C   UNL     1     105.868 123.793 140.709  0.00  0.00    +0.000 C 
ATOM     50  C   UNL     1     105.087 124.845 139.706  0.00  0.00    +0.000 C 
ATOM     51  C   UNL     1     105.778 124.583 140.930  0.00  0.00    +0.000 C 
BRANCH  50  53
ATOM     52  O   UNL     1     104.212 125.960 139.521  0.00  0.00    +0.000 OA
ATOM     53  C   UNL     1     104.697 125.372 139.204  0.00  0.00    +0.000 C 
ENDBRANCH  50  53
ENDBRANCH  42  51
ENDBRANCH  36  42
ENDBRANCH  12  37
TORSDOF 8
ENDMDL
MODEL 8
REMARK VINA RESULT:     -10.6      5.189      8.955
REMARK  Name = 44257982
REMARK  8 active torsions:
REMARK  status: ('A' for Active; 'I' for Inactive)
REMARK    1  A    between atoms: O_2  and  C_22
REMARK    2  A    between atoms: O_2  and  C_27
REMARK    3  A    between atoms: O_12  and  C_38
REMARK    4  A    between atoms: O_12  and  C_46
REMARK    5  A    between atoms: C_26  and  C_32
REMARK    6  A    between atoms: C_31  and  C_33
REMARK    7  A    between atoms: C_37  and  C_42
REMARK    8  A    between atoms: C_47  and  C_49
REMARK                            x       y       z     vdW  Elec       q    Type
REMARK                         _______ _______ _______ _____ _____    ______ ____
ROOT
ATOM      1  O   UNL     1     104.766 128.051 141.477  0.00  0.00    +0.000 OA
ATOM      2  O   UNL     1     105.699 129.063 143.982  0.00  0.00    +0.000 OA
ATOM      3  O   UNL     1     103.570 130.432 142.605  0.00  0.00    +0.000 OA
ATOM      4  O   UNL     1     103.703 128.706 140.756  0.00  0.00    +0.000 OA
ATOM      5  C   UNL     1     105.233 128.557 142.730  0.00  0.00    +0.000 A 
ATOM      6  C   UNL     1     104.726 128.611 142.081  0.00  0.00    +0.000 A 
ATOM      7  C   UNL     1     105.191 129.118 143.333  0.00  0.00    +0.000 A 
ATOM      8  C   UNL     1     104.177 129.226 142.036  0.00  0.00    +0.000 A 
ATOM      9  C   UNL     1     104.644 129.732 143.289  0.00  0.00    +0.000 A 
ATOM     10  C   UNL     1     104.137 129.787 142.640  0.00  0.00    +0.000 A 
ATOM     11  C   UNL     1     103.655 129.271 141.355  0.00  0.00    +0.000 A 
ATOM     12  C   UNL     1     103.039 130.494 141.932  0.00  0.00    +0.000 A 
ATOM     13  C   UNL     1     103.082 129.910 141.303  0.00  0.00    +0.000 A 
ENDROOT
BRANCH   5  22
ATOM     14  O   UNL     1     106.499 128.000 142.371  0.00  0.00    +0.000 OA
ATOM     15  O   UNL     1     107.426 126.097 142.907  0.00  0.00    +0.000 OA
ATOM     16  O   UNL     1     105.990 125.982 143.712  0.00  0.00    +0.000 OA
ATOM     17  O   UNL     1     104.893 127.212 143.623  0.00  0.00    +0.000 OA
ATOM     18  C   UNL     1     107.047 127.384 142.416  0.00  0.00    +0.000 C 
ATOM     19  C   UNL     1     106.878 126.712 142.862  0.00  0.00    +0.000 C 
ATOM     20  C   UNL     1     106.159 126.654 143.265  0.00  0.00    +0.000 C 
ATOM     21  C   UNL     1     105.611 127.269 143.221  0.00  0.00    +0.000 C 
ATOM     22  C   UNL     1     105.781 127.942 142.774  0.00  0.00    +0.000 C 
BRANCH  18  23
ATOM     23  O   UNL     1     107.765 127.442 142.014  0.00  0.00    +0.000 OA
BRANCH  23  28
ATOM     24  O   UNL     1     108.477 128.374 142.830  0.00  0.00    +0.000 OA
ATOM     25  O   UNL     1     108.180 128.302 140.669  0.00  0.00    +0.000 OA
ATOM     26  O   UNL     1     109.100 129.665 140.812  0.00  0.00    +0.000 OA
ATOM     27  O   UNL     1     109.604 130.166 142.300  0.00  0.00    +0.000 OA
ATOM     28  C   UNL     1     108.225 128.123 142.085  0.00  0.00    +0.000 C 
ATOM     29  C   UNL     1     108.432 128.552 141.413  0.00  0.00    +0.000 C 
ATOM     30  C   UNL     1     108.892 129.234 141.484  0.00  0.00    +0.000 C 
ATOM     31  C   UNL     1     109.144 129.485 142.229  0.00  0.00    +0.000 C 
ATOM     32  C   UNL     1     108.937 129.055 142.901  0.00  0.00    +0.000 C 
BRANCH  32  34
ATOM     33  O   UNL     1     109.362 128.749 144.230  0.00  0.00    +0.000 OA
ATOM     34  C   UNL     1     109.189 129.305 143.645  0.00  0.00    +0.000 C 
ENDBRANCH  32  34
ENDBRANCH  23  28
ENDBRANCH  18  23
ENDBRANCH   5  22
BRANCH  12  37
ATOM     35  O   UNL     1     100.851 132.958 141.767  0.00  0.00    +0.000 OA
ATOM     36  C   UNL     1     102.160 132.447 141.512  0.00  0.00    +0.000 A 
ATOM     37  C   UNL     1     102.492 131.110 141.891  0.00  0.00    +0.000 A 
ATOM     38  C   UNL     1     102.707 131.832 141.553  0.00  0.00    +0.000 A 
ATOM     39  C   UNL     1     101.397 132.342 141.809  0.00  0.00    +0.000 A 
ATOM     40  C   UNL     1     101.730 131.005 142.188  0.00  0.00    +0.000 A 
ATOM     41  C   UNL     1     101.182 131.621 142.147  0.00  0.00    +0.000 A 
BRANCH  36  42
ATOM     42  O   UNL     1     102.376 133.169 141.173  0.00  0.00    +0.000 OA
BRANCH  42  51
ATOM     43  O   UNL     1     103.152 133.704 142.247  0.00  0.00    +0.000 OA
ATOM     44  O   UNL     1     104.862 134.467 140.629  0.00  0.00    +0.000 OA
ATOM     45  O   UNL     1     105.069 134.748 142.242  0.00  0.00    +0.000 OA
ATOM     46  O   UNL     1     103.515 133.678 140.095  0.00  0.00    +0.000 OA
ATOM     47  C   UNL     1     104.292 134.213 141.168  0.00  0.00    +0.000 C 
ATOM     48  C   UNL     1     104.396 134.353 141.975  0.00  0.00    +0.000 C 
ATOM     49  C   UNL     1     103.618 133.818 140.901  0.00  0.00    +0.000 C 
ATOM     50  C   UNL     1     103.826 134.099 142.514  0.00  0.00    +0.000 C 
ATOM     51  C   UNL     1     103.048 133.563 141.441  0.00  0.00    +0.000 C 
BRANCH  50  53
ATOM     52  O   UNL     1     103.295 134.504 143.777  0.00  0.00    +0.000 OA
ATOM     53  C   UNL     1     103.929 134.239 143.320  0.00  0.00    +0.000 C 
ENDBRANCH  50  53
ENDBRANCH  42  51
ENDBRANCH  36  42
ENDBRANCH  12  37
TORSDOF 8
ENDMDL
MODEL 9
REMARK VINA RESULT:     -10.6      5.224      8.829
REMARK  Name = 44257982
REMARK  8 active torsions:
REMARK  status: ('A' for Active; 'I' for Inactive)
REMARK    1  A    between atoms: O_2  and  C_22
REMARK    2  A    between atoms: O_2  and  C_27
REMARK    3  A    between atoms: O_12  and  C_38
REMARK    4  A    between atoms: O_12  and  C_46
REMARK    5  A    between atoms: C_26  and  C_32
REMARK    6  A    between atoms: C_31  and  C_33
REMARK    7  A    between atoms: C_37  and  C_42
REMARK    8  A    between atoms: C_47  and  C_49
REMARK                            x       y       z     vdW  Elec       q    Type
REMARK                         _______ _______ _______ _____ _____    ______ ____
ROOT
ATOM      1  O   UNL     1     104.993 128.070 141.440  0.00  0.00    +0.000 OA
ATOM      2  O   UNL     1     106.453 129.597 143.366  0.00  0.00    +0.000 OA
ATOM      3  O   UNL     1     103.965 130.623 142.337  0.00  0.00    +0.000 OA
ATOM      4  O   UNL     1     103.744 128.549 140.901  0.00  0.00    +0.000 OA
ATOM      5  C   UNL     1     105.723 128.833 142.403  0.00  0.00    +0.000 A 
ATOM      6  C   UNL     1     105.068 128.745 141.910  0.00  0.00    +0.000 A 
ATOM      7  C   UNL     1     105.797 129.508 142.872  0.00  0.00    +0.000 A 
ATOM      8  C   UNL     1     104.487 129.331 141.885  0.00  0.00    +0.000 A 
ATOM      9  C   UNL     1     105.217 130.094 142.848  0.00  0.00    +0.000 A 
ATOM     10  C   UNL     1     104.562 130.005 142.354  0.00  0.00    +0.000 A 
ATOM     11  C   UNL     1     103.810 129.226 141.366  0.00  0.00    +0.000 A 
ATOM     12  C   UNL     1     103.279 130.537 141.825  0.00  0.00    +0.000 A 
ATOM     13  C   UNL     1     103.202 129.833 141.337  0.00  0.00    +0.000 A 
ENDROOT
BRANCH   5  22
ATOM     14  O   UNL     1     106.201 127.586 142.912  0.00  0.00    +0.000 OA
ATOM     15  O   UNL     1     108.043 126.489 142.501  0.00  0.00    +0.000 OA
ATOM     16  O   UNL     1     108.246 127.810 141.535  0.00  0.00    +0.000 OA
ATOM     17  O   UNL     1     107.086 128.983 141.485  0.00  0.00    +0.000 OA
ATOM     18  C   UNL     1     106.782 127.000 142.936  0.00  0.00    +0.000 C 
ATOM     19  C   UNL     1     107.463 127.075 142.477  0.00  0.00    +0.000 C 
ATOM     20  C   UNL     1     107.564 127.736 141.993  0.00  0.00    +0.000 C 
ATOM     21  C   UNL     1     106.985 128.322 141.969  0.00  0.00    +0.000 C 
ATOM     22  C   UNL     1     106.303 128.248 142.428  0.00  0.00    +0.000 C 
BRANCH  18  23
ATOM     23  O   UNL     1     106.680 126.340 143.419  0.00  0.00    +0.000 OA
BRANCH  23  28
ATOM     24  O   UNL     1     106.819 126.920 144.717  0.00  0.00    +0.000 OA
ATOM     25  O   UNL     1     105.322 125.548 143.919  0.00  0.00    +0.000 OA
ATOM     26  O   UNL     1     104.781 125.733 145.467  0.00  0.00    +0.000 OA
ATOM     27  O   UNL     1     105.600 126.709 146.515  0.00  0.00    +0.000 OA
ATOM     28  C   UNL     1     106.410 126.432 144.193  0.00  0.00    +0.000 C 
ATOM     29  C   UNL     1     105.731 126.036 144.443  0.00  0.00    +0.000 C 
ATOM     30  C   UNL     1     105.461 126.129 145.217  0.00  0.00    +0.000 C 
ATOM     31  C   UNL     1     105.870 126.617 145.741  0.00  0.00    +0.000 C 
ATOM     32  C   UNL     1     106.549 127.012 145.491  0.00  0.00    +0.000 C 
BRANCH  32  34
ATOM     33  O   UNL     1     107.781 127.558 145.967  0.00  0.00    +0.000 OA
ATOM     34  C   UNL     1     106.959 127.501 146.015  0.00  0.00    +0.000 C 
ENDBRANCH  32  34
ENDBRANCH  23  28
ENDBRANCH  18  23
ENDBRANCH   5  22
BRANCH  12  37
ATOM     35  O   UNL     1     100.965 132.887 141.738  0.00  0.00    +0.000 OA
ATOM     36  C   UNL     1     102.283 132.436 141.420  0.00  0.00    +0.000 A 
ATOM     37  C   UNL     1     102.701 131.124 141.803  0.00  0.00    +0.000 A 
ATOM     38  C   UNL     1     102.862 131.848 141.442  0.00  0.00    +0.000 A 
ATOM     39  C   UNL     1     101.544 132.299 141.760  0.00  0.00    +0.000 A 
ATOM     40  C   UNL     1     101.962 130.987 142.143  0.00  0.00    +0.000 A 
ATOM     41  C   UNL     1     101.383 131.575 142.121  0.00  0.00    +0.000 A 
BRANCH  36  42
ATOM     42  O   UNL     1     102.444 133.160 141.059  0.00  0.00    +0.000 OA
BRANCH  42  51
ATOM     43  O   UNL     1     103.199 133.769 142.109  0.00  0.00    +0.000 OA
ATOM     44  O   UNL     1     104.814 134.634 140.446  0.00  0.00    +0.000 OA
ATOM     45  O   UNL     1     105.030 134.955 142.050  0.00  0.00    +0.000 OA
ATOM     46  O   UNL     1     103.521 133.737 139.951  0.00  0.00    +0.000 OA
ATOM     47  C   UNL     1     104.276 134.346 141.000  0.00  0.00    +0.000 C 
ATOM     48  C   UNL     1     104.384 134.506 141.802  0.00  0.00    +0.000 C 
ATOM     49  C   UNL     1     103.629 133.897 140.753  0.00  0.00    +0.000 C 
ATOM     50  C   UNL     1     103.845 134.218 142.357  0.00  0.00    +0.000 C 
ATOM     51  C   UNL     1     103.090 133.608 141.307  0.00  0.00    +0.000 C 
BRANCH  50  53
ATOM     52  O   UNL     1     103.322 134.656 143.612  0.00  0.00    +0.000 OA
ATOM     53  C   UNL     1     103.953 134.378 143.159  0.00  0.00    +0.000 C 
ENDBRANCH  50  53
ENDBRANCH  42  51
ENDBRANCH  36  42
ENDBRANCH  12  37
TORSDOF 8
ENDMDL
MODEL 10
REMARK VINA RESULT:     -10.6      3.902      6.590
REMARK  Name = 44257982
REMARK  8 active torsions:
REMARK  status: ('A' for Active; 'I' for Inactive)
REMARK    1  A    between atoms: O_2  and  C_22
REMARK    2  A    between atoms: O_2  and  C_27
REMARK    3  A    between atoms: O_12  and  C_38
REMARK    4  A    between atoms: O_12  and  C_46
REMARK    5  A    between atoms: C_26  and  C_32
REMARK    6  A    between atoms: C_31  and  C_33
REMARK    7  A    between atoms: C_37  and  C_42
REMARK    8  A    between atoms: C_47  and  C_49
REMARK                            x       y       z     vdW  Elec       q    Type
REMARK                         _______ _______ _______ _____ _____    ______ ____
ROOT
ATOM      1  O   UNL     1     112.760 127.637 137.383  0.00  0.00    +0.000 OA
ATOM      2  O   UNL     1     111.807 125.973 139.504  0.00  0.00    +0.000 OA
ATOM      3  O   UNL     1     112.958 128.540 140.126  0.00  0.00    +0.000 OA
ATOM      4  O   UNL     1     113.342 128.928 137.653  0.00  0.00    +0.000 OA
ATOM      5  C   UNL     1     112.283 126.805 138.443  0.00  0.00    +0.000 A 
ATOM      6  C   UNL     1     112.633 127.507 138.188  0.00  0.00    +0.000 A 
ATOM      7  C   UNL     1     112.157 126.676 139.248  0.00  0.00    +0.000 A 
ATOM      8  C   UNL     1     112.857 128.081 138.738  0.00  0.00    +0.000 A 
ATOM      9  C   UNL     1     112.380 127.249 139.798  0.00  0.00    +0.000 A 
ATOM     10  C   UNL     1     112.730 127.951 139.543  0.00  0.00    +0.000 A 
ATOM     11  C   UNL     1     113.220 128.808 138.459  0.00  0.00    +0.000 A 
ATOM     12  C   UNL     1     113.323 129.274 139.866  0.00  0.00    +0.000 A 
ATOM     13  C   UNL     1     113.454 129.408 139.027  0.00  0.00    +0.000 A 
ENDROOT
BRANCH   5  22
ATOM     14  O   UNL     1     111.300 126.243 137.572  0.00  0.00    +0.000 OA
ATOM     15  O   UNL     1     111.390 124.513 136.243  0.00  0.00    +0.000 OA
ATOM     16  O   UNL     1     112.910 124.492 136.885  0.00  0.00    +0.000 OA
ATOM     17  O   UNL     1     113.357 125.638 137.985  0.00  0.00    +0.000 OA
ATOM     18  C   UNL     1     111.077 125.669 137.022  0.00  0.00    +0.000 C 
ATOM     19  C   UNL     1     111.613 125.086 136.793  0.00  0.00    +0.000 C 
ATOM     20  C   UNL     1     112.374 125.076 137.115  0.00  0.00    +0.000 C 
ATOM     21  C   UNL     1     112.597 125.648 137.664  0.00  0.00    +0.000 C 
ATOM     22  C   UNL     1     112.060 126.232 137.894  0.00  0.00    +0.000 C 
BRANCH  18  23
ATOM     23  O   UNL     1     110.317 125.680 136.701  0.00  0.00    +0.000 OA
BRANCH  23  28
ATOM     24  O   UNL     1     110.418 126.662 135.668  0.00  0.00    +0.000 OA
ATOM     25  O   UNL     1     108.980 126.443 137.296  0.00  0.00    +0.000 OA
ATOM     26  O   UNL     1     108.414 127.807 136.560  0.00  0.00    +0.000 OA
ATOM     27  O   UNL     1     109.183 128.407 135.230  0.00  0.00    +0.000 OA
ATOM     28  C   UNL     1     110.033 126.362 136.334  0.00  0.00    +0.000 C 
ATOM     29  C   UNL     1     109.366 126.743 136.631  0.00  0.00    +0.000 C 
ATOM     30  C   UNL     1     109.082 127.425 136.263  0.00  0.00    +0.000 C 
ATOM     31  C   UNL     1     109.467 127.725 135.598  0.00  0.00    +0.000 C 
ATOM     32  C   UNL     1     110.134 127.344 135.301  0.00  0.00    +0.000 C 
BRANCH  32  34
ATOM     33  O   UNL     1     111.342 127.723 134.637  0.00  0.00    +0.000 OA
ATOM     34  C   UNL     1     110.520 127.644 134.636  0.00  0.00    +0.000 C 
ENDBRANCH  32  34
ENDBRANCH  23  28
ENDBRANCH  18  23
ENDBRANCH   5  22
BRANCH  12  37
ATOM     35  O   UNL     1     114.212 131.557 142.076  0.00  0.00    +0.000 OA
ATOM     36  C   UNL     1     113.192 130.860 141.361  0.00  0.00    +0.000 A 
ATOM     37  C   UNL     1     113.545 129.845 140.419  0.00  0.00    +0.000 A 
ATOM     38  C   UNL     1     112.969 130.289 140.808  0.00  0.00    +0.000 A 
ATOM     39  C   UNL     1     113.990 130.987 141.524  0.00  0.00    +0.000 A 
ATOM     40  C   UNL     1     114.344 129.972 140.581  0.00  0.00    +0.000 A 
ATOM     41  C   UNL     1     114.566 130.543 141.134  0.00  0.00    +0.000 A 
BRANCH  36  42
ATOM     42  O   UNL     1     112.615 131.304 141.750  0.00  0.00    +0.000 OA
BRANCH  42  51
ATOM     43  O   UNL     1     112.122 130.317 142.659  0.00  0.00    +0.000 OA
ATOM     44  O   UNL     1     109.801 130.996 142.138  0.00  0.00    +0.000 OA
ATOM     45  O   UNL     1     110.081 129.783 143.220  0.00  0.00    +0.000 OA
ATOM     46  O   UNL     1     111.068 131.757 141.403  0.00  0.00    +0.000 OA
ATOM     47  C   UNL     1     110.574 130.770 142.311  0.00  0.00    +0.000 C 
ATOM     48  C   UNL     1     110.715 130.163 142.852  0.00  0.00    +0.000 C 
ATOM     49  C   UNL     1     111.208 131.150 141.944  0.00  0.00    +0.000 C 
ATOM     50  C   UNL     1     111.489 129.936 143.026  0.00  0.00    +0.000 C 
ATOM     51  C   UNL     1     111.982 130.923 142.118  0.00  0.00    +0.000 C 
BRANCH  50  53
ATOM     52  O   UNL     1     112.006 129.494 144.282  0.00  0.00    +0.000 OA
ATOM     53  C   UNL     1     111.629 129.330 143.567  0.00  0.00    +0.000 C 
ENDBRANCH  50  53
ENDBRANCH  42  51
ENDBRANCH  36  42
ENDBRANCH  12  37
TORSDOF 8
ENDMDL
