MODEL 1
REMARK VINA RESULT:      -9.9      0.000      0.000
REMARK  Name = 44257788
REMARK  3 active torsions:
REMARK  status: ('A' for Active; 'I' for Inactive)
REMARK    1  A    between atoms: O_2  and  C_14
REMARK    2  A    between atoms: O_2  and  C_16
REMARK    3  A    between atoms: C_20  and  C_23
REMARK                            x       y       z     vdW  Elec       q    Type
REMARK                         _______ _______ _______ _____ _____    ______ ____
ROOT
ATOM      1  C   UNL     1     113.388 127.887 140.560  0.00  0.00    +0.000 A 
ATOM      2  C   UNL     1     113.624 127.107 140.692  0.00  0.00    +0.000 A 
ATOM      3  C   UNL     1     113.162 128.127 139.804  0.00  0.00    +0.000 A 
ATOM      4  C   UNL     1     113.633 126.568 140.068  0.00  0.00    +0.000 A 
ATOM      5  C   UNL     1     113.407 126.809 139.312  0.00  0.00    +0.000 A 
ATOM      6  C   UNL     1     113.171 127.588 139.180  0.00  0.00    +0.000 A 
ATOM      7  C   UNL     1     113.850 126.868 141.448  0.00  0.00    +0.000 C 
ENDROOT
BRANCH   5  12
ATOM      8  O   UNL     1     112.708 125.979 138.382  0.00  0.00    +0.000 OA
ATOM      9  O   UNL     1     114.864 125.232 137.425  0.00  0.00    +0.000 OA
ATOM     10  O   UNL     1     114.183 124.386 136.475  0.00  0.00    +0.000 OA
ATOM     11  O   UNL     1     111.264 124.294 136.495  0.00  0.00    +0.000 OA
ATOM     12  C   UNL     1     113.417 126.269 138.687  0.00  0.00    +0.000 A 
ATOM     13  C   UNL     1     114.136 126.020 138.368  0.00  0.00    +0.000 A 
ATOM     14  C   UNL     1     113.436 125.191 137.439  0.00  0.00    +0.000 A 
ATOM     15  C   UNL     1     112.717 125.440 137.757  0.00  0.00    +0.000 A 
ATOM     16  C   UNL     1     114.146 125.481 137.744  0.00  0.00    +0.000 A 
ATOM     17  C   UNL     1     113.459 124.629 136.788  0.00  0.00    +0.000 A 
ATOM     18  C   UNL     1     111.972 125.145 137.448  0.00  0.00    +0.000 A 
ATOM     19  C   UNL     1     111.975 124.583 136.798  0.00  0.00    +0.000 A 
ATOM     20  C   UNL     1     112.724 124.323 136.466  0.00  0.00    +0.000 A 
ENDBRANCH   5  12
BRANCH   1  21
ATOM     21  O   UNL     1     113.378 128.427 141.184  0.00  0.00    +0.000 OA
BRANCH  21  30
ATOM     22  O   UNL     1     114.458 129.254 140.745  0.00  0.00    +0.000 OA
ATOM     23  O   UNL     1     113.218 131.264 141.484  0.00  0.00    +0.000 OA
ATOM     24  O   UNL     1     114.711 131.421 140.798  0.00  0.00    +0.000 OA
ATOM     25  O   UNL     1     112.552 129.767 141.677  0.00  0.00    +0.000 OA
ATOM     26  C   UNL     1     113.631 130.594 141.238  0.00  0.00    +0.000 C 
ATOM     27  C   UNL     1     114.377 130.672 140.894  0.00  0.00    +0.000 C 
ATOM     28  C   UNL     1     113.299 129.845 141.334  0.00  0.00    +0.000 C 
ATOM     29  C   UNL     1     114.791 130.001 140.648  0.00  0.00    +0.000 C 
ATOM     30  C   UNL     1     113.712 129.175 141.087  0.00  0.00    +0.000 C 
ATOM     31  C   UNL     1     115.537 130.080 140.305  0.00  0.00    +0.000 C 
ENDBRANCH  21  30
ENDBRANCH   1  21
TORSDOF 3
ENDMDL
MODEL 2
REMARK VINA RESULT:      -9.8      3.162      3.772
REMARK  Name = 44257788
REMARK  3 active torsions:
REMARK  status: ('A' for Active; 'I' for Inactive)
REMARK    1  A    between atoms: O_2  and  C_14
REMARK    2  A    between atoms: O_2  and  C_16
REMARK    3  A    between atoms: C_20  and  C_23
REMARK                            x       y       z     vdW  Elec       q    Type
REMARK                         _______ _______ _______ _____ _____    ______ ____
ROOT
ATOM      1  C   UNL     1     113.079 129.298 136.612  0.00  0.00    +0.000 A 
ATOM      2  C   UNL     1     113.489 128.867 136.039  0.00  0.00    +0.000 A 
ATOM      3  C   UNL     1     112.736 128.908 137.253  0.00  0.00    +0.000 A 
ATOM      4  C   UNL     1     113.555 128.048 136.107  0.00  0.00    +0.000 A 
ATOM      5  C   UNL     1     113.210 127.659 136.748  0.00  0.00    +0.000 A 
ATOM      6  C   UNL     1     112.801 128.088 137.321  0.00  0.00    +0.000 A 
ATOM      7  C   UNL     1     113.833 129.257 135.399  0.00  0.00    +0.000 C 
ENDROOT
BRANCH   5  12
ATOM      8  O   UNL     1     112.669 126.352 136.543  0.00  0.00    +0.000 OA
ATOM      9  O   UNL     1     114.687 125.353 137.567  0.00  0.00    +0.000 OA
ATOM     10  O   UNL     1     114.164 124.023 137.372  0.00  0.00    +0.000 OA
ATOM     11  O   UNL     1     111.547 123.699 136.116  0.00  0.00    +0.000 OA
ATOM     12  C   UNL     1     113.276 126.839 136.816  0.00  0.00    +0.000 A 
ATOM     13  C   UNL     1     113.949 126.506 137.158  0.00  0.00    +0.000 A 
ATOM     14  C   UNL     1     113.407 125.200 136.952  0.00  0.00    +0.000 A 
ATOM     15  C   UNL     1     112.734 125.533 136.611  0.00  0.00    +0.000 A 
ATOM     16  C   UNL     1     114.015 125.686 137.226  0.00  0.00    +0.000 A 
ATOM     17  C   UNL     1     113.487 124.347 137.029  0.00  0.00    +0.000 A 
ATOM     18  C   UNL     1     112.094 125.037 136.322  0.00  0.00    +0.000 A 
ATOM     19  C   UNL     1     112.156 124.183 136.390  0.00  0.00    +0.000 A 
ATOM     20  C   UNL     1     112.858 123.836 136.746  0.00  0.00    +0.000 A 
ENDBRANCH   5  12
BRANCH   1  21
ATOM     21  O   UNL     1     113.014 130.118 136.544  0.00  0.00    +0.000 OA
BRANCH  21  30
ATOM     22  O   UNL     1     111.635 130.225 136.184  0.00  0.00    +0.000 OA
ATOM     23  O   UNL     1     111.360 132.085 137.794  0.00  0.00    +0.000 OA
ATOM     24  O   UNL     1     110.073 131.572 136.898  0.00  0.00    +0.000 OA
ATOM     25  O   UNL     1     112.830 131.357 137.617  0.00  0.00    +0.000 OA
ATOM     26  C   UNL     1     111.452 131.465 137.258  0.00  0.00    +0.000 C 
ATOM     27  C   UNL     1     110.808 131.208 136.809  0.00  0.00    +0.000 C 
ATOM     28  C   UNL     1     112.186 131.101 137.169  0.00  0.00    +0.000 C 
ATOM     29  C   UNL     1     110.900 130.588 136.273  0.00  0.00    +0.000 C 
ATOM     30  C   UNL     1     112.278 130.481 136.632  0.00  0.00    +0.000 C 
ATOM     31  C   UNL     1     110.256 130.332 135.825  0.00  0.00    +0.000 C 
ENDBRANCH  21  30
ENDBRANCH   1  21
TORSDOF 3
ENDMDL
MODEL 3
REMARK VINA RESULT:      -9.6      3.384      4.148
REMARK  Name = 44257788
REMARK  3 active torsions:
REMARK  status: ('A' for Active; 'I' for Inactive)
REMARK    1  A    between atoms: O_2  and  C_14
REMARK    2  A    between atoms: O_2  and  C_16
REMARK    3  A    between atoms: C_20  and  C_23
REMARK                            x       y       z     vdW  Elec       q    Type
REMARK                         _______ _______ _______ _____ _____    ______ ____
ROOT
ATOM      1  C   UNL     1     112.644 129.557 136.537  0.00  0.00    +0.000 A 
ATOM      2  C   UNL     1     113.068 129.161 135.949  0.00  0.00    +0.000 A 
ATOM      3  C   UNL     1     112.273 129.129 137.136  0.00  0.00    +0.000 A 
ATOM      4  C   UNL     1     113.120 128.338 135.961  0.00  0.00    +0.000 A 
ATOM      5  C   UNL     1     112.748 127.911 136.561  0.00  0.00    +0.000 A 
ATOM      6  C   UNL     1     112.325 128.306 137.148  0.00  0.00    +0.000 A 
ATOM      7  C   UNL     1     113.440 129.590 135.350  0.00  0.00    +0.000 C 
ENDROOT
BRANCH   5  12
ATOM      8  O   UNL     1     113.470 126.720 136.884  0.00  0.00    +0.000 OA
ATOM      9  O   UNL     1     111.615 125.350 135.988  0.00  0.00    +0.000 OA
ATOM     10  O   UNL     1     112.322 124.133 136.304  0.00  0.00    +0.000 OA
ATOM     11  O   UNL     1     114.958 124.307 137.551  0.00  0.00    +0.000 OA
ATOM     12  C   UNL     1     112.800 127.087 136.573  0.00  0.00    +0.000 A 
ATOM     13  C   UNL     1     112.181 126.630 136.275  0.00  0.00    +0.000 A 
ATOM     14  C   UNL     1     112.904 125.441 136.598  0.00  0.00    +0.000 A 
ATOM     15  C   UNL     1     113.522 125.897 136.897  0.00  0.00    +0.000 A 
ATOM     16  C   UNL     1     112.233 125.807 136.287  0.00  0.00    +0.000 A 
ATOM     17  C   UNL     1     112.946 124.582 136.605  0.00  0.00    +0.000 A 
ATOM     18  C   UNL     1     114.226 125.527 137.223  0.00  0.00    +0.000 A 
ATOM     19  C   UNL     1     114.286 124.671 137.239  0.00  0.00    +0.000 A 
ATOM     20  C   UNL     1     113.641 124.194 136.928  0.00  0.00    +0.000 A 
ENDBRANCH   5  12
BRANCH   1  21
ATOM     21  O   UNL     1     112.592 130.380 136.524  0.00  0.00    +0.000 OA
BRANCH  21  30
ATOM     22  O   UNL     1     111.209 130.532 136.201  0.00  0.00    +0.000 OA
ATOM     23  O   UNL     1     110.999 132.292 137.929  0.00  0.00    +0.000 OA
ATOM     24  O   UNL     1     109.685 131.857 137.031  0.00  0.00    +0.000 OA
ATOM     25  O   UNL     1     112.452 131.553 137.676  0.00  0.00    +0.000 OA
ATOM     26  C   UNL     1     111.069 131.705 137.353  0.00  0.00    +0.000 C 
ATOM     27  C   UNL     1     110.412 131.488 136.904  0.00  0.00    +0.000 C 
ATOM     28  C   UNL     1     111.795 131.336 137.226  0.00  0.00    +0.000 C 
ATOM     29  C   UNL     1     110.482 130.901 136.328  0.00  0.00    +0.000 C 
ATOM     30  C   UNL     1     111.865 130.749 136.650  0.00  0.00    +0.000 C 
ATOM     31  C   UNL     1     109.825 130.684 135.879  0.00  0.00    +0.000 C 
ENDBRANCH  21  30
ENDBRANCH   1  21
TORSDOF 3
ENDMDL
MODEL 4
REMARK VINA RESULT:      -9.5      3.732      5.039
REMARK  Name = 44257788
REMARK  3 active torsions:
REMARK  status: ('A' for Active; 'I' for Inactive)
REMARK    1  A    between atoms: O_2  and  C_14
REMARK    2  A    between atoms: O_2  and  C_16
REMARK    3  A    between atoms: C_20  and  C_23
REMARK                            x       y       z     vdW  Elec       q    Type
REMARK                         _______ _______ _______ _____ _____    ______ ____
ROOT
ATOM      1  C   UNL     1     110.684 128.392 135.528  0.00  0.00    +0.000 A 
ATOM      2  C   UNL     1     111.454 128.263 135.258  0.00  0.00    +0.000 A 
ATOM      3  C   UNL     1     110.321 127.837 136.019  0.00  0.00    +0.000 A 
ATOM      4  C   UNL     1     111.859 127.579 135.479  0.00  0.00    +0.000 A 
ATOM      5  C   UNL     1     111.495 127.024 135.970  0.00  0.00    +0.000 A 
ATOM      6  C   UNL     1     110.726 127.153 136.239  0.00  0.00    +0.000 A 
ATOM      7  C   UNL     1     111.816 128.818 134.768  0.00  0.00    +0.000 C 
ENDROOT
BRANCH   5  12
ATOM      8  O   UNL     1     112.642 126.397 136.546  0.00  0.00    +0.000 OA
ATOM      9  O   UNL     1     111.632 124.175 136.140  0.00  0.00    +0.000 OA
ATOM     10  O   UNL     1     112.778 123.516 136.718  0.00  0.00    +0.000 OA
ATOM     11  O   UNL     1     114.989 125.138 137.725  0.00  0.00    +0.000 OA
ATOM     12  C   UNL     1     111.900 126.340 136.190  0.00  0.00    +0.000 A 
ATOM     13  C   UNL     1     111.563 125.599 136.055  0.00  0.00    +0.000 A 
ATOM     14  C   UNL     1     112.710 124.973 136.632  0.00  0.00    +0.000 A 
ATOM     15  C   UNL     1     113.047 125.713 136.767  0.00  0.00    +0.000 A 
ATOM     16  C   UNL     1     111.968 124.915 136.276  0.00  0.00    +0.000 A 
ATOM     17  C   UNL     1     113.123 124.253 136.857  0.00  0.00    +0.000 A 
ATOM     18  C   UNL     1     113.819 125.786 137.137  0.00  0.00    +0.000 A 
ATOM     19  C   UNL     1     114.247 125.078 137.369  0.00  0.00    +0.000 A 
ATOM     20  C   UNL     1     113.896 124.305 137.228  0.00  0.00    +0.000 A 
ENDBRANCH   5  12
BRANCH   1  21
ATOM     21  O   UNL     1     110.279 129.076 135.307  0.00  0.00    +0.000 OA
BRANCH  21  30
ATOM     22  O   UNL     1     110.172 129.716 136.580  0.00  0.00    +0.000 OA
ATOM     23  O   UNL     1     107.805 130.265 136.105  0.00  0.00    +0.000 OA
ATOM     24  O   UNL     1     108.487 130.723 137.536  0.00  0.00    +0.000 OA
ATOM     25  O   UNL     1     108.701 129.442 134.991  0.00  0.00    +0.000 OA
ATOM     26  C   UNL     1     108.594 130.082 136.263  0.00  0.00    +0.000 C 
ATOM     27  C   UNL     1     108.935 130.311 136.979  0.00  0.00    +0.000 C 
ATOM     28  C   UNL     1     109.043 129.671 135.707  0.00  0.00    +0.000 C 
ATOM     29  C   UNL     1     109.724 130.128 137.137  0.00  0.00    +0.000 C 
ATOM     30  C   UNL     1     109.831 129.488 135.865  0.00  0.00    +0.000 C 
ATOM     31  C   UNL     1     110.064 130.357 137.853  0.00  0.00    +0.000 C 
ENDBRANCH  21  30
ENDBRANCH   1  21
TORSDOF 3
ENDMDL
MODEL 5
REMARK VINA RESULT:      -9.1      3.748      6.699
REMARK  Name = 44257788
REMARK  3 active torsions:
REMARK  status: ('A' for Active; 'I' for Inactive)
REMARK    1  A    between atoms: O_2  and  C_14
REMARK    2  A    between atoms: O_2  and  C_16
REMARK    3  A    between atoms: C_20  and  C_23
REMARK                            x       y       z     vdW  Elec       q    Type
REMARK                         _______ _______ _______ _____ _____    ______ ____
ROOT
ATOM      1  C   UNL     1     112.403 127.929 136.606  0.00  0.00    +0.000 A 
ATOM      2  C   UNL     1     112.725 128.613 136.276  0.00  0.00    +0.000 A 
ATOM      3  C   UNL     1     111.753 127.982 137.111  0.00  0.00    +0.000 A 
ATOM      4  C   UNL     1     112.398 129.350 136.452  0.00  0.00    +0.000 A 
ATOM      5  C   UNL     1     111.748 129.402 136.957  0.00  0.00    +0.000 A 
ATOM      6  C   UNL     1     111.426 128.719 137.287  0.00  0.00    +0.000 A 
ATOM      7  C   UNL     1     113.375 128.560 135.770  0.00  0.00    +0.000 C 
ENDROOT
BRANCH   5  12
ATOM      8  O   UNL     1     110.970 130.536 136.568  0.00  0.00    +0.000 OA
ATOM      9  O   UNL     1     111.343 131.557 138.791  0.00  0.00    +0.000 OA
ATOM     10  O   UNL     1     110.561 132.712 138.424  0.00  0.00    +0.000 OA
ATOM     11  O   UNL     1     109.379 132.836 135.755  0.00  0.00    +0.000 OA
ATOM     12  C   UNL     1     111.421 130.139 137.133  0.00  0.00    +0.000 A 
ATOM     13  C   UNL     1     111.546 130.480 137.875  0.00  0.00    +0.000 A 
ATOM     14  C   UNL     1     110.767 131.612 137.484  0.00  0.00    +0.000 A 
ATOM     15  C   UNL     1     110.642 131.272 136.744  0.00  0.00    +0.000 A 
ATOM     16  C   UNL     1     111.219 131.216 138.050  0.00  0.00    +0.000 A 
ATOM     17  C   UNL     1     110.431 132.380 137.679  0.00  0.00    +0.000 A 
ATOM     18  C   UNL     1     110.174 131.675 136.146  0.00  0.00    +0.000 A 
ATOM     19  C   UNL     1     109.830 132.442 136.323  0.00  0.00    +0.000 A 
ATOM     20  C   UNL     1     109.960 132.797 137.095  0.00  0.00    +0.000 A 
ENDBRANCH   5  12
BRANCH   1  21
ATOM     21  O   UNL     1     112.730 127.192 136.430  0.00  0.00    +0.000 OA
BRANCH  21  30
ATOM     22  O   UNL     1     111.651 126.650 135.665  0.00  0.00    +0.000 OA
ATOM     23  O   UNL     1     111.938 124.472 136.803  0.00  0.00    +0.000 OA
ATOM     24  O   UNL     1     110.764 124.656 135.659  0.00  0.00    +0.000 OA
ATOM     25  O   UNL     1     112.921 125.739 137.189  0.00  0.00    +0.000 OA
ATOM     26  C   UNL     1     111.842 125.198 136.424  0.00  0.00    +0.000 C 
ATOM     27  C   UNL     1     111.256 125.291 135.852  0.00  0.00    +0.000 C 
ATOM     28  C   UNL     1     112.333 125.832 136.616  0.00  0.00    +0.000 C 
ATOM     29  C   UNL     1     111.160 126.017 135.472  0.00  0.00    +0.000 C 
ATOM     30  C   UNL     1     112.238 126.558 136.237  0.00  0.00    +0.000 C 
ATOM     31  C   UNL     1     110.573 126.109 134.900  0.00  0.00    +0.000 C 
ENDBRANCH  21  30
ENDBRANCH   1  21
TORSDOF 3
ENDMDL
MODEL 6
REMARK VINA RESULT:      -9.1      4.068      6.951
REMARK  Name = 44257788
REMARK  3 active torsions:
REMARK  status: ('A' for Active; 'I' for Inactive)
REMARK    1  A    between atoms: O_2  and  C_14
REMARK    2  A    between atoms: O_2  and  C_16
REMARK    3  A    between atoms: C_20  and  C_23
REMARK                            x       y       z     vdW  Elec       q    Type
REMARK                         _______ _______ _______ _____ _____    ______ ____
ROOT
ATOM      1  C   UNL     1     111.871 128.056 136.218  0.00  0.00    +0.000 A 
ATOM      2  C   UNL     1     111.814 128.726 135.739  0.00  0.00    +0.000 A 
ATOM      3  C   UNL     1     111.420 128.001 136.906  0.00  0.00    +0.000 A 
ATOM      4  C   UNL     1     111.306 129.341 135.950  0.00  0.00    +0.000 A 
ATOM      5  C   UNL     1     110.855 129.286 136.639  0.00  0.00    +0.000 A 
ATOM      6  C   UNL     1     110.912 128.616 137.116  0.00  0.00    +0.000 A 
ATOM      7  C   UNL     1     112.266 128.781 135.051  0.00  0.00    +0.000 C 
ENDROOT
BRANCH   5  12
ATOM      8  O   UNL     1     110.640 130.560 137.250  0.00  0.00    +0.000 OA
ATOM      9  O   UNL     1     108.236 130.428 136.679  0.00  0.00    +0.000 OA
ATOM     10  O   UNL     1     107.991 131.713 137.290  0.00  0.00    +0.000 OA
ATOM     11  O   UNL     1     110.223 133.157 138.500  0.00  0.00    +0.000 OA
ATOM     12  C   UNL     1     110.347 129.901 136.849  0.00  0.00    +0.000 A 
ATOM     13  C   UNL     1     109.545 129.857 136.659  0.00  0.00    +0.000 A 
ATOM     14  C   UNL     1     109.331 131.131 137.270  0.00  0.00    +0.000 A 
ATOM     15  C   UNL     1     110.132 131.175 137.460  0.00  0.00    +0.000 A 
ATOM     16  C   UNL     1     109.037 130.472 136.869  0.00  0.00    +0.000 A 
ATOM     17  C   UNL     1     108.792 131.765 137.484  0.00  0.00    +0.000 A 
ATOM     18  C   UNL     1     110.450 131.855 137.878  0.00  0.00    +0.000 A 
ATOM     19  C   UNL     1     109.927 132.499 138.100  0.00  0.00    +0.000 A 
ATOM     20  C   UNL     1     109.091 132.454 137.901  0.00  0.00    +0.000 A 
ENDBRANCH   5  12
BRANCH   1  21
ATOM     21  O   UNL     1     112.379 127.441 136.007  0.00  0.00    +0.000 OA
BRANCH  21  30
ATOM     22  O   UNL     1     111.407 126.455 135.654  0.00  0.00    +0.000 OA
ATOM     23  O   UNL     1     112.724 124.730 136.844  0.00  0.00    +0.000 OA
ATOM     24  O   UNL     1     111.314 124.319 136.093  0.00  0.00    +0.000 OA
ATOM     25  O   UNL     1     113.257 126.291 136.801  0.00  0.00    +0.000 OA
ATOM     26  C   UNL     1     112.285 125.305 136.447  0.00  0.00    +0.000 C 
ATOM     27  C   UNL     1     111.580 125.100 136.072  0.00  0.00    +0.000 C 
ATOM     28  C   UNL     1     112.551 126.085 136.425  0.00  0.00    +0.000 C 
ATOM     29  C   UNL     1     111.141 125.675 135.675  0.00  0.00    +0.000 C 
ATOM     30  C   UNL     1     112.112 126.660 136.028  0.00  0.00    +0.000 C 
ATOM     31  C   UNL     1     110.436 125.469 135.300  0.00  0.00    +0.000 C 
ENDBRANCH  21  30
ENDBRANCH   1  21
TORSDOF 3
ENDMDL
