MODEL 1
REMARK VINA RESULT:      -7.8      0.000      0.000
REMARK  Name = 131753187
REMARK  2 active torsions:
REMARK  status: ('A' for Active; 'I' for Inactive)
REMARK    1  A    between atoms: O_2  and  C_15
REMARK    2  A    between atoms: C_5  and  C_9
REMARK                            x       y       z     vdW  Elec       q    Type
REMARK                         _______ _______ _______ _____ _____    ______ ____
ROOT
ATOM      1  O   UNL     1     106.017 125.344 146.249  0.00  0.00    +0.000 OA
ATOM      2  O   UNL     1     108.541 125.379 147.637  0.00  0.00    +0.000 OA
ATOM      3  C   UNL     1     104.823 124.758 146.910  0.00  0.00    +0.000 C 
ATOM      4  C   UNL     1     105.304 124.581 147.599  0.00  0.00    +0.000 C 
ATOM      5  C   UNL     1     105.182 125.143 146.230  0.00  0.00    +0.000 C 
ATOM      6  C   UNL     1     106.138 124.791 147.600  0.00  0.00    +0.000 A 
ATOM      7  C   UNL     1     106.482 125.159 146.947  0.00  0.00    +0.000 A 
ATOM      8  C   UNL     1     106.594 124.618 148.265  0.00  0.00    +0.000 A 
ATOM      9  C   UNL     1     107.283 125.355 146.960  0.00  0.00    +0.000 A 
ATOM     10  C   UNL     1     107.396 124.814 148.277  0.00  0.00    +0.000 A 
ATOM     11  C   UNL     1     107.740 125.183 147.625  0.00  0.00    +0.000 A 
ENDROOT
BRANCH   3  13
ATOM     12  O   UNL     1     101.618 123.970 146.872  0.00  0.00    +0.000 OA
ATOM     13  C   UNL     1     104.022 124.561 146.900  0.00  0.00    +0.000 A 
ATOM     14  C   UNL     1     103.475 125.039 147.291  0.00  0.00    +0.000 A 
ATOM     15  C   UNL     1     103.768 123.886 146.500  0.00  0.00    +0.000 A 
ATOM     16  C   UNL     1     102.674 124.842 147.282  0.00  0.00    +0.000 A 
ATOM     17  C   UNL     1     102.967 123.689 146.490  0.00  0.00    +0.000 A 
ATOM     18  C   UNL     1     102.420 124.167 146.881  0.00  0.00    +0.000 A 
ENDBRANCH   3  13
BRANCH  10  19
ATOM     19  O   UNL     1     107.852 124.641 148.943  0.00  0.00    +0.000 OA
ATOM     20  C   UNL     1     107.499 124.312 149.611  0.00  0.00    +0.000 C 
ENDBRANCH  10  19
TORSDOF 2
ENDMDL
MODEL 2
REMARK VINA RESULT:      -7.7      8.579     10.203
REMARK  Name = 131753187
REMARK  2 active torsions:
REMARK  status: ('A' for Active; 'I' for Inactive)
REMARK    1  A    between atoms: O_2  and  C_15
REMARK    2  A    between atoms: C_5  and  C_9
REMARK                            x       y       z     vdW  Elec       q    Type
REMARK                         _______ _______ _______ _____ _____    ______ ____
ROOT
ATOM      1  O   UNL     1     102.627 123.541 138.342  0.00  0.00    +0.000 OA
ATOM      2  O   UNL     1     102.254 122.813 135.579  0.00  0.00    +0.000 OA
ATOM      3  C   UNL     1     103.998 123.789 138.857  0.00  0.00    +0.000 C 
ATOM      4  C   UNL     1     104.311 123.619 138.076  0.00  0.00    +0.000 C 
ATOM      5  C   UNL     1     103.149 123.749 138.991  0.00  0.00    +0.000 C 
ATOM      6  C   UNL     1     103.773 123.412 137.438  0.00  0.00    +0.000 A 
ATOM      7  C   UNL     1     102.959 123.374 137.567  0.00  0.00    +0.000 A 
ATOM      8  C   UNL     1     104.081 123.250 136.691  0.00  0.00    +0.000 A 
ATOM      9  C   UNL     1     102.453 123.175 136.947  0.00  0.00    +0.000 A 
ATOM     10  C   UNL     1     103.574 123.050 136.070  0.00  0.00    +0.000 A 
ATOM     11  C   UNL     1     102.760 123.013 136.199  0.00  0.00    +0.000 A 
ENDROOT
BRANCH   3  13
ATOM     12  O   UNL     1     106.033 124.587 141.330  0.00  0.00    +0.000 OA
ATOM     13  C   UNL     1     104.507 123.988 139.475  0.00  0.00    +0.000 A 
ATOM     14  C   UNL     1     104.781 124.762 139.550  0.00  0.00    +0.000 A 
ATOM     15  C   UNL     1     104.741 123.413 140.019  0.00  0.00    +0.000 A 
ATOM     16  C   UNL     1     105.290 124.962 140.168  0.00  0.00    +0.000 A 
ATOM     17  C   UNL     1     105.250 123.612 140.637  0.00  0.00    +0.000 A 
ATOM     18  C   UNL     1     105.524 124.387 140.711  0.00  0.00    +0.000 A 
ENDBRANCH   3  13
BRANCH  10  19
ATOM     19  O   UNL     1     103.882 122.888 135.323  0.00  0.00    +0.000 OA
ATOM     20  C   UNL     1     104.453 123.386 134.995  0.00  0.00    +0.000 C 
ENDBRANCH  10  19
TORSDOF 2
ENDMDL
MODEL 3
REMARK VINA RESULT:      -7.7      0.999      4.422
REMARK  Name = 131753187
REMARK  2 active torsions:
REMARK  status: ('A' for Active; 'I' for Inactive)
REMARK    1  A    between atoms: O_2  and  C_15
REMARK    2  A    between atoms: C_5  and  C_9
REMARK                            x       y       z     vdW  Elec       q    Type
REMARK                         _______ _______ _______ _____ _____    ______ ____
ROOT
ATOM      1  O   UNL     1     104.046 125.129 148.152  0.00  0.00    +0.000 OA
ATOM      2  O   UNL     1     101.939 124.264 146.387  0.00  0.00    +0.000 OA
ATOM      3  C   UNL     1     105.448 124.726 147.873  0.00  0.00    +0.000 C 
ATOM      4  C   UNL     1     105.178 124.300 147.179  0.00  0.00    +0.000 C 
ATOM      5  C   UNL     1     104.878 125.144 148.363  0.00  0.00    +0.000 C 
ATOM      6  C   UNL     1     104.341 124.296 146.982  0.00  0.00    +0.000 A 
ATOM      7  C   UNL     1     103.794 124.697 147.453  0.00  0.00    +0.000 A 
ATOM      8  C   UNL     1     104.088 123.885 146.314  0.00  0.00    +0.000 A 
ATOM      9  C   UNL     1     102.994 124.686 147.254  0.00  0.00    +0.000 A 
ATOM     10  C   UNL     1     103.286 123.874 146.115  0.00  0.00    +0.000 A 
ATOM     11  C   UNL     1     102.739 124.275 146.586  0.00  0.00    +0.000 A 
ENDROOT
BRANCH   3  13
ATOM     12  O   UNL     1     108.654 124.763 148.658  0.00  0.00    +0.000 OA
ATOM     13  C   UNL     1     106.250 124.736 148.069  0.00  0.00    +0.000 A 
ATOM     14  C   UNL     1     106.506 124.389 148.773  0.00  0.00    +0.000 A 
ATOM     15  C   UNL     1     106.795 125.091 147.562  0.00  0.00    +0.000 A 
ATOM     16  C   UNL     1     107.307 124.398 148.969  0.00  0.00    +0.000 A 
ATOM     17  C   UNL     1     107.596 125.101 147.758  0.00  0.00    +0.000 A 
ATOM     18  C   UNL     1     107.852 124.754 148.461  0.00  0.00    +0.000 A 
ENDBRANCH   3  13
BRANCH  10  19
ATOM     19  O   UNL     1     103.033 123.463 145.447  0.00  0.00    +0.000 OA
ATOM     20  C   UNL     1     103.378 122.739 145.252  0.00  0.00    +0.000 C 
ENDBRANCH  10  19
TORSDOF 2
ENDMDL
MODEL 4
REMARK VINA RESULT:      -7.7      6.857      7.808
REMARK  Name = 131753187
REMARK  2 active torsions:
REMARK  status: ('A' for Active; 'I' for Inactive)
REMARK    1  A    between atoms: O_2  and  C_15
REMARK    2  A    between atoms: C_5  and  C_9
REMARK                            x       y       z     vdW  Elec       q    Type
REMARK                         _______ _______ _______ _____ _____    ______ ____
ROOT
ATOM      1  O   UNL     1     105.745 123.128 140.079  0.00  0.00    +0.000 OA
ATOM      2  O   UNL     1     107.256 124.736 141.933  0.00  0.00    +0.000 OA
ATOM      3  C   UNL     1     104.618 123.737 139.328  0.00  0.00    +0.000 C 
ATOM      4  C   UNL     1     104.773 124.484 139.722  0.00  0.00    +0.000 C 
ATOM      5  C   UNL     1     105.108 123.054 139.508  0.00  0.00    +0.000 C 
ATOM      6  C   UNL     1     105.415 124.540 140.291  0.00  0.00    +0.000 A 
ATOM      7  C   UNL     1     105.885 123.884 140.463  0.00  0.00    +0.000 A 
ATOM      8  C   UNL     1     105.558 125.261 140.665  0.00  0.00    +0.000 A 
ATOM      9  C   UNL     1     106.499 123.950 141.010  0.00  0.00    +0.000 A 
ATOM     10  C   UNL     1     106.173 125.326 141.213  0.00  0.00    +0.000 A 
ATOM     11  C   UNL     1     106.643 124.670 141.386  0.00  0.00    +0.000 A 
ENDROOT
BRANCH   3  13
ATOM     12  O   UNL     1     102.160 123.488 137.139  0.00  0.00    +0.000 OA
ATOM     13  C   UNL     1     104.003 123.675 138.781  0.00  0.00    +0.000 A 
ATOM     14  C   UNL     1     104.173 123.558 137.983  0.00  0.00    +0.000 A 
ATOM     15  C   UNL     1     103.220 123.730 139.033  0.00  0.00    +0.000 A 
ATOM     16  C   UNL     1     103.558 123.496 137.436  0.00  0.00    +0.000 A 
ATOM     17  C   UNL     1     102.605 123.667 138.486  0.00  0.00    +0.000 A 
ATOM     18  C   UNL     1     102.775 123.550 137.687  0.00  0.00    +0.000 A 
ENDBRANCH   3  13
BRANCH  10  19
ATOM     19  O   UNL     1     106.316 126.047 141.587  0.00  0.00    +0.000 OA
ATOM     20  C   UNL     1     105.685 126.538 141.793  0.00  0.00    +0.000 C 
ENDBRANCH  10  19
TORSDOF 2
ENDMDL
MODEL 5
REMARK VINA RESULT:      -7.7      7.570      8.593
REMARK  Name = 131753187
REMARK  2 active torsions:
REMARK  status: ('A' for Active; 'I' for Inactive)
REMARK    1  A    between atoms: O_2  and  C_15
REMARK    2  A    between atoms: C_5  and  C_9
REMARK                            x       y       z     vdW  Elec       q    Type
REMARK                         _______ _______ _______ _____ _____    ______ ____
ROOT
ATOM      1  O   UNL     1     102.723 129.656 140.575  0.00  0.00    +0.000 OA
ATOM      2  O   UNL     1     104.661 127.675 141.365  0.00  0.00    +0.000 OA
ATOM      3  C   UNL     1     102.397 130.773 141.499  0.00  0.00    +0.000 C 
ATOM      4  C   UNL     1     102.956 130.453 142.066  0.00  0.00    +0.000 C 
ATOM      5  C   UNL     1     102.280 130.371 140.747  0.00  0.00    +0.000 C 
ATOM      6  C   UNL     1     103.391 129.736 141.877  0.00  0.00    +0.000 A 
ATOM      7  C   UNL     1     103.279 129.351 141.156  0.00  0.00    +0.000 A 
ATOM      8  C   UNL     1     103.927 129.435 142.427  0.00  0.00    +0.000 A 
ATOM      9  C   UNL     1     103.702 128.664 140.986  0.00  0.00    +0.000 A 
ATOM     10  C   UNL     1     104.350 128.747 142.256  0.00  0.00    +0.000 A 
ATOM     11  C   UNL     1     104.238 128.362 141.535  0.00  0.00    +0.000 A 
ENDROOT
BRANCH   3  13
ATOM     12  O   UNL     1     100.710 133.523 142.192  0.00  0.00    +0.000 OA
ATOM     13  C   UNL     1     101.975 131.460 141.672  0.00  0.00    +0.000 A 
ATOM     14  C   UNL     1     102.318 132.199 141.540  0.00  0.00    +0.000 A 
ATOM     15  C   UNL     1     101.210 131.409 141.977  0.00  0.00    +0.000 A 
ATOM     16  C   UNL     1     101.896 132.886 141.713  0.00  0.00    +0.000 A 
ATOM     17  C   UNL     1     100.789 132.096 142.151  0.00  0.00    +0.000 A 
ATOM     18  C   UNL     1     101.132 132.835 142.019  0.00  0.00    +0.000 A 
ENDBRANCH   3  13
BRANCH  10  19
ATOM     19  O   UNL     1     104.886 128.446 142.806  0.00  0.00    +0.000 OA
ATOM     20  C   UNL     1     104.911 128.755 143.571  0.00  0.00    +0.000 C 
ENDBRANCH  10  19
TORSDOF 2
ENDMDL
MODEL 6
REMARK VINA RESULT:      -7.5     11.774     12.884
REMARK  Name = 131753187
REMARK  2 active torsions:
REMARK  status: ('A' for Active; 'I' for Inactive)
REMARK    1  A    between atoms: O_2  and  C_15
REMARK    2  A    between atoms: C_5  and  C_9
REMARK                            x       y       z     vdW  Elec       q    Type
REMARK                         _______ _______ _______ _____ _____    ______ ____
ROOT
ATOM      1  O   UNL     1     109.858 125.826 135.222  0.00  0.00    +0.000 OA
ATOM      2  O   UNL     1     108.148 128.090 135.724  0.00  0.00    +0.000 OA
ATOM      3  C   UNL     1     111.000 125.552 136.132  0.00  0.00    +0.000 C 
ATOM      4  C   UNL     1     110.781 126.240 136.597  0.00  0.00    +0.000 C 
ATOM      5  C   UNL     1     110.535 125.344 135.439  0.00  0.00    +0.000 C 
ATOM      6  C   UNL     1     110.100 126.711 136.364  0.00  0.00    +0.000 A 
ATOM      7  C   UNL     1     109.654 126.511 135.699  0.00  0.00    +0.000 A 
ATOM      8  C   UNL     1     109.896 127.371 136.815  0.00  0.00    +0.000 A 
ATOM      9  C   UNL     1     109.004 126.970 135.486  0.00  0.00    +0.000 A 
ATOM     10  C   UNL     1     109.244 127.830 136.602  0.00  0.00    +0.000 A 
ATOM     11  C   UNL     1     108.798 127.630 135.937  0.00  0.00    +0.000 A 
ENDROOT
BRANCH   3  13
ATOM     12  O   UNL     1     113.607 123.721 136.995  0.00  0.00    +0.000 OA
ATOM     13  C   UNL     1     111.651 125.095 136.348  0.00  0.00    +0.000 A 
ATOM     14  C   UNL     1     112.414 125.394 136.255  0.00  0.00    +0.000 A 
ATOM     15  C   UNL     1     111.539 124.337 136.656  0.00  0.00    +0.000 A 
ATOM     16  C   UNL     1     113.066 124.936 136.471  0.00  0.00    +0.000 A 
ATOM     17  C   UNL     1     112.191 123.880 136.871  0.00  0.00    +0.000 A 
ATOM     18  C   UNL     1     112.954 124.179 136.779  0.00  0.00    +0.000 A 
ENDBRANCH   3  13
BRANCH  10  19
ATOM     19  O   UNL     1     109.040 128.490 137.053  0.00  0.00    +0.000 OA
ATOM     20  C   UNL     1     109.622 128.906 137.464  0.00  0.00    +0.000 C 
ENDBRANCH  10  19
TORSDOF 2
ENDMDL
MODEL 7
REMARK VINA RESULT:      -7.5      9.157     10.457
REMARK  Name = 131753187
REMARK  2 active torsions:
REMARK  status: ('A' for Active; 'I' for Inactive)
REMARK    1  A    between atoms: O_2  and  C_15
REMARK    2  A    between atoms: C_5  and  C_9
REMARK                            x       y       z     vdW  Elec       q    Type
REMARK                         _______ _______ _______ _____ _____    ______ ____
ROOT
ATOM      1  O   UNL     1     100.880 131.909 142.077  0.00  0.00    +0.000 OA
ATOM      2  O   UNL     1     100.783 134.787 142.150  0.00  0.00    +0.000 OA
ATOM      3  C   UNL     1     102.070 131.228 141.505  0.00  0.00    +0.000 C 
ATOM      4  C   UNL     1     102.419 131.996 141.346  0.00  0.00    +0.000 C 
ATOM      5  C   UNL     1     101.294 131.184 141.874  0.00  0.00    +0.000 C 
ATOM      6  C   UNL     1     101.990 132.711 141.556  0.00  0.00    +0.000 A 
ATOM      7  C   UNL     1     101.246 132.668 141.910  0.00  0.00    +0.000 A 
ATOM      8  C   UNL     1     102.332 133.445 141.400  0.00  0.00    +0.000 A 
ATOM      9  C   UNL     1     100.844 133.360 142.108  0.00  0.00    +0.000 A 
ATOM     10  C   UNL     1     101.929 134.138 141.599  0.00  0.00    +0.000 A 
ATOM     11  C   UNL     1     101.185 134.095 141.952  0.00  0.00    +0.000 A 
ENDROOT
BRANCH   3  13
ATOM     12  O   UNL     1     103.688 128.465 140.709  0.00  0.00    +0.000 OA
ATOM     13  C   UNL     1     102.474 130.538 141.306  0.00  0.00    +0.000 A 
ATOM     14  C   UNL     1     102.279 130.130 140.616  0.00  0.00    +0.000 A 
ATOM     15  C   UNL     1     103.074 130.255 141.797  0.00  0.00    +0.000 A 
ATOM     16  C   UNL     1     102.684 129.439 140.417  0.00  0.00    +0.000 A 
ATOM     17  C   UNL     1     103.479 129.564 141.598  0.00  0.00    +0.000 A 
ATOM     18  C   UNL     1     103.284 129.156 140.908  0.00  0.00    +0.000 A 
ENDBRANCH   3  13
BRANCH  10  19
ATOM     19  O   UNL     1     102.271 134.872 141.443  0.00  0.00    +0.000 OA
ATOM     20  C   UNL     1     102.934 134.923 140.954  0.00  0.00    +0.000 C 
ENDBRANCH  10  19
TORSDOF 2
ENDMDL
MODEL 8
REMARK VINA RESULT:      -7.5      1.239      2.176
REMARK  Name = 131753187
REMARK  2 active torsions:
REMARK  status: ('A' for Active; 'I' for Inactive)
REMARK    1  A    between atoms: O_2  and  C_15
REMARK    2  A    between atoms: C_5  and  C_9
REMARK                            x       y       z     vdW  Elec       q    Type
REMARK                         _______ _______ _______ _____ _____    ______ ____
ROOT
ATOM      1  O   UNL     1     105.038 124.411 147.685  0.00  0.00    +0.000 OA
ATOM      2  O   UNL     1     107.454 125.557 146.612  0.00  0.00    +0.000 OA
ATOM      3  C   UNL     1     103.849 124.254 146.809  0.00  0.00    +0.000 C 
ATOM      4  C   UNL     1     104.294 124.596 146.160  0.00  0.00    +0.000 C 
ATOM      5  C   UNL     1     104.224 124.160 147.578  0.00  0.00    +0.000 C 
ATOM      6  C   UNL     1     105.108 124.841 146.286  0.00  0.00    +0.000 A 
ATOM      7  C   UNL     1     105.468 124.751 147.023  0.00  0.00    +0.000 A 
ATOM      8  C   UNL     1     105.530 125.169 145.657  0.00  0.00    +0.000 A 
ATOM      9  C   UNL     1     106.250 124.990 147.131  0.00  0.00    +0.000 A 
ATOM     10  C   UNL     1     106.313 125.408 145.766  0.00  0.00    +0.000 A 
ATOM     11  C   UNL     1     106.673 125.318 146.503  0.00  0.00    +0.000 A 
ENDROOT
BRANCH   3  13
ATOM     12  O   UNL     1     100.720 123.302 146.363  0.00  0.00    +0.000 OA
ATOM     13  C   UNL     1     103.067 124.016 146.698  0.00  0.00    +0.000 A 
ATOM     14  C   UNL     1     102.449 124.477 146.992  0.00  0.00    +0.000 A 
ATOM     15  C   UNL     1     102.902 123.317 146.291  0.00  0.00    +0.000 A 
ATOM     16  C   UNL     1     101.667 124.239 146.881  0.00  0.00    +0.000 A 
ATOM     17  C   UNL     1     102.120 123.079 146.180  0.00  0.00    +0.000 A 
ATOM     18  C   UNL     1     101.503 123.540 146.474  0.00  0.00    +0.000 A 
ENDBRANCH   3  13
BRANCH  10  19
ATOM     19  O   UNL     1     106.735 125.736 145.138  0.00  0.00    +0.000 OA
ATOM     20  C   UNL     1     106.334 126.114 144.524  0.00  0.00    +0.000 C 
ENDBRANCH  10  19
TORSDOF 2
ENDMDL
MODEL 9
REMARK VINA RESULT:      -7.5     12.699     13.747
REMARK  Name = 131753187
REMARK  2 active torsions:
REMARK  status: ('A' for Active; 'I' for Inactive)
REMARK    1  A    between atoms: O_2  and  C_15
REMARK    2  A    between atoms: C_5  and  C_9
REMARK                            x       y       z     vdW  Elec       q    Type
REMARK                         _______ _______ _______ _____ _____    ______ ____
ROOT
ATOM      1  O   UNL     1     111.087 124.572 136.092  0.00  0.00    +0.000 OA
ATOM      2  O   UNL     1     109.138 126.093 134.612  0.00  0.00    +0.000 OA
ATOM      3  C   UNL     1     112.375 125.205 136.475  0.00  0.00    +0.000 C 
ATOM      4  C   UNL     1     112.121 125.930 136.092  0.00  0.00    +0.000 C 
ATOM      5  C   UNL     1     111.854 124.521 136.476  0.00  0.00    +0.000 C 
ATOM      6  C   UNL     1     111.350 125.963 135.713  0.00  0.00    +0.000 A 
ATOM      7  C   UNL     1     110.850 125.306 135.713  0.00  0.00    +0.000 A 
ATOM      8  C   UNL     1     111.113 126.662 135.346  0.00  0.00    +0.000 A 
ATOM      9  C   UNL     1     110.113 125.350 135.346  0.00  0.00    +0.000 A 
ATOM     10  C   UNL     1     110.375 126.705 134.979  0.00  0.00    +0.000 A 
ATOM     11  C   UNL     1     109.875 126.049 134.979  0.00  0.00    +0.000 A 
ENDROOT
BRANCH   3  13
ATOM     12  O   UNL     1     115.328 125.042 137.939  0.00  0.00    +0.000 OA
ATOM     13  C   UNL     1     113.113 125.164 136.841  0.00  0.00    +0.000 A 
ATOM     14  C   UNL     1     113.751 124.822 136.446  0.00  0.00    +0.000 A 
ATOM     15  C   UNL     1     113.213 125.466 137.603  0.00  0.00    +0.000 A 
ATOM     16  C   UNL     1     114.489 124.781 136.812  0.00  0.00    +0.000 A 
ATOM     17  C   UNL     1     113.951 125.426 137.969  0.00  0.00    +0.000 A 
ATOM     18  C   UNL     1     114.589 125.083 137.573  0.00  0.00    +0.000 A 
ENDBRANCH   3  13
BRANCH  10  19
ATOM     19  O   UNL     1     110.138 127.405 134.612  0.00  0.00    +0.000 OA
ATOM     20  C   UNL     1     110.485 128.122 134.826  0.00  0.00    +0.000 C 
ENDBRANCH  10  19
TORSDOF 2
ENDMDL
MODEL 10
REMARK VINA RESULT:      -7.3     12.975     14.069
REMARK  Name = 131753187
REMARK  2 active torsions:
REMARK  status: ('A' for Active; 'I' for Inactive)
REMARK    1  A    between atoms: O_2  and  C_15
REMARK    2  A    between atoms: C_5  and  C_9
REMARK                            x       y       z     vdW  Elec       q    Type
REMARK                         _______ _______ _______ _____ _____    ______ ____
ROOT
ATOM      1  O   UNL     1     113.418 126.024 136.825  0.00  0.00    +0.000 OA
ATOM      2  O   UNL     1     111.422 124.034 136.224  0.00  0.00    +0.000 OA
ATOM      3  C   UNL     1     113.191 127.436 136.423  0.00  0.00    +0.000 C 
ATOM      4  C   UNL     1     112.434 127.208 136.088  0.00  0.00    +0.000 C 
ATOM      5  C   UNL     1     113.686 126.839 136.795  0.00  0.00    +0.000 C 
ATOM      6  C   UNL     1     112.181 126.387 136.128  0.00  0.00    +0.000 A 
ATOM      7  C   UNL     1     112.657 125.815 136.484  0.00  0.00    +0.000 A 
ATOM      8  C   UNL     1     111.453 126.176 135.803  0.00  0.00    +0.000 A 
ATOM      9  C   UNL     1     112.404 125.031 136.516  0.00  0.00    +0.000 A 
ATOM     10  C   UNL     1     111.200 125.391 135.835  0.00  0.00    +0.000 A 
ATOM     11  C   UNL     1     111.675 124.818 136.192  0.00  0.00    +0.000 A 
ENDROOT
BRANCH   3  13
ATOM     12  O   UNL     1     114.193 130.578 136.290  0.00  0.00    +0.000 OA
ATOM     13  C   UNL     1     113.441 128.221 136.390  0.00  0.00    +0.000 A 
ATOM     14  C   UNL     1     113.254 128.740 137.003  0.00  0.00    +0.000 A 
ATOM     15  C   UNL     1     113.880 128.487 135.744  0.00  0.00    +0.000 A 
ATOM     16  C   UNL     1     113.504 129.526 136.969  0.00  0.00    +0.000 A 
ATOM     17  C   UNL     1     114.130 129.272 135.710  0.00  0.00    +0.000 A 
ATOM     18  C   UNL     1     113.943 129.792 136.323  0.00  0.00    +0.000 A 
ENDBRANCH   3  13
BRANCH  10  19
ATOM     19  O   UNL     1     110.472 125.179 135.511  0.00  0.00    +0.000 OA
ATOM     20  C   UNL     1     110.036 125.731 135.078  0.00  0.00    +0.000 C 
ENDBRANCH  10  19
TORSDOF 2
ENDMDL
